# total energy = -381162.999822609 ev
CRYSTAL
PRIMVEC
9.28413075569196 0.00000000000000 0.00000000000000
0.00000000000000 9.28413075569196 0.00000000000000
0.00000000000000 0.00000000000000 13.58826381527919
PRIMCOORD
 96 1
Ni 3.457215224599983 4.595041119900404 5.829595585449255 1.0229252197921352 0.42626370733022073 0.41041568455437055
Ni 7.1339351461759435 3.6293708561199063 1.4787837304103213 -2.071113585026433 0.05468453602707357 1.7690303037315789
Ni 0.5739022393710113 0.8152747772833001 9.051916738386995 0.9654975738022856 -2.080804329951636 -1.181527317840481
Ni 5.317402176150155 2.3024086546487537 7.675222235165167 0.8494590601477627 1.6655781113824992 -1.8994721372956256
Ni 7.409441718216806 5.836793571811624 6.4027355977077285 2.7736171302258428 0.6365506353473682 1.568215576870925
Ni 3.9709525847981686 7.017047943412861 6.636766245235185 -1.4608547934960583 -0.19313638437978994 1.196502708203391
Ni 2.041431746811562 1.0767270326011484 12.11991521763383 0.5062612682007861 -0.9691580533730083 -1.606377432652627
Ni 6.985546888688863 7.807053174351399 11.08982979974604 1.7574670243740123 0.9177385612504516 -2.11756673428265
Ni 4.8435958611532435 2.2616884583565473 1.6911136513501341 1.0982755116986764 -3.0264357609576136 -0.008526549413772413
Ni 8.465808652671852 7.570586370985576 1.887776602102282 -1.8087625893241948 -0.045792375743766295 0.140948389522325
Ni 8.81607104335039 3.232771370207806 7.23225780162806 -0.8246995938148959 0.0116021030153026 -0.530592645857299
Ni 0.382910035517012 1.1840237285767594 6.2415240991994905 -0.6362014795380656 -0.7245037036195845 2.119615389281562
Ni 3.6579288414812443 2.588833364135954 13.229193340116442 -1.35701796411405 0.20713706953425617 1.13382127001377
Ni 4.298960914712362 8.960652807340024 2.100568872740077 -1.4069210195920803 1.283667219136041 1.1977576636564147
Ni 2.660924637325416 2.004610885321619 7.92099266568658 0.6068065713157162 -2.341816809348109 -2.2899743707555205
Ni 6.390814774169381 9.477797443424949 12.707947903597804 0.18348857687738077 -1.1749833460743764 -0.048584336666606644
Ni 6.299403225447752 2.37322800196224 13.244955936848068 -0.6719328715014041 0.6376934907025599 -0.7409219970766078
Ni 2.3922790377104404 5.689872206940632 12.855299123710092 0.7276160239963211 -1.223975716812679 1.3287839089690212
Ni 5.414022122071951 6.702445897914068 12.154470751286267 -1.003240339768698 -0.6345657437068556 3.5392631124116916
Ni 5.349107481744749 4.721240305536511 7.314575544542982 -1.3699269588662342 0.6239465734301125 -1.5024115338919224
Ni 1.7132191660267742 6.056084733786524 7.213424942946177 0.9030534484344511 -3.074903112430382 3.251287988383446
Ni 0.4143674548277468 4.9667962726437995 5.346152343012463 -0.5270319250892344 -0.5235107993098533 0.9499334008154414
Ni 6.636881368453156 8.417549742428603 5.397951292208337 -1.3051469862763714 -1.7192167226435617 2.0273554661038764
Ni 5.882815006608812 7.819855990285497 1.186901809026049 2.173114646751283 -0.7906602448419997 -1.828965803744947
P 9.229614067391372 0.6815693721528372 0.05108221432269695 0.8919287992761994 -0.34908304708316007 -0.6295893735381866
Ni 0.30925438634140334 5.913898275461138 12.170626995150311 -0.13650192371519718 -1.0590764729017115 -1.576195766862924
P 5.495917437049961 3.291604905069573 5.4813283544112075 -0.7197733880234507 0.07746656691859562 -0.029682357555781136
Ni 4.6456953358079005 1.6852553650162574 11.308275177434068 -0.4060386385325975 0.5504405338211618 -0.48807097044500464
P -0.5328747383598645 7.068203502366363 9.249272285273069 -0.17972833850400016 -1.659317732295084 -0.26436854035289953
P 8.885655601309827 4.129571954075949 3.1206803492515074 0.23114757351624063 0.9336511187156501 0.3771024151142215
P 1.5126262428417736 4.060395897857703 0.26950531009757017 0.012937019776642238 -0.9490849367722172 0.2165812456662915
Ni 5.242312128815143 3.658393048005323 9.506607028722337 0.619536874398191 -0.2589879927672766 2.0886996735393124
Ni 4.178564310627243 8.132099866641969 4.696035748105119 0.04251807586786871 0.5421839502393244 -1.1644068561101109
Ni 7.5334869855811855 3.833733136280428 4.80562562430968 -1.2834057379445383 -1.722994444518439 1.8907087892806989
Ni 8.727491154425643 0.7644413776575094 11.278680154697938 0.028113470406764485 0.010014961033840817 1.9580480379573053
Ni 4.105572476781067 9.53758724372632 13.402131623835963 -0.05161078219775627 -0.7263505270203362 -0.23451109067183484
Ni 3.889456487430866 7.713264888226486 8.896331422950594 -0.16779070652614975 -1.7425335429926312 -1.0578274309859588
Ni 3.334367610067727 4.23616305613496 8.336453791085058 -0.1623173421164043 1.2219509730731664 -0.21295136222318808
Ni 1.2233605894272104 3.3983816897382155 8.918493570823173 -0.4174792762693713 -0.43319205901893787 -0.7499933632502568
Ni 6.362321777721414 8.877077064744848 3.1951037960179427 -1.5952175593810658 0.11872197402395682 -1.2857259014372826
Ni 8.15198647413351 0.16130526822610158 4.19628678730353 3.8555597090924505 1.5905587204528155 -0.800528395885331
Ni 0.3903726195981054 8.069682657414312 10.755029199971522 0.8826725707852541 0.00930533656132591 0.9612753081908219
Ni 7.14508538688432 4.645825313634642 8.342405847136797 2.5800719404434083 -0.318776939900451 2.7945739349831675
Ni 2.0234483860687433 1.231382078163295 0.839489646405355 -0.6993968812496277 -1.318628051481942 -0.2844959072303939
Ni 7.413118233887511 5.434957836307912 10.89150963170293 -0.8745550838844423 -0.2116293009776549 -0.018648211228806593
Ni 0.1459818108662551 2.4065116097387014 4.430561607462651 0.39079971009565595 0.1638780017353049 -1.6866642426288372
Ni 7.708195752983543 8.444492289086146 7.967002959527191 -1.6652652081277708 1.543601892087303 0.7426235531487468
Ni 7.561645753331816 0.9545385913330845 1.2668121769070972 -1.08557451919224 -0.4364506751655516 0.5126820841254653
Ni 6.863117060028277 1.4474702151220509 5.579993594278094 -0.14646777667865743 1.1209125323719016 2.2396457977042976
Ni 1.7257898786988322 6.995694443305229 5.42590209543618 0.8179645890839075 1.4681389858622973 -4.251453802991877
Ni 1.9812612971604473 3.7251923668202855 11.027840588933584 -0.37505890232163147 1.5885005523722062 2.434634147691162
Ni 6.604405480028592 0.7536170099290362 10.267224273034484 -0.13664359149938404 0.8210008048070698 -1.0578204890074234
Ni 7.720125860652373 5.829951167646699 4.113805643692132 -0.604702637598836 3.146078189913311 -1.6775409401713304
Ni 4.584299380933217 1.3773378934642018 4.519429304432327 1.1434053141577791 0.05598037202036166 -1.7413156114251302
Ni 7.824089553785097 6.864741782862555 13.071977731367475 -1.4498239896031933 1.2379411778538356 0.1566812268765495
Ni 4.730617277322906 3.761790409178671 3.3607716771573384 -0.20338325891877876 0.012426141578494728 2.1711863193803183
P 7.371070406936439 2.966613917561893 11.148341175280096 -2.1663009662635595 0.5964607093050179 2.3250473031992533
Ni 4.638388725118897 0.5063908277481117 8.624905226256386 1.1017691266742318 -0.5545681828362902 2.1377028429108926
P 3.6232804665239904 6.769495888252033 3.194084398491065 -0.8898171522498354 -0.0831384204923923 -1.009292973720681
Ni 2.542802645208284 7.64221343765096 11.763128868465886 0.4001855221859301 0.8778903189052624 -0.45381307770339907
P 2.2102450913581166 9.130998033416038 7.601505310728379 0.044462858299065364 -0.35006263738761 -0.04707792732440924
P 1.6699458338521334 3.731245619894275 6.769360339947003 -0.3125898372531326 0.2830092953825384 -0.39618822810107895
P 3.0992934262741416 2.5195644666128914 9.857809901818658 2.1842117851057092 -1.1910239444770068 0.8673328551043901
Ni 0.3495187318269642 0.14753690272191963 2.3823626579430655 0.12228578011581519 1.5723252281639244 -0.13405963282229172
Ni 0.42736523750195765 2.631410386524476 12.64555019104416 -0.7807491563758748 0.4088725084369668 -0.667477921053844
Ni 8.837851613460176 5.270415191782884 1.104649983437546 1.3493195670285278 1.3669424223166136 0.7442893708869439
Ni 5.436805378273746 5.8373970402929265 2.596594897218554 1.074811110028149 1.4826176390944465 1.190140513430789
Ni 4.838062519386222 4.391467990830817 1.0403341695264061 -1.4985667062245354 -0.06879860683095247 -2.0165673743494366
Ni 4.799496241365742 4.076949502506358 12.037529700566393 1.0629151299215114 1.2932947149234757 -0.8870470457038658
Ni 2.6945424737992147 3.037396128353453 2.0341492748618113 -0.027352938091656117 2.3876264114830557 -1.135161586091748
Ni 1.8128657384855635 9.305948188210918 4.960925916940297 0.22888166030019935 -0.965740285940711 -0.021660772802885274
Ni 7.75373441299569 4.249300100766395 12.943676618590342 0.5083394908860536 -0.538340408123518 -1.9237667481769323
Ni 2.135619250547183 6.078710159770133 9.566096951609152 -0.44521710850427193 0.5027861651679921 0.5246598253126319
Ni 2.2589125033425552 5.426667107787861 1.7722903746288698 0.5141378427353854 0.6032859597569674 0.7788658233102328
Ni 4.038476065790694 9.750565196973746 6.509932953487186 -0.7103312687739445 -0.8610130835339495 -0.6345955685035264
Ni 6.95719315419812 2.053148319479315 3.375922449690228 -0.537558535652171 0.17614936290349018 -1.222757528134862
Ni 5.274314526585147 6.236336127086384 10.043805386647474 -0.33579738571784745 -1.057923847354507 -2.1401626173052946
Ni 9.300841916446048 4.926948784616861 9.783318680899708 -0.8965490716570301 1.497384512990976 0.15695864890765227
Ni 3.7720865098827416 6.8929005506131835 0.6048072529180921 0.7006505511510708 1.0479644221489501 0.31039308671212995
Ni 2.151727216932723 3.9717324517586214 4.149502196980755 -1.1172985897683985 1.3884126763752476 -2.9842161901667703
Ni 4.598643362527257 8.684709881166526 10.93063017231316 1.9868215105455718 -1.07638102561843 1.108100725319214
Ni -0.03969987035228084 2.969306315401551 1.3799021703032137 1.5754560604834222 -2.2209284238004523 0.3392948573481447
Ni 8.573346736039984 2.3914156135756537 9.69076889778104 -0.8364816740514884 1.781309121098932 -2.0151553244932585
Ni 2.1106542236822166 8.02562945827922 2.068432783491139 0.10546279502120547 -0.6784747863849799 0.37096159232380627
Ni 2.4278929622377783 1.1962694966819623 3.116128340076389 0.5218619508525206 -1.1279622401298315 0.6740884843918261
Ni 0.4084256113195361 7.9077581376850885 7.172972129611839 0.6543789217780408 0.5002374306042094 -0.15885123794467482
Ni 5.589427199260427 6.059362031846521 5.355814337604642 -1.7967221132198927 -0.32155630241780103 -3.0003655462331227
Ni 2.6432198004970444 2.240093570856394 5.300265528107258 -0.5072817390455006 -0.7742694621888019 1.844221701462753
P 7.3325691178293315 1.4550924862474275 7.840333068475668 0.7370280613388404 -0.12101308405097869 0.32112204309385983
Ni 0.5727630765609215 6.277631939468448 3.281973548107983 0.6545640412056534 -0.006765086637975445 0.0716522742296637
P 5.99550578239422 7.356011547295319 7.271500892760647 -0.8826584297178669 -0.662927068458368 0.18884264210044252
Ni 2.789268457102767 0.08400745466256944 9.913140534249727 -2.771778277244891 1.6924625944781688 0.33262078776207876
P 3.4673813474773123 5.526768602640249 11.09099867177367 1.3550448995480793 0.5395107742825354 -0.6229703255597723
P 6.490433494236725 5.603149144112201 0.4424491642953794 -1.2599925012269204 0.6465311435988479 1.0607155511670312
P 8.798459047826835 7.720887159351863 5.112489347052077 0.949238945851578 -1.8989751430545487 0.20871932641971147
Ni 0.5330158571431846 7.825816402054671 13.626581977119477 1.6805627577167894 0.9467413762407051 -0.29520480900746576
