# total energy = -340889.2015701183 ev
CRYSTAL
PRIMVEC
9.11649823031488 0.00000000000000 0.00000000000000
0.00000000000000 9.11649823031488 0.00000000000000
0.00000000000000 0.00000000000000 13.34291666983184
PRIMCOORD
 96 1
Ni 6.675637895484105 2.0941872800788186 11.572164718719701 -0.22927015398786965 -0.11850111626240235 0.1009008866821359
Ni 4.646104821027577 0.899783791341108 6.011704295540714 -0.36769217754391514 -1.1116958988696402 0.24255067314685969
Ni 2.4897430228517443 1.9717253590235118 4.715786775437333 0.22337641421125398 -0.31098649732175476 1.1026155338349268
Ni 3.8492499415812684 4.581295634934956 5.090109282125249 -1.33681526391393 1.499571493339966 0.17132443071102108
Ni 3.8294671403685823 2.8738119778237556 2.8596002686945123 0.14504698507173083 -0.25080391429458737 -0.04662644160928744
Ni 5.285344562148478 4.905077186948675 2.6698777351658975 0.026092840432309906 -0.12040527526365072 0.3392154102604609
Ni 5.092238896117546 2.9864280807639925 0.7532707245902668 0.8263353296461059 -0.5317072190777166 -1.0862581755228258
Ni 5.728178464870248 8.776699015246962 12.374541461158879 0.37553892728184357 -0.7529830420062 0.29796180292731267
Ni 2.4959969406544644 5.455558701061873 11.70059065293323 0.6460524041902164 0.6566029260125531 -1.0608927001748438
Ni 0.8798733591528558 0.24481535578138294 0.03237815520137184 0.1280422229836182 0.01084542735493616 2.0112135662366915
Ni 7.709758758507085 9.11795689441493 7.2857394848833525 -0.053769737522288044 -0.29807878812115113 -1.0673325422629167
Ni 8.663654436888756 2.709149786347469 1.450989155415729 1.3438806554011435 1.0794889751197925 -0.09815160607177291
Ni 0.2807699132480713 0.5123827562570061 5.136876006522005 0.6585456515612207 0.04443046239923316 0.043498694613583154
Ni 2.3225555613589077 6.600554415858443 0.5574857197222801 -1.0300096374427423 1.7555106719785898 -0.4368198855795122
Ni 7.486696279211227 4.017312586906556 3.7359902138642496 0.7505998864860041 1.4505744946159729 0.8124272042054459
Ni 7.758422626190641 4.138069722788234 12.413836303586086 1.1693886255954182 -0.2732684139456907 0.9668288910191993
Ni 8.475289349950263 7.641029478164945 9.234165809317343 0.3755990910958177 1.020797889036487 0.3706556310476133
Ni 7.289515538460447 1.1746152176260714 0.4905897671791597 -0.37353860902236313 -1.194063502634279 -1.2547757329126712
Ni 1.751033169273875 7.031937996772317 9.384166848300428 1.1808840278295274 -0.27938635391797045 -0.7919391115544233
Ni 0.2808118491400429 5.2946798563612845 1.5969470274228594 0.2992704944364072 -0.840709596089907 -0.244962625022462
Ni 6.3314900863694 2.552200152394654 7.03618719660883 0.39953554730675706 -1.748051387487067 0.8865297397478151
Ni 3.8402610743021395 4.927020598247724 0.5545292393382828 0.3857109827188389 -0.9777293399817871 -0.08250952865914177
Ni 5.784263162133127 6.296728878524251 4.816179477517675 0.5374994002794615 -1.3820867341572198 -0.32094052321067307
Ni 5.371851014087271 3.009219326400728 9.629502756132155 0.10659845128754546 -0.3862804820690638 -0.0717998555511215
P 0.4468223707081984 5.804328574791708 12.595179863568811 -0.2811107928082449 -0.7576915032254629 -0.024393341242699925
P 4.415402716194286 6.611202485819926 12.596860945846979 -0.43102230506112865 -0.33551482148042217 0.4115989062291944
P 2.832660104702066 8.902196730221084 1.3818587491503833 -0.9422661140781706 -0.48121923763049373 -0.9491682405146429
P 6.244436644535325 8.189842673097534 5.867240617597528 -0.9564627172935269 0.6234151264066747 0.8438689676544952
P 4.526222868978349 1.5664058466198085 12.34185061006737 1.9364829101920198 -0.3308906924448495 0.4248948520071521
P 3.956897552972697 6.489761612569145 8.299347315183445 0.48787608082537914 -0.03561646365202898 -0.08585016299660053
P 4.879933884762228 1.042963866330033 3.74747791331499 0.17058035345614492 1.5434705087157612 -0.11204559044504574
P 0.19755360552939738 5.754898921254757 3.848764032224293 0.12326074243457481 0.5842891069394905 -0.40466104145878046
Ni 1.1368729148516374 7.519187478990957 2.565109113923301 -0.2773605817371933 0.10170821307477967 -0.3291307723309493
Ni 2.045195218458092 6.933607446597186 4.736201349979068 -0.9342324451404168 -0.3778223239993816 0.32834427187391196
Ni 6.741650459346346 6.060274263292247 9.184303122113292 -1.784811734935552 0.725188388391435 1.9880322430242214
Ni 8.879405484584348 2.7478857874316645 9.867354018896776 0.1285047644423335 -0.05479303658047983 1.7944729121743999
Ni 2.3921691420317526 5.913817718830585 6.895112121066915 -0.9676614142228238 -0.7583435349871649 0.6766001950700864
Ni 0.8608563437935637 0.47167394495049475 9.130237729213828 -0.567994483544525 -0.5866043853362285 0.609503401421589
Ni 1.638471765323166 1.3132680395817151 11.500873702367993 -0.023524051263869163 1.3532680101533145 -1.3067269291689818
Ni 4.563573162327831 7.094741553248905 1.5865660708602392 0.050710381870673955 0.6329629179961098 -0.181725571439687
Ni 5.599216480559344 8.239655219561183 8.324165158382199 -0.4469813994935463 -0.09517709682448124 -0.277671942330025
Ni 7.05169344849024 1.0501932494460053 4.894368948098712 -1.9569152099044425 -0.6758692304413327 0.4602508629089428
Ni 0.8051891821507502 8.096380332990408 7.078403876726668 -0.8807483571793476 -0.8622505554854762 0.5039012526090418
Ni 5.367438628931999 4.6334055389587885 7.674084989186641 -0.7795638778185219 1.635702921089622 0.23531893128511083
Ni 1.1381583411055494 7.623325238554328 11.693798861733482 -0.06446835488671478 0.3626666993048657 -0.7094270117921201
Ni 4.656771123985569 0.5382891093473705 10.222595694737619 1.0880291513803195 -0.208522379917557 0.6629481515042905
Ni 8.007193630564736 7.779964911566484 4.7965653315227 1.0091831876156943 -0.9519344904058703 -0.2471616895563098
Ni 7.205297327583581 6.533210843251018 6.982842007071487 0.25447082162321333 -0.4768722735157077 -0.9907730605396227
Ni 2.6882912383407285 5.224227557849009 2.8692874597399505 -0.362889099728317 0.9092549492594728 0.05934337495532361
Ni 3.6751521744113735 4.597231273884161 9.478394062611123 -0.7778224696473831 1.4052089219969799 -0.5182937738852881
Ni 0.9304024623793238 3.5052662294351475 3.554286552200464 -0.21752278364395441 0.5153524318687769 0.26662596892850854
Ni 1.3699453092311489 1.138532117533992 2.454896119923001 0.08273861395081235 0.9481562543103605 -0.10923794579292155
Ni 1.345704540371917 4.017941625286129 8.192684285603523 -0.10703888125907372 0.3748791822106576 -0.269640073164484
Ni 5.2978797472486825 2.935922680432987 4.854099552008076 0.5878436570599682 -0.38229527216907067 -0.719462027430619
Ni 4.125571003681049 7.337213057329007 6.2319689215222045 0.3985929808878297 0.8842412008239545 -0.45652661997982025
Ni 8.659251168231737 7.446045813493545 0.32310419619339464 -0.15960379983998318 -0.006610306227666035 0.6646437940391586
P 0.0864663393464724 6.139277837167428 7.9146046509904115 0.872869211541587 -0.6934458058725155 0.7574745021186503
P 8.60641194434753 1.8059509547601527 7.9965036247112815 0.04059694758575589 1.115826376098246 -1.8120939676902728
P 1.8493637194490065 3.554349456038421 10.314474499097903 -0.5661579445564185 0.7289823082162283 0.6949550434281903
P 3.907167054993341 6.832441665464844 3.7201521214463695 1.5215135448286958 -1.0136520220203251 0.21544044719362895
P 7.053088272723207 4.171709601348057 10.340359884242282 0.5024966589520313 0.37655734124402895 -0.10606211916810121
P 6.6539862121292055 8.106271733596753 10.332167798910614 -1.350615660132132 0.2013045220128791 -0.6914776264025511
P 2.1741663192672505 8.885732334373104 5.735799857411172 2.227779642394331 1.2966906279789023 -0.0763638207727201
P 6.877066924421572 4.110893441490991 1.3681429775261957 0.7853200635760088 -0.4677227458059558 0.5909418363693179
Ni 2.8723533381030046 2.001554541312871 0.3108014817986849 -0.5613890624128653 -0.8182119292080231 0.7026020184504868
Ni 1.538992536367943 1.8425628117510044 7.222467340396473 -0.21491337104556532 -1.001167002179437 -1.3128901205569001
Ni 7.068057562857415 1.1747610815981466 9.300546679709072 -1.010952877921607 -1.0185528017560523 0.6474788522240977
Ni 2.8410108171033657 1.937110015150438 9.369555836547631 -0.4405335869856736 -0.12830010463069516 -0.3226207391265734
Ni 6.55531835151865 2.251838884397245 2.614624462543847 -0.6262471965388311 -1.000849470939018 0.235561129202904
Ni 4.295630162124114 7.052058108420428 10.422485858769694 0.22302288752657717 0.4577967449414954 0.07803889448229785
Ni 7.502495170686611 6.443148956992894 11.546759773033346 0.5585392516688961 -0.20058332757613842 -0.21588704781274434
Ni 7.787002848219108 4.330054059533839 8.21313897273758 1.0900502955754066 -1.3891855499855301 -1.1411216603299252
Ni 3.271938573104505 8.874199964080917 12.423869921565203 0.16786629695909155 -1.135383215184251 0.6501556277253125
Ni 0.39649474209315927 5.162563563654257 10.067297058618731 -1.1133097803239793 0.7613224151098308 1.1520555336336096
Ni 8.545349639037589 2.7438471787048355 5.76139169131175 0.331867454535822 0.3610458758719911 0.684547217831305
Ni 3.654685635829585 3.230686418502014 11.417239859029253 -0.5044676666354732 -0.4313683755466377 0.950098722748712
Ni 1.2441923323058972 3.698982700849144 12.696759533721918 -0.5947511828130789 -0.49177850120357885 0.4054503701292953
Ni 3.0388935282197576 8.811679019050224 7.917513725583484 0.6040164101650888 0.24909258803043552 0.22851553521003223
Ni 5.952289341465395 8.301547126212302 3.401390113371686 -0.5542925605774002 0.05034734210430038 0.07069968050840726
Ni 3.067464633749969 8.924905927373526 3.5407695202382286 0.7434450206087776 -0.3508267692471442 0.7767482627465977
Ni 3.6947617621572206 3.064328558350354 7.147533371342188 -0.3059206527630731 0.8629360115882752 -0.6086971034702097
Ni 5.383456316365497 4.728290052793645 11.714933639637339 0.3758970819522107 0.7611637780447794 0.01778097813250486
Ni 8.384425211845727 9.030803171100054 2.3582402704772574 -0.7115157760003488 0.07217523661266924 0.131742811763657
Ni 5.161980107765956 0.5831021681681453 1.5245884691255263 -1.4727800841787344 -0.5640352417864609 -0.5585153404094961
Ni 6.578146063148405 5.956172969721895 0.40015775109189533 -0.9345134667159454 0.4925855704859065 -0.3695400293859313
Ni 8.095924508077674 8.93771460742137 11.641601439326406 0.8728933799113031 1.0873462663806823 0.1639073123113435
Ni 0.10273108388267228 5.077953343352441 6.040458642685844 -0.37130483459583796 0.33921412470888035 -0.9890028560130775
Ni 7.553948686836105 6.6540317946204794 2.72603809936429 0.11328871882352747 -1.1729375192889413 -0.39229583502520826
P 8.538794876792464 1.794883525878954 3.5898317788955163 0.9219430862501026 0.8801847713663937 -0.8280669676252319
P 2.180119392627566 3.5998043163363262 1.628916763502421 -1.3194567180308245 -0.5635351622215908 -0.8413485152254866
P 4.570264672046776 1.4889794269426908 8.229724618012344 1.8371367695915135 -1.3518500467598655 -0.8826142067434929
P 8.881885172109625 1.9260061202762204 12.40017249600195 -1.2345833171251963 0.21109862528516546 0.5301141635589838
P 6.674206605258118 8.020804562458995 1.0995071234551226 -0.009318706297764595 1.3130449009672098 0.630875696449778
P 1.855991413680169 3.7747863838369264 6.00754170243762 0.558415067386206 -0.6982234297668168 -0.7720747685303283
P 6.61391008580157 4.385382087441578 5.967032542442886 1.2298632859417078 0.9909345258181514 -1.2279881804061819
P 2.652609264171856 8.841781696287224 10.264319172299878 -1.266971760758231 -0.2808626813531809 -0.1876905307738703
