# total energy = -340897.0514087734 ev
CRYSTAL
PRIMVEC
9.01770959690510 0.00000000000000 0.00000000000000

0.00000000000000 9.01770959690510 0.00000000000000

0.00000000000000 0.00000000000000 13.19832951913381

PRIMCOORD
 96 1
Ni 6.425433522246844 1.8239940321216848 11.417742918259759 0.6998236843744011 -0.0022556288033961157 0.12278457412910468
Ni 4.6457885846431966 0.5197537130411016 5.970158234505228 -0.9664455395378517 -0.9519440034875669 -0.0015154082032619064
Ni 2.859984551562563 1.7428346480911154 4.645851708608554 -0.8714615325607831 -0.23127227201956296 0.7664070287215897
Ni 3.4472177835704145 4.379820265465685 5.093894793462112 0.0218111823378205 0.32100248679686005 -0.7277466360369145
Ni 5.1156112410868255 4.510820529000361 2.563128774364884 -0.16255285516597812 -0.07220840384344983 0.4888397302902291
Ni 7.324715568142897 6.215095451967619 2.4706215049049742 0.027801595593300508 -1.226368642524888 1.0273444319057532
Ni 4.991121763693268 4.511505874909952 11.430914184516988 0.16617451107896541 0.2256464411923533 -0.06271537675135005
Ni 5.743487289075318 7.729700894455436 12.376508480253685 -0.23748200037470066 0.5159743817234921 0.3158312270085658
Ni 1.9187521218320425 6.456905327832032 0.2623314770020087 0.2592921542712566 0.47359180299222303 1.589418436200785
Ni 2.657573047790324 1.5835368126577818 0.4900169147323011 0.10851392314270344 -0.03297876891886579 -0.5544820508803869
Ni 0.42491716925951417 0.155381444268392 4.9350397275572115 -0.2449754805382684 -0.17395826878944234 -0.5804877309155293
Ni 8.650923027167755 2.347823749782988 1.1756315520620084 0.4736342261943843 0.40737792616931134 1.2136856477405809
Ni 6.785555744609153 0.8676875994638863 4.817746382214366 0.13977982313552054 -1.1282779715980378 -0.48977921138536296
Ni 0.8370661638691524 7.3270241017331 2.414515120953708 0.11113464859500216 0.20257336142297372 0.13899075157532192
Ni 7.411664321567646 4.049663891229329 3.750503187525182 1.087105868235102 -0.6685079049802551 -0.09825470730854045
Ni 7.5013183877934155 3.7248910894670018 12.58493659969539 0.6778327819256068 0.15033214473007012 -0.116666891267141
Ni 7.801734356637235 8.578177165948354 7.174796150419762 0.25845011798593553 0.33670549935441363 -0.8991885661624064
Ni 7.056763352911305 0.6382581367478704 0.2994691093634635 -1.2351389325183502 -0.37129146485939923 0.4221702539871374
Ni 1.9539752945013096 6.380155603667123 9.222530372436921 0.09752142868694172 0.14666189496733453 0.1426514882563608
Ni 0.056060393633648814 4.9320828206656975 1.269946872243933 0.1498328364961484 -0.7088585408831599 0.3231946093521724
Ni 6.310268356307467 1.926579493536324 6.957089709841495 1.0608682746948117 0.5934558610404231 0.6233791309624168
Ni 3.5156712151455314 4.2303878040467335 0.2773712126338068 -0.8218937489349845 -0.15779759986917982 0.6548517476494012
Ni 5.859427978017655 5.579094447866732 4.76602260500075 0.0007456199167729094 0.33993686180751775 0.18278075217707876
Ni 5.30785978643657 2.7487060183473164 9.567112376299242 -0.8613085032871811 -0.054468049140893295 -1.5476490655734831
P 0.19602516201996736 5.678722100618924 12.297239208100093 -0.7176090333822802 -2.1231974502058657 0.2795655598083121
P 3.9202417268285816 6.204598838299665 12.672125224188497 0.49818106229581294 -0.18567195768194475 -0.7690195266437724
P 2.6704864075605212 8.447384309728424 1.4785688724363781 -1.5228777721660742 0.17330212326268218 0.03244706478511186
P 6.242256792489849 7.841240941241449 5.831272885926516 -0.5437734062136312 -0.032964113630846455 -0.6843525853219956
P 4.8625562816795105 0.8787532305909875 12.532447218959087 0.01935757859100537 0.8447518844800807 0.297582565211023
P 3.978009172839674 6.053570242328112 8.165106561444501 0.4412432114581885 0.6522863009150702 -0.32060807957191884
P 4.748301904383143 1.119575667283028 3.693539219415993 0.6809553867149886 -0.15115489774168162 -0.0899130202120645
P 0.17238613876466358 5.577660632082192 3.6335263637800557 -0.24871746407920386 -0.08875988044422778 -0.3233383340188883
Ni 1.4280895391112316 1.018613393549 2.7181828757843527 0.14868792425842778 0.22421433673151708 -0.1912877612068254
Ni 1.7713215918858451 6.658288812739884 4.67797639634972 0.059400196335188025 -0.16668718904932583 0.27830031994264326
Ni 6.001898767828651 5.7147568671284965 9.145162033411513 -0.38133136559390457 -0.09550902624260325 0.364384710437237
Ni 8.719881450465728 2.169832202894613 10.215400911142357 -0.5466191031925425 0.9987807613354476 -0.31240394649457165
Ni 2.237717518781516 5.391012084230557 6.951916249995013 0.7995395496095004 -0.55146871797536 0.18918022794551936
Ni 0.4350828329948098 9.006906120944503 8.967816154511647 1.2305058046217132 0.13378838143877606 0.955877019993386
Ni 1.5107909514383815 1.0709070899926967 11.3356357729779 0.7958885831204745 -0.7585631071971387 0.22520678255177345
Ni 4.204038057364809 6.747510028917489 1.6636095627132748 -0.3308590678759657 0.8356049278734899 -0.10397849716619512
Ni 5.447724458249251 7.8935526731038195 7.903964520304007 -0.3330015681402652 0.03833386258319205 0.6871388898178812
Ni 5.198898804520862 2.8737906645570965 4.975809693239501 0.15031003324288306 0.16304727830389337 -0.502430067380154
Ni 0.9130430703439031 7.444759314833446 6.847610209638925 -0.9070162897369412 -0.04343004615917682 0.443595513740449
Ni 5.078034446280672 4.21470600751016 7.372784467762336 0.1692858030144375 0.8433406059548508 -0.4828786276107878
Ni 8.315464239841402 7.036031639146162 9.247950393286228 -0.4051960880266441 -0.7184526123294982 0.01228550223557239
Ni 4.591042071259909 0.2657744384267722 10.436657623886495 0.1186777510495827 -0.024857939583944284 -1.1720126934818267
Ni 8.021099153962528 7.158095352728139 4.805234310509652 0.4688861699864376 0.2713328874858747 -0.2744331236777532
Ni 7.037925358106876 6.073192777844837 6.887336826350956 0.5248336318863348 -0.2398242753546321 0.8875728363003488
Ni 2.2392775824967703 5.243933244948491 2.707373347602415 0.4642317019335618 -0.5671516759282554 -0.9174323428639426
Ni 2.2920401998259767 5.259777360253126 11.373198139449114 0.47289503403551464 -0.47637990726032153 0.15212497496443478
Ni 0.8989907738844767 3.361567580290154 3.6213840181581487 -0.10655782785759713 -0.014522876206523375 0.4820381339873633
Ni 3.677800611310598 2.6730384193028156 2.480375059323581 -0.1356992253082437 0.054023505404306955 0.12519472623249406
Ni 0.9593039192413274 3.3973047623916144 8.134513080748711 0.48209444114659555 -0.5394187287893613 -0.2782190730827467
Ni 3.362298014746429 2.746027758674307 7.045730185537815 0.4749148926790209 -0.6790401719701467 0.4976974377911751
Ni 3.993528650608186 7.0296200478077475 5.668788192013582 0.8128581210952776 0.10413559156934969 1.3829714507550184
Ni 0.913241459949311 7.396649835521991 11.431152252043477 -0.15573120425845438 1.4351777004449282 -0.4445344806149505
P 0.3128495864773033 5.517142784723397 8.084953553775911 -1.1241343817433094 0.22098451694030977 -1.193801507222144
P 8.46801682869086 1.635848544520152 7.94868063559205 -0.5614605390807491 0.649504624404875 -0.14903116653045947
P 1.8286832409767841 3.1628262842179637 10.476767493245335 0.1290074151103649 -0.31628219850305533 -0.6879580432850668
P 3.9977489385777756 6.010095865615738 3.7556766473716645 -0.624057387976364 0.742067937755593 -0.36124642191857137
P 6.907412050876383 3.819008921814452 10.461629464581769 0.5514226952287729 1.0245342161504678 -0.6233482777244813
P 6.458564586349989 7.750468679057926 10.157288988634601 -1.7021307136955521 -0.7882104977499264 -0.3783817960472774
P 2.404950938431172 8.603985850070075 5.673249252822463 -0.30138574100719706 0.6677507150992564 0.8511613875508502
P 6.900342166756388 4.022809152824548 1.4926779804646257 1.161855807553483 -0.4614405123416698 0.6037911815281601
Ni 5.356871036681697 2.770979760409039 0.5379676823594287 -0.22241610718051372 -0.44323298819470763 -0.8816780680824686
Ni 1.3472908634541316 1.1409296029924043 7.035342686152837 0.9092978866822662 0.09048431933450224 -0.8426147835324198
Ni 6.92642138215821 0.6821626581956073 9.120006231445771 -1.262063524823336 0.022342629361258297 0.4434605308244814
Ni 2.763594256462257 1.5504508371013197 9.129680430022214 0.03616308018411837 0.017855025903549895 0.36436825537700473
Ni 6.45632819443448 1.9544171622588093 2.5520685538633847 0.12898890316760364 0.3977506874921924 -0.10924720176430217
Ni 4.206301502408328 6.877410131913083 10.597769822438378 -0.15422916579163115 -0.5246222872064771 -1.1711346617522476
Ni 8.113963524712172 7.0844477205750644 0.4005035247721853 0.7055536448796429 0.6344973523627653 -1.4670884331105958
Ni 7.4011496724810195 3.819333559350574 8.174925945141267 1.107056857435732 -0.07540505640387658 0.4875302674501861
Ni 3.2411901783541466 8.436923766897817 12.397600000621361 -0.6621410822219629 -0.3233506753140625 0.3319497298369831
Ni 0.20015437112525597 4.669225611209358 10.09350131987031 -1.054712796616377 0.15613615300635691 1.1677750012513954
Ni 8.49308606064697 2.380053042952461 5.82633659183559 0.6552422982196006 1.066527786973434 -0.41038431709580286
Ni 3.732511053856539 2.5161573299717253 11.47928607917014 -0.5270568647898988 -0.23763112435805525 0.18407941638384426
Ni 0.9908298310825352 3.4483089264001587 12.517480526772916 0.18995464421769867 -0.20640584779518645 0.16459611084825201
Ni 2.9668534249121494 8.284686797875143 7.947387496073163 0.6209059868315758 0.19118543130100624 -0.31765311070865293
Ni 5.660371062118679 7.715173364713966 3.496079339840552 -0.1051977142852769 0.8642277338165052 0.7503651447673786
Ni 3.272418505787242 8.455130522048673 3.698382631100751 0.11339516249440472 -0.24124969494724902 -1.074419016796053
Ni 3.3790889895314202 4.306614501070111 9.367051789351088 0.4001045324363497 -0.5596970194224232 -0.395224578636229
Ni 7.110373634918164 5.928738091979761 11.341271841313358 1.0865929331544255 -0.06774394031419301 0.3234949142014106
Ni 0.7036302170426264 9.009052335766645 0.5869347458288058 0.003365316927807107 -0.388732286043666 -1.0328417075748988
Ni 4.691995327284601 0.38633940871698363 1.4528061786322746 0.08173922615202052 -0.6062018478521819 0.6761790483722677
Ni 5.8874279655082 5.532040040547675 0.37802958956318705 0.14091213696775087 0.4991218289425275 -0.42085359205824296
Ni 7.968228324121279 8.81846304893486 11.205737473524174 0.5713513158318998 -0.5129751898858521 0.07197366212482444
Ni 0.05663842880213319 5.028004194880494 5.8863891253926095 -0.3205792832165124 -0.9338076988981724 -0.4878501126834502
Ni 8.015544245011101 8.891822114389157 2.461937450813703 0.11065359519352556 -0.470192547502687 0.5852920942827081
P 8.44350669471363 1.6894317733990012 3.5299327224615693 0.017200165928370377 0.1677904494158336 0.7262235145241686
P 1.7845595891921646 3.315730563731556 1.550183011134019 -0.14458830026775746 -0.09653001130794989 -0.4806384254263593
P 4.777284822191392 1.0836491132854962 8.1628891067186 -0.9927697792546771 -0.33820008162206916 0.5928537086800499
P 8.68223251398488 1.4108296434407306 12.394273367647042 0.19148033683360569 1.2918407560857688 0.041925950809824565
P 6.403863161513385 7.815098601874269 1.4204037454435368 -1.1872755331781681 0.153475061234426 -0.3547181338817504
P 1.7415541333652997 3.287108354296775 5.847638224830813 -1.6718891412021915 0.1512651980673008 -0.07583365930086294
P 6.834810473006372 4.015504808261797 5.940712708208004 0.2302564291605389 -0.20157191674165287 0.608437679161236
P 2.3147558096451992 8.318972128773389 10.086466604816726 1.0587663978604605 1.5360047964663355 0.5803234374235231
