# total energy = -340872.9359534397 ev
CRYSTAL
PRIMVEC
9.21385525238681 0.00000000000000 0.00000000000000
0.00000000000000 9.21385525238681 0.00000000000000
0.00000000000000 0.00000000000000 13.48540851263019
PRIMCOORD
 96 1
Ni 0.5725406708472055 7.972923984364642 8.204738131979367 1.441709588026175 0.6391950149487508 0.38623857308753484
Ni 3.563209731908634 7.146745228430676 0.26102483281594024 -0.18513254023870698 0.3164603759521324 0.5574771289529689
Ni 2.2826957751192367 6.19722059267818 6.430895017661647 0.4607141756986065 0.15783488086501848 -0.10605054920387542
Ni 5.753112771115987 2.113170052942415 1.584022954635237 -0.39514641710012594 -0.8738760555395465 -0.07627228950017832
Ni 7.69101687008006 0.853682113763078 0.4986713507843752 -0.5860875936008101 -0.8946824507619365 1.7269344030027938
Ni 7.602490149134634 6.085603950553606 13.44727156582577 0.2450870664154682 0.49118123393921215 0.25286953857436445
Ni 4.401117725536557 7.090245868226954 10.941210748327755 -0.3224088802260835 -0.12132881551918459 -0.048161390196575116
Ni 0.6337492324534255 4.981655101328448 3.2342456162488977 0.10758189824673732 0.07803863737198173 -0.05315524386674071
Ni 6.910419055915142 8.295528697152134 12.140279753293152 -0.330855725441856 0.1962600176104362 0.2719036723876801
Ni 3.6177188993850233 6.757220285186624 8.662324902341629 -0.11865949621713758 1.465312829267412 -0.557381226805053
Ni 4.5224918403381915 3.0322705387613347 11.753436963303388 0.7641627127721033 -1.701401548839012 -0.38016845563405494
Ni 3.459194520339846 5.543691055840321 2.371058489441763 -0.39709711306859347 -0.526381435989429 0.8364402792905917
Ni 1.3152778325311851 0.7229089452524065 3.645348487030636 1.9587908296606007 0.886071569164474 1.0763578856899785
Ni 4.331580760197763 9.172079599569098 12.512436579449139 -0.48077006590821714 0.08374057285276547 -0.693279198387664
Ni 4.70819709227981 2.678228151966163 9.196792080652335 3.1908444383854078 1.9782101147274767 -0.902753143585213
Ni 2.5127288845201026 3.6517640944197187 3.924186466141726 1.0284502633754224 0.35115792733431783 0.6187601441331666
Ni 5.347224021002756 8.92372013213738 7.777466788059095 0.4870371298638516 -0.6685230744889067 1.5226224616221584
Ni 4.734686926034817 0.3926677892592979 3.368062121138449 -0.8262728518392867 0.05297295265260554 0.19965618777617872
Ni 0.10614545489545191 2.8217063054384965 4.146183251020464 2.014308146001615 -1.831873464310045 0.7642092497393227
Ni 8.351152741110038 5.52935429711935 6.208628266824989 -1.7358520172073977 0.700317079071052 -1.2004210694211908
Ni 1.949725475210221 8.426853775590432 2.012858811171718 0.8752369404428152 -0.6251143684859686 -0.18183047244866749
Ni 7.688003939423404 5.8911731777194705 3.7390451021395186 0.1359113413190498 0.26862268764356323 -0.5234007560945503
Ni 7.39815448193993 4.115819912531334 8.047160937250716 0.37727005104033734 0.36321665827106475 2.1182755874242165
Ni 2.449070358811115 3.468085890626309 10.489287734768693 -0.5151716833165386 0.024731698418725148 1.7622886141323713
P 7.501248307986804 7.791586099796893 1.6979209473120669 0.9593899182426511 -0.7894281722071114 -0.6402239704338974
P 5.702851190895618 1.8188979449537568 7.451011605175527 1.0479006587905502 -0.24249410887731143 -1.1250003292880302
P 3.6583059316253026 2.288767705708645 2.693575670604672 2.464908116084355 0.5241160369940199 1.6238498784057778
P 4.260265520801677 4.604955844549429 7.334700503816806 0.21359028135876762 0.6478282651437165 0.5477488459216114
P 6.511781609859368 4.212841807988801 0.8559809706402516 -0.3314301098880873 0.6322908316297499 0.5076560916657837
P 8.986917965085409 7.515879910074787 11.508649707540126 -1.1023658797179658 0.2879524983204267 0.14988528700063863
P 2.493499568677773 5.656579209985134 10.875590592842613 3.052107454692105 -0.6348742760862098 -0.3013065510298295
P 0.3013594054232153 5.095022375944656 7.954138776343876 0.597330513504481 -0.5095926465668643 0.585723782503488
Ni 1.7035957607415309 2.5185704687290325 1.926040338983919 -1.8638402470246287 1.1577700675198836 -0.4722422309428641
Ni 5.748459774230325 6.296997430846168 7.169895039668747 1.1424514348849422 -0.2924290460345415 0.6999746081299687
Ni 8.593523202649322 0.432896402531553 4.770490124645322 -0.4578088291263535 0.3822451356574255 1.1850659271213588
Ni 5.404386778782254 4.002719839716481 2.8424946055839038 0.0930345965601817 0.7412148457266784 1.1090114100589417
Ni 8.362835909527899 0.9197132071909921 11.70219226473114 -0.9807231325027885 0.2048989242323568 -0.048819078385232056
Ni 1.343398518659978 0.9501051086313012 6.694884869087104 -2.470145196113578 -2.097257847521969 0.4495707574872774
Ni 0.3260046253633513 7.799768003231483 5.975209065631091 -0.007003685011342777 -0.4158751650070451 -1.4667112522768353
Ni 4.709643667549215 2.4704372890642836 4.736398860334531 -0.8523903748619449 0.05430786941394518 -0.2555224028161793
Ni 8.537945227967514 4.741155052398648 11.47945376450726 0.7753755507687873 -1.1201643413519677 -0.4969104231135055
Ni 5.5878714916160614 6.728122930404603 4.008335684472542 -1.8512112454067084 0.043420018856847806 0.6165068293226157
Ni 2.4319602296691856 0.1957501969015169 8.823665035541774 0.6126694578543964 -1.255579202650573 0.6537839685065192
Ni 2.1996973673052898 8.27604139336367 11.412687405432859 1.3105414178190655 -1.8623718900092183 -0.4151562845631495
Ni 4.369551057555809 7.740919109946883 5.984042388629674 0.6870136770939266 0.1954516627765279 -0.7929572684062924
Ni 5.152608971064236 4.976596694813144 9.495642553299382 -0.3128909134333192 1.333126502208433 -0.33531633231637087
Ni 2.5642066936293966 2.697945802135107 12.914193836882111 -0.2929885180824373 1.4449838879020727 0.14604637287052266
Ni 1.2512415387582134 0.8788645014624894 10.878045163872992 0.055221125256833925 2.946511476527145 -1.9286557008381173
Ni 2.727393283415455 8.057055696370542 4.317879757486914 -0.6457508137893976 -0.5504641879702455 0.19635411998613927
Ni 5.853746497819353 6.245943459076953 1.7694204638125361 -0.04653568166769405 -0.4314177407273344 -1.3359482879279445
Ni 0.04964425192068671 7.889289820540576 3.2947014058837145 -0.32388829298508737 -0.6256522432673096 0.05902841481806608
Ni 4.48330531409122 5.266823920360603 5.2660517992932405 -1.6211890437441625 -0.9988630366366088 -0.06951594461295124
Ni 2.6693828509557957 2.395316727462695 8.456241366811856 -2.55799696292124 0.22838132362501315 -1.3386340622902237
Ni 7.818094361262338 0.05355276930464277 7.1975531902655385 0.5810505453975349 1.2210734555642198 1.1116113095756337
Ni 5.631655731617379 0.5472357388733795 10.432096414038014 -0.5391119961822199 -1.103159836374171 0.4433044648625914
Ni 6.935600522229032 1.7996686291114268 3.8546283089359274 -0.06989312544671189 1.1844064391604894 -1.0745946231419685
P 2.5967592441185925 8.313366720856374 6.869103207727029 -0.7064555878686221 0.21680878829606534 0.7496107830998574
P 4.010929384716729 7.571163041389583 2.524427716491835 0.4841520950065727 1.6279333044465316 0.08160707144953043
P 7.609151766458067 3.8668799722208087 4.384780638847513 -1.8089070853218587 1.044419385110169 1.1065678336144555
P 8.928879891060093 1.0059134296935874 2.3757916468678313 -0.9747401754464762 0.9418017728472424 -0.06310746998344616
P 5.791506905814113 1.4441059562050982 13.039216638350522 -0.6862014656052763 -0.9375010885893597 -0.9507810935277173
P 1.9328088370278935 4.6683655961675 1.0476383730534298 2.8008158021278216 -0.22348928564003445 0.22711325554586695
P 6.626484893482351 3.6619269767264218 10.283379262488083 1.1318145239963862 -0.2934024656914043 0.1672309773679378
P 1.8971512173298504 8.85358426620934 13.439274860881087 3.1572792008354527 0.0816266118335562 -1.020329691150817
Ni 0.1998614191002939 4.309808420314953 0.21301419742560576 -2.0959270445256872 -1.180669083605244 -0.7785403216500141
Ni 0.7518376864839171 6.440917849369019 1.3860844671191759 0.006012010522034807 -0.691469655982751 1.087811636052875
Ni 8.345440150874175 2.4266346213525267 6.551629690911073 0.11098141084658951 0.09244787081877628 -0.19034133813315607
Ni 7.153360776478013 1.7150577966341318 9.206501641282257 0.5955297128503162 1.906623917849058 -1.216597679181053
Ni 0.09130285552295113 3.1326278498081277 9.292862184865667 0.4451926830242397 0.6475516144435622 0.6252969168104199
Ni 8.090179505883324 8.87027055801119 9.71068103471663 -0.12224027158986045 -1.995665334089447 0.6829443921205592
Ni 7.016120402989032 6.2703141061315595 10.77629748207363 0.34196880463588203 1.0263429872244323 -0.5504755008241552
Ni 7.959831096098256 6.554644464338773 8.406668982961877 -1.112757250254619 0.32655195586017954 0.26822879463925414
Ni 1.4851076119302382 6.388094817397731 12.604231454840793 -0.9824835668373209 -0.7077241701684005 0.017993608363943207
Ni 0.7704662589659595 1.4248766403627682 -0.022039541684165293 -0.9954416696598857 -0.6570798656489716 1.5921756872309483
Ni 5.485892542050702 8.625320217010549 1.253604892621921 0.3453850294062826 0.6220115611909287 -0.8005299385472278
Ni 7.401996659566308 2.9021156199358673 12.802494270060565 0.16247212252671372 0.6674853772530117 -0.16919761417600537
Ni 2.478987746707639 4.680795086858111 8.525677901128761 -1.3114816702451477 0.8545238762651799 -0.20769679869246807
Ni 5.929668664825006 4.752764509974755 12.131041942050448 0.1447147985432927 -0.1578773040671797 0.6012529884873388
Ni 9.186333433593099 8.221762572267759 0.24196689468068625 -1.971973646899462 -0.13406117548418847 -0.9230592021324168
Ni 3.6925630453300378 1.2219230514509334 6.735974977822348 0.7704377471475377 -0.6618760014860343 -1.2645695790746416
Ni 6.852159849364567 8.440029588553791 3.617231486443931 1.029035703565247 0.8691434259505677 0.24620241096683407
Ni 4.063835341384988 4.697361598542111 0.26098613462401987 0.25380927677981446 -0.6607370027855846 -0.7208401387250682
Ni 0.8167087555397425 6.36283042638687 9.990220188209895 -1.3644692781857726 -0.00702708205011048 -0.931003653790474
Ni 8.118106701052517 3.270927816647309 2.2387125158451853 -0.6237025757401065 0.19709305503469282 -1.5657624873447422
Ni 6.0471361050137284 3.6832109822826182 6.341513250951885 0.16459482529667135 -0.05517304562771789 -1.1570861540789814
Ni 1.0181494294245959 4.2429526868449265 5.937449765557564 0.35710540316700434 0.06878935085957186 0.21371626541367067
Ni 3.371257486128444 1.057824289998181 1.0979294376104995 0.7444860602787824 -1.3093643667918289 -1.3658826135935314
Ni 6.025898168733628 0.5289978338526284 5.481265343959653 -0.5137136107137733 -0.5763580250178719 1.4318622629184503
P 2.106701926578584 2.4632965512694556 5.655200817244351 1.1532153582696656 0.36522160451623553 -1.0667522442794144
P 3.5935693848556762 1.4826382987315108 10.304753563825427 -2.1835245292306977 -2.4452525466369566 2.2448201428163856
P 0.35606298524472774 2.7608395778609065 11.907467745158195 0.522126774478133 1.5909407863825826 -1.3605815130955923
P 6.035047526966227 7.588171818124102 9.449494959434356 -0.9031074416008383 0.561148407156969 -1.1779995071928808
P 2.344953794834916 5.884594485093009 4.201284869387443 -0.4396272731213203 -0.1966798787566742 1.5788697141506614
P 9.398500877724066 1.103322307070258 8.647733841216612 0.047976013658646406 -0.7215137677533252 -0.18236371924431818
P 5.475794156730532 6.758998559243917 12.765368883226113 0.0924805238289246 0.2946180832660603 0.9863139963270046
P 7.211186931833289 7.678458385416382 6.054692387678939 -0.5239026354316332 -1.500661383970035 -1.6048872212603456
