# total energy = -340888.6151382649 ev
CRYSTAL
PRIMVEC
9.09725954903509 0.00000000000000 0.00000000000000
0.00000000000000 9.09725954903509 0.00000000000000
0.00000000000000 0.00000000000000 13.31475891510478
PRIMCOORD
 96 1
Ni 6.445990571931244 2.2703302723710284 11.354479699829993 0.9294571352389606 0.362929208937633 0.26984936096181267
Ni 4.828388667831914 0.2940834685682487 6.298759614649768 -0.4331475789342475 1.0044649562044186 -0.5770974742870577
Ni 3.2045460437237407 1.5666481537064423 4.866237815932184 -0.12630467146722119 1.9124304972285062 -0.9397094090945881
Ni 3.5541719203706794 4.538604564097744 4.82884989888796 0.22515227516475417 0.8694529867711864 -0.7482784374416791
Ni 3.990685722388531 2.883294519420208 2.770841475435817 -1.5794129882486412 1.0348998756555081 -0.7097831095799582
Ni 5.761167072185505 4.338410271802455 2.5732772008585396 -0.0014300475783072144 1.9711737767059863 -0.29526728681428505
Ni 5.475176525657876 3.066358672099391 0.4373880486546586 1.0009021785538246 -0.29460599908120233 0.09613714674490541
Ni 6.1264038461140355 8.164581153608054 12.207836299674563 -1.5282189818733294 0.33760384279896694 0.3836168191939716
Ni 2.3274519646968534 6.589518034875113 0.014274509862789128 0.19195239137401782 0.5534137575168727 1.5674267624210427
Ni 0.6160782389719593 0.4521519910779079 0.3674528663398339 0.19931448816604383 0.026268703888541856 -0.4574100510260381
Ni 8.261730787681552 0.27082905386474887 6.660388415465316 -0.260954372465028 -0.3824557090063349 0.8026328438228435
Ni 8.984899236169664 2.615352935716985 1.2799507501165879 -0.1420025418184522 -0.44407579581097717 0.7696281067620486
Ni 6.939016549889218 1.0410085004836038 4.8858906256043415 -0.5277695745862071 0.05701266993961794 -1.6554574780087297
Ni 1.0155452711763915 7.661393536801865 1.8820273970104011 -0.390291917221302 0.3853307165612848 -0.14781580606611963
Ni 8.191827445774935 4.172558134074771 3.41924318709497 -0.19989015816385575 0.45751366648343783 0.3675170854186316
Ni 8.14633205107491 4.069913755270457 12.299175514113006 -0.2505223784984266 -0.07302961419316455 -0.5279081570466005
Ni 8.16825644644125 7.625723182348996 8.752829966079945 0.49390403218701395 0.5102850446481986 0.6485147496877799
Ni 7.165756645370804 0.9278385924515492 0.25472235594105497 -0.37371601514049185 -0.11087419584476388 -0.013271006077293273
Ni 2.122681750879047 6.594112150916607 9.369196588177676 0.36097337076284286 0.6828178938450241 -1.8112786708778288
Ni 0.4073307033059521 5.286417488539138 1.1025141621567482 -0.8574546767587297 -0.3667015314958717 1.1684105779528653
Ni 6.551063919018883 2.3399970855309538 6.98371047602834 -0.2089108736052273 0.34473094076205146 -0.2263177562277651
Ni 3.6741647730188145 4.623199980077653 0.7061774969421737 1.2987454536254022 0.11417420675227433 -0.793980310354168
Ni 6.302890680183316 5.947851934140955 4.6148550639492125 -0.5614715948243427 -1.237866101641526 0.6281948071835052
Ni 5.5137943921848915 3.2599483540063137 9.260002182541925 0.1419791447796845 -0.024277127379809804 -0.3518215290602457
P 0.5516378013879514 5.754107598822734 12.378837486272515 -0.26427315242561583 0.827911158773658 -1.9918647293964342
P 4.332851846255222 6.414905236260381 12.439407039944333 -0.7200672651147857 -0.08960268806049729 -0.16463596294725194
P 2.570276014953413 8.906826555242727 1.1549298421493759 1.2251897917254384 0.015068207187032114 0.3329187786184718
P 6.6294459067684155 8.18181136307853 5.828575945540482 -0.9118363368334038 -1.111739607623382 0.4240379033234955
P 5.037325426495273 1.0692191021562245 12.672894572788248 0.0037345273417677626 1.0470403676727837 -0.5971762473148038
P 4.181455253854141 6.3984300993274195 8.180015564055577 -0.1928041978513518 -1.4072699182910666 -0.4378046180902847
P 4.955595647254117 1.2939032169934979 3.6649801798396213 1.5457071113557639 -1.565890271171858 1.0394373585145456
P 0.3446014602316572 6.285096440624579 3.3052690813241665 0.08234369250523883 -2.3626026357452083 0.5637513919974548
Ni 0.48629491566272326 0.17380587169813594 4.4383818757691635 0.9139132739670905 0.5111211673962488 0.43986484305342316
Ni 1.9911717677189682 6.83494390134527 4.559306287788881 0.2917579881094459 0.08816878382744815 0.9142382614066771
Ni 6.3372874183078505 5.740771016413169 9.015316832994099 -0.8942571902990598 0.48781823100425026 0.09092012132034019
Ni 8.89398122484552 2.2639076071724245 10.05377446191724 0.048175274153646065 1.7325651189260096 -0.025073655139176174
Ni 2.622594354269518 5.293358697528564 7.122037945448807 -0.976661303728589 0.4401641194613968 -0.961521619873673
Ni 0.6862717834562462 0.4392784591762873 8.771789564579109 0.7822622505862915 -1.455896935270151 0.3746097305993548
Ni 1.6335221082035187 1.2236450819668454 11.655047694961365 0.22634809524506827 0.775011225450833 -1.420534753720773
Ni 4.456183393135492 7.19168383491191 1.3300739207182124 -0.007421232164735607 0.227745232702911 0.286875463206164
Ni 5.720029264780283 7.873641697918896 7.94959016875536 0.3817460845338199 0.5227512954360094 -0.14685935569012126
Ni 5.567604682057047 3.1696034700299203 4.807320324583405 0.2955426519628587 0.340053332780724 -0.005247621552184511
Ni 0.9064518451209578 7.882111246502323 6.604386595782476 -0.3499464235247199 -1.199608086601592 0.06105110167504969
Ni 5.211856349774611 5.104081116619004 6.690306572743853 0.9141845253506061 -1.694393750062611 1.1055725595807218
Ni 1.500411007373533 7.594064719330382 11.36981858905289 -2.4540565180818317 -0.29959471054504533 -0.6001636120779018
Ni 4.813596523904251 0.6308285355059764 10.337472499053861 0.5000955057097065 0.24158830923359034 0.39518421231659684
Ni 8.107523142098646 7.4306324526265355 4.441377603318598 0.6942503040516818 1.1817756864058615 1.2011769737506086
Ni 7.689376706987283 6.253174157080811 6.896273076184347 -0.8307350013756982 1.170049913328501 -0.9082031109561907
Ni 2.410519041082761 5.745028533853602 2.415164101777389 0.8582563467244186 0.027066774309805 1.051603561563434
Ni 2.6102402758846686 5.150140541407291 11.444261463444072 -0.06697543757928466 1.1833579432913168 0.5856399645404301
Ni 1.4605741080751113 3.4670838552910284 3.7377591654704285 -0.0016755879302100176 0.6093524776660214 0.8304331538645634
Ni 1.738286148468562 1.3461123891957456 2.6002660405819076 -0.20675628915606972 -0.19014721984447897 -0.03371513286425806
Ni 1.4017512282250097 3.387855822409102 8.284828729521857 -1.1712750439848538 0.33894210199441627 -0.9283340773781108
Ni 3.980014637008981 2.976568720951772 6.890348031079742 0.12397396645151552 -0.11930689999314936 0.6912925069749385
Ni 4.380212179150308 6.965726103746301 5.810973658156943 -1.1099830299435918 1.6311091310713521 -0.842213434328943
Ni 8.349419271887419 7.5556651870310825 13.185911778471338 1.4403430466959517 -0.4688838559935925 -0.10475085655584541
P 0.5117072003168022 5.9818301983290345 7.957166366457055 0.1771137836992885 -0.02013070931160404 -0.6975801397558632
P 8.795094014209793 2.0457917136855643 7.77829605040189 -1.038353124311431 -0.261198370155034 0.8096666107411734
P 2.0516594460553934 3.3383576335343106 10.642419914902808 -1.0031372385319304 -1.5490523736789128 -0.2600938242369456
P 4.420740470169826 6.244477177010181 3.4664443179490148 -0.378234986056768 0.12516824386993283 0.03398921246125114
P 7.325704661690706 4.276075849789945 10.243430488821504 -0.6327263765052716 -0.3285054800421246 0.07579200742965012
P 6.394418207893165 8.144476210139338 10.060272634369593 1.508023994982693 -0.44624554976878633 -0.49666796808539626
P 2.6614123605052717 8.803781897020936 5.522070169141223 -0.7667255884032731 -1.7693450067585204 0.9259460367619086
P 7.5440479866647685 4.15208930022653 1.0840130655357845 -2.65830649587628 0.611174875586741 1.3666860833314334
Ni 3.01132934945583 1.9176932028335256 0.5932859650504553 -0.17450822775564137 -0.7047841137034702 0.29326696855480455
Ni 1.4767581327044543 1.425849868609006 6.574747724370221 0.6332843058912707 -0.8166265869987743 0.6676111041975986
Ni 6.961568656160236 0.9480345085151474 8.917906107573293 0.10491206472405804 -0.3891328639161944 0.7370519725982403
Ni 2.7616277710262613 1.804332252352221 9.300758814774595 1.324142553542268 -1.1516773243585843 -0.4101637164445646
Ni 6.676214917796775 2.1657208855172825 2.553491571197855 1.1240353942715997 -0.4438181712742163 -0.05231912111869054
Ni 4.188078058761483 7.0949526747748655 10.235454921428278 1.9350091538599707 0.30705450925720024 1.0298034349692073
Ni 7.4477716895021295 6.4802963374608975 11.147368761145897 0.722227248880582 -1.1535382888267232 -0.24403677077408295
Ni 8.02194522209402 4.102800348319965 8.00041291861162 0.6644563606187008 -0.1659359127055981 1.1125567042080389
Ni 3.1847504070776194 8.624465815250854 12.27619401719415 3.159198529345353 0.8955522549613996 1.5100687933268637
Ni 0.5190432303680118 5.195790589518614 10.00968914243787 -2.0359401224490936 -1.5685773310857178 1.3046875301414498
Ni 8.622946572916339 2.624186374679937 5.641397102394828 0.41498659175450464 1.1428360719178707 -0.3433376599589506
Ni 3.779865831011133 2.8724050998129442 12.014413097616272 0.16833937994076817 -0.0789601207449866 -1.554833242026748
Ni 1.3639976013493647 3.433114688362436 12.9828482105335 0.5116526144196866 0.23094908435218933 -1.9225889258187472
Ni 2.9274708114944574 8.21930116942902 7.761918254145449 0.9877692407162924 0.7865485366664712 0.14040845785845496
Ni 5.893504905959001 8.20987640859934 3.570432361979722 -0.46581267326743653 0.09043315438159265 -0.5333532393215717
Ni 3.312858015189146 8.505873940563886 3.3760503087713856 0.6179754434483422 -0.04228384836987557 -0.5177569275452115
Ni 3.280380798816603 4.3122920398121 9.219405662076246 1.9834091424299132 0.961201517530093 -0.015510436930773286
Ni 5.0234703002948855 4.743211027244765 11.218749497993382 1.2950952584673245 0.07963477821450801 -0.33743646398316723
Ni 8.328823076406342 0.045911139458631 2.3455145734104907 -1.2078487293438294 0.3274942651687908 0.42787707456392765
Ni 4.869344530047372 0.6963724706658918 1.5560161865426914 0.04498170691701285 -1.08793016390861 -0.28119975297762534
Ni 6.07182938644488 5.716308485649647 0.10687733364413071 1.2605285762360485 -0.23742800720831367 0.6081054926327979
Ni 8.603069060934825 8.910556431632852 11.03318177950307 -0.9175691255521229 0.1323997286213655 -0.376939407173796
Ni 0.41616778117269954 5.195863367594519 5.662567334949602 0.35662306421394707 -0.6155820035155012 -0.2528780232147967
Ni 7.337804016809888 6.315890663991822 2.525370122668218 0.5858785629137974 -0.3356318066742606 -2.0132308537770363
P 8.783604175476313 2.0771499671410703 3.532338497599222 -0.2922125591483613 -1.8594071509539396 -0.7132425288834684
P 2.0654054051419237 3.6984726503710372 1.672919609868665 -0.2445178241755595 -1.0021548200140031 0.5040588612328287
P 4.84632846354246 1.4494663542401325 8.173743913364476 0.2618935964498457 -0.30537017957624185 0.4079901058320135
P 8.625020748079628 1.742834778212616 12.096498579703411 -0.27743951460424476 -0.2320842263978971 1.7684011547880125
P 6.69556478872798 7.790783858501214 1.089830762978429 -0.9873768903738802 1.1171132132304697 1.1178547193821846
P 2.0854921540916647 3.3846171980313358 5.943348790694341 -0.7778314685084475 0.7209059589659971 -0.290278575350442
P 7.26060467279381 4.345706273911918 5.981083313325061 -1.0127472508178685 -0.03825518682645669 -1.5570780721968667
P 2.872659823078611 8.843145738825976 10.06565184390491 -2.540230640076754 -0.049150750693037926 -0.6383378091547781
