# total energy = -381166.71093331784 ev
CRYSTAL
PRIMVEC
9.30309153930505 0.00000000000000 0.00000000000000

0.00000000000000 9.30309153930505 0.00000000000000

0.00000000000000 0.00000000000000 13.61601483867346

PRIMCOORD
 96 1
Ni 0.595178298570679 3.683484627029214 12.255025601934241 -1.1513795906125073 0.36805110354523063 -0.847669829457824
Ni 6.932849795562761 6.743187670576665 12.014022506272678 -1.5072716901977008 0.23568197105148442 -0.1157387230259168
Ni 8.521855024194979 1.6920276631294973 2.5869748253075957 -0.3802759277461967 0.5612461090770979 1.406796578199074
Ni 2.549754086804781 6.2903783013978645 13.813719498068803 2.090792294402283 -1.7130717860880884 -1.9991401800119248
Ni 4.879731941664131 3.6268474064025717 13.466729072671178 0.5788651077104418 -0.4542920742223467 -0.13018678013044677
Ni 1.935675627684647 1.5824279429911152 0.5508974439815381 -0.537586560676629 -0.521005002168864 1.6180576972040326
Ni 1.9352942009360115 8.955462812661988 6.174916703349356 -1.7145082614242988 1.5744075646142497 -1.0753392146174772
Ni 8.597777553356284 8.074981027348603 11.36361268419045 0.6749073807486958 1.4156748545253102 -0.8701811231864626
Ni 9.072198003927282 1.2287895284575183 4.886405979456107 -0.4269152248712905 0.6201853066154673 0.6474194597410721
Ni 9.115280620340222 3.1562040109522083 0.98814925336173 -0.15949941305163495 0.38029701079211925 -1.1573170391428649
Ni 1.9175439024873202 4.498509861040193 7.806156106456087 0.33445604119860467 1.0470871617503192 -0.21613773037096967
Ni 0.2135292060500983 5.516221548039454 4.910220963208102 0.328482340113673 2.263147994591296 0.8643886848744017
Ni 0.4385179601238329 5.4884797293948 0.6569238467016062 0.862521806868992 -2.750431436137999 -0.8682638515590918
Ni 0.5957904419867817 6.394144983209554 7.9381232493199345 -0.6064759274491748 -0.5283046211540708 -0.7902858922217164
Ni 4.254982836673635 2.3566219087152467 1.7066725896588106 -0.5370862240014428 -1.0935845339809103 -0.5516749204488951
Ni 4.9419510171488525 5.956248469593254 3.604840013315452 0.9115447737349138 -0.5559226399816555 -0.11335968127077894
Ni 4.4380304636529075 3.445716216257907 3.7297665765849763 0.5300809963282033 2.1975709800214345 0.7577184998086564
Ni 8.128659864900461 3.9987943048706684 8.716019845433259 0.3914386292312355 2.7691061297293666 0.9206637053170467
Ni 6.603287781650344 8.476530362747377 7.492920087694409 -0.5519340876475527 0.7780093888472085 0.05745232858019783
Ni 7.657207100495676 2.23676087872943 10.336420216714743 0.16646684550840365 0.9973316875937469 -0.6307808227431266
Ni 1.9709715565705666 7.308583052242921 4.186624651154171 0.03722546001036169 1.1283155097041921 -2.0808732355163584
Ni 5.018348003973094 1.2308082992978568 3.927321444340395 0.5044326996324796 -0.9676058783945402 -0.16021495106142083
Ni 8.902742193527432 8.569170547208628 7.0139634497420795 0.5275248055652527 0.6051096432292676 0.6886211307903625
Ni 2.8189576435185026 1.9311450221581725 3.770369919131786 0.32868417171183395 -1.9477003761743943 -1.9175117684061556
P 5.768623721630356 3.2946526176154287 9.59694817913529 1.029979298425439 0.1545101873671597 0.817525701774276
Ni 5.82117688511917 5.435228834048726 8.9610669949395 -0.46681488927970566 0.7030738158805827 0.9822740219296761
P 6.7795813642513405 5.551294202731049 1.8824545022311494 -0.07974353587823041 0.06463393393030159 3.5029601642155996
Ni 5.712070228826586 6.422631049168617 6.507433379099983 0.7454836483053613 -0.835870779940367 -0.28254726814445535
P 7.034132551962605 2.0292182120146216 4.392567186142997 -0.3924205335285306 1.2990658130792982 0.026014421785890682
P 3.2007937281768295 9.001159597766796 3.391735958543711 0.8659236334616893 0.16679543249241596 -0.3508504233962281
P 8.166439719198227 5.080678716554976 11.646471318505318 2.0685193419366956 -0.46141917218543116 -0.9109400502713795
Ni 3.8281197894934715 7.853613966768618 6.289999665576658 1.6596136662689482 -0.5050875596076592 0.011773338485844241
Ni 2.391006134641014 7.830170176364686 8.075563400872129 0.8253017461752689 -1.2868494735187643 1.295428730547343
Ni 4.071060719099932 3.1270853347758956 11.221325622003157 1.117725650003488 -0.5162214647372916 1.3516255894538851
Ni 1.0490724082102336 6.787898327989879 12.080073525117468 0.9906640457655842 -0.3535025163070944 -0.3567760448520436
Ni 5.880111969329055 8.009524476046195 10.128763121975343 -0.002561590079589137 -0.002609155488072926 0.4826050622344269
Ni 3.7111706271252856 0.5011212532846183 10.448875055613032 1.3985495076989332 0.3513088510898853 0.1662184769430234
Ni 1.827992344380872 2.3794796043590805 7.4879503762524315 -0.8333025049925584 -2.1249380870460564 0.3244745045058606
Ni 8.887624669953468 0.6442455937006227 0.6025835593490638 0.8373072552765773 -0.6604449254664626 0.4864491185708654
Ni 1.2824776691008084 7.537690284892775 1.3730255882994233 -1.7814140221079124 2.242741663020802 1.0080313333994382
Ni 1.7121223406185817 3.301871816565211 2.3105427665526617 0.1087268104844579 0.9186716145876823 -0.13376961238569868
Ni 3.36893780268503 5.246627261485665 9.504549875051223 0.6831493090425138 0.626616921173424 -0.7758545472877347
Ni 5.927874040731352 1.3712012520699746 6.442294993524486 0.14635439102924472 -0.04650045755438443 -0.7820323939636725
Ni 2.1120622411999443 1.5610959543418232 11.953880811104305 -0.657958411599183 0.711470010364078 -1.7618854651566818
Ni 3.7932797120876285 0.5624137408628981 7.764409413972514 -0.9988671504016668 2.3874317789737467 -0.8903000054235246
Ni 6.006513072590255 1.0736976912257923 11.483378822643678 -0.8700127159293983 0.3853595129166912 0.5623694240482637
Ni 8.878516943443369 1.3419802418879307 11.963615565976795 0.6147170844120445 -0.46723886419100175 0.20894609771853695
Ni 3.4934038629287625 7.215663775038765 2.000165587787463 0.9490538264239655 0.07811088537081387 1.2987259132413762
Ni 8.253116622052763 8.247599888834696 2.341763941392184 0.8365922314874238 0.32021547211919044 0.589526701189346
Ni 5.0391497164108685 5.888866178364809 0.25068761384033045 0.02418456766600351 1.291033429693125 0.9275812583724863
Ni 6.505409956713929 0.72492665412844 1.8982762698263744 1.866881604954114 0.9797587117069901 0.4493573559248907
Ni 2.110703989851145 3.204207962731688 10.132017343357603 -3.4335252093522284 -0.557321320101395 -0.3090561130682613
Ni 3.8099322457475644 2.6351285568591 6.059752804226613 0.309691432659415 0.3929044151434846 0.07846698315865196
Ni 5.804384805087784 3.6340945146266446 7.4654703861206615 -0.06627249797498909 -0.623593560966068 -0.7680594767233483
Ni 9.17942543575098 8.1977074094949 4.833099265561453 0.11890529367935652 -1.2973629714555786 -1.053123083531754
Ni 7.262383900200886 6.587491132401981 4.371734773503502 -0.14696477091973398 -0.18258611966776944 -0.016666147801771294
P 5.205898327204549 8.422153793338257 12.389797626864272 0.28870506021573505 -0.6901995310210758 -0.5813832461466052
Ni 5.162666861328727 8.101439019375896 4.45709342830239 -1.5290098532057408 -0.3863031077768831 -0.6638817190621534
P 1.049863170981795 9.09675816530283 12.705702702557256 -1.7484079994955373 -0.46035859213140073 0.851149046255676
Ni 4.110738404049443 1.3254207391422963 13.12809840523267 2.123312635627492 2.345616128489541 0.11307840258493428
P 1.068013502361982 7.457944185153686 9.83503847687008 -1.095065746512127 0.8625302915094242 0.29960319518547757
P 2.669568601333448 4.845310503372644 11.39908258088611 -0.9027845110437808 0.8713118943567961 3.0325477873926223
P 4.113789818038526 5.143716464085548 7.387831436590497 -0.27726159426548375 -0.3127782991148549 -0.7673596224428462
Ni 1.722727864848932 0.33181708327508014 9.329938291380795 -0.8720634278108401 1.0087815813019012 0.27815736660687573
Ni 1.0585615614689678 0.2989874039272883 2.877431294393453 0.7044753242137997 -0.5823497238249326 0.049536159056914685
Ni 7.711918581196282 6.772669167318753 8.785011571479115 0.5697443763560962 0.1181614735347965 0.1464261248074446
Ni 7.2506620049989206 5.0327398864155075 13.629630855158501 1.1188461367611764 -1.8684831451132786 -0.6721210762528101
Ni 7.048291857119265 9.173406335595685 4.477558368830394 1.2642517907239066 0.4074344904388596 -0.058969536555672636
Ni 3.8563546719839215 2.700892110178702 8.953945478449734 0.6767012394243249 -0.5900455498072935 -2.309194138217081
Ni 8.535549174780133 7.152188782210976 0.01594828963867481 -0.7605307724464708 2.0828995219177675 0.7778134707863185
Ni 8.845556090506411 3.9225461675093083 6.3532597569924105 -0.32538133259084606 -0.7331459526756148 0.9046688725506871
Ni 0.4793362040826788 5.298603633305811 10.110176475607084 -0.006714178795381985 -0.30076559092469496 0.2854068490804375
Ni -0.19650826996952933 5.929409050817323 2.707340082848926 -0.889398576655178 0.5552487538430824 -0.024515468642861006
Ni 4.735059566834153 6.022002719821424 11.681764456463808 -1.5221442364341593 -0.05783773694407458 -1.2533513417613187
Ni 3.105827770858045 7.466102996337911 10.74819644052266 -0.16417676392264627 -0.22366077822089223 -1.4093350283502115
Ni 2.4414847087409086 3.843665255273222 -0.03449865395035746 0.8207796899351993 0.17094005078840882 0.016957196679628857
Ni 8.591302601720912 -0.030851842109745824 9.304503639410814 -0.529858595904752 0.6072338886611219 -0.011470719643760889
Ni 6.500190922421625 3.25663088294048 2.251516512046762 -0.11962777366767784 0.6040973999146693 -0.2600971666710553
Ni 4.70235920045724 9.146780887922647 1.3113609770639383 -3.366841077761118 0.31895357468763136 -0.7726519811900371
Ni 3.850251844005755 4.712750753584697 1.788627243303413 -1.118969292602602 0.11993630604703215 0.47313826039457224
Ni 6.225386904666965 7.570855805841194 1.4858748782743503 0.5886651245199992 -0.5922595267394768 0.25289242139249996
Ni 7.825648873929643 2.077287285434112 7.853731185720638 0.1331875146299835 -2.5388854389027693 -1.1141086220761909
Ni 3.1608276473929835 8.784351051987576 12.677108720737602 -1.2346038859504866 -2.341620891287219 0.9531434231123069
Ni 7.068935417002727 2.5005035207736643 13.357881972629494 0.038889477976345926 -0.5648515670401691 -0.009583787033693171
Ni 6.091180507695884 4.257224881708297 5.187129340244258 0.28688009119185437 -0.3341354246343923 -0.07420512255850446
Ni 5.81409723254084 1.1574813326455586 9.225489692967276 0.09348659649593577 -0.7341833928011937 -2.0040679563308452
Ni 6.23072687914786 4.2054066624424635 11.515676365161667 0.6215490197322134 -0.3833910763364107 -0.2179462443346182
Ni 1.593563743432983 3.620698062967255 4.782570454767836 -0.2818957506033855 2.5545208314471815 -0.07131365994332234
P 1.740133948914708 1.7073870670806446 5.432639783703721 -0.08019270760050705 -1.8184515344771846 2.6092470193454673
Ni 2.212126292622441 6.127806778656312 5.9987803429935305 1.1185250059763316 -1.3388724035532746 1.4919265752001984
P 2.849313630855023 5.343509655639058 3.7512669511891534 -0.2277593737702981 -0.8823905207684609 -0.03117873959564953
Ni 7.068460959339791 -0.1217328119815596 13.06882747942216 -0.05797657651478402 -0.923285716320926 0.900499828774662
P 0.3805764460786865 2.172932368427296 9.318378269969713 -1.0851914248212085 -0.6233130536111717 -0.3070354830938067
P 4.63239995290265 8.208582723376724 8.424513987634082 0.4895236437311312 -1.6763970563748742 0.5743715907154625
P 8.161471868374537 6.604227393884788 6.486410253086171 -0.7240357628442304 -0.09812126705446972 -0.34403751423945267
Ni 8.164262795803577 3.999045488339282 3.964765457037532 -0.17958898471265844 -1.1330401688733713 -0.6676910655059146
