# total energy = -340898.8023324793 ev
CRYSTAL
PRIMVEC
9.01279596260740 0.00000000000000 0.00000000000000
0.00000000000000 9.01279596260740 0.00000000000000
0.00000000000000 0.00000000000000 13.19113791865709
PRIMCOORD
 96 1
Ni 6.301368374275253 1.9764160186893667 11.32446001383257 0.2765753668317366 0.07730870118449265 0.9208225994924142
Ni 4.5788157784433965 0.2148190896249678 5.970019241000131 -0.5371613002137523 0.22788432938393655 -0.47807297869202825
Ni 2.653628491799405 1.6550737927312715 4.7297611833383195 0.8345677448582272 -1.2058430117677104 -0.01534228678402519
Ni 3.6322468862784514 4.252750847419894 5.075395598156706 -1.2287147741595614 0.3335684963873287 -0.2484161307887012
Ni 5.006608137087615 4.61765191609004 2.7091166711995736 0.300341873123715 -0.5291559134107726 -0.7692069600642301
Ni 7.262943571657571 6.2145390983207935 2.599220946630806 -0.24587896618914426 -0.2998903874085932 -0.22027874912253675
Ni 5.022984387285794 4.480116650253934 11.571239379091969 0.6477717008741684 0.6700315407136331 -0.20297908150182462
Ni 5.6016870009208235 7.773184987436044 12.320113493892011 -0.2511286446238578 0.6246451421590339 0.4202537536907149
Ni 1.8429455238160444 6.662457030268554 0.434099513233479 0.09500277603014605 -0.13603115472636573 -0.4271399392875869
Ni 2.887186085434848 1.6819229117958692 0.26905989806892944 -0.4761924738398637 -0.8342967505850277 0.7021896135034166
Ni 0.44904272887936786 -0.03004415522048887 4.695701827532641 0.199980660995133 0.6306203859058623 -0.22695821802524138
Ni 8.633744768075827 2.578173364304 1.3124271197624695 0.1654322335963022 -0.6403661524387165 0.8701497557278951
Ni 6.875564589947107 0.7064878368380096 4.719209001867749 -0.07993688283595911 0.04397743402221459 0.07239403749169468
Ni 0.8890771682303485 7.461450401935437 2.640206636105884 -0.6576899884291447 0.5355944699472647 -0.13314097766276425
Ni 7.665220705034292 3.8679405125484396 3.6959457227675254 0.5607362593202149 0.1036815347510666 -0.23579741358342618
Ni 7.6479341624475525 3.8521500940854736 12.666367989070132 -0.3044345551358499 0.39784504697821155 -0.8152317635337766
Ni 7.8757325794860575 8.727000167525773 6.832336516845553 0.22656226813840333 0.8499421704317685 0.5234614341291566
Ni 6.784337069580589 0.8360711128282969 0.42289570661743286 -0.16157943550911527 -0.4821705458001696 -0.5523233526661714
Ni 1.7957815627334532 6.376327797994708 9.14852863300118 1.4246708873763336 0.4825585252672076 0.7743517374899632
Ni 0.03512106316580202 5.014944973319489 1.3521447088507101 0.04918006126907659 -0.5851391136446116 0.1045585380393812
Ni 6.42596126516112 1.8231444111658526 6.885074892208592 -0.029043695530517725 0.6773239606099883 0.8012151375397104
Ni 3.4118119235117748 4.255743095667442 0.45905774771272834 -0.0009831898488757262 0.9844288634891497 -0.4081585130890777
Ni 6.0669725906186605 5.411805416344475 4.790428115277769 -0.33746988832426394 1.3039298260398189 0.28973838657625584
Ni 5.506602003897827 2.8686197258265658 9.266853124320269 -0.5112978021834291 -0.2982716208582476 -0.5989824472856071
P 0.2195841548312292 5.598469432775116 12.407689930628766 0.7210175448431969 -0.6565345346684628 -0.05746518409600426
P 3.961240975978018 6.165879013114428 12.618048587549781 -0.3197123072305268 0.18382204895739954 -0.2152761537016228
P 2.3971243197354744 8.614529487160848 1.420342733066218 1.1021018274233019 -0.3975912790961927 0.13938747279310834
P 6.258620683196574 7.728580660396536 5.824599581287654 -0.07540454218324433 -0.5695122057406321 -0.865489117027432
P 4.69524307621999 0.9460822011849218 12.458027297157026 0.7532460658595996 0.3878128595531901 0.5396475569707158
P 3.954111854400275 6.008019892464402 8.199716455930165 -0.3286821148293049 0.7181337955374987 0.41358894007602964
P 4.694152527912902 1.1641287730311156 3.8030573946746435 0.24267742853271107 -1.5217783684543083 0.6379398023854109
P 0.27999872848474083 5.59198923250407 3.5363723683323074 -0.3534426096034365 -0.6213739276069298 0.15575974350354466
Ni 1.4668956265850028 1.231409294621321 2.5807402085838245 -0.12978800203013133 -0.3533672762808108 -0.32020364504464854
Ni 1.8888567062648731 6.21521505801527 4.942996724719028 0.4492725095205682 0.7555016946629957 -1.1882057583019214
Ni 5.889231242155104 5.536686716699985 9.266562912291441 0.12329339544472315 1.0321063720707708 0.5163430779168204
Ni 8.458833437533146 2.360505329886713 10.164021980733295 0.6864565190388757 -0.38658155824925033 0.27486866855327496
Ni 2.2929994883983484 5.0880297354862645 7.021550253243759 0.31454567542792283 0.36468681505868805 0.29965307458680657
Ni 0.5774867874645645 8.908508864686542 8.965673424129012 -0.577641776826302 0.08410052729534549 0.5429776497852133
Ni 1.271804645963223 1.0060443324829307 11.276391168038973 0.2975578826206746 0.366896164005181 -0.1225817140896792
Ni 4.08913255017293 6.81725180030362 1.6079999596079435 0.35020481939242915 0.9122615972962805 0.10671415092980333
Ni 5.587023181948651 7.802287305482228 7.913482675223575 -0.8265057937856992 0.19612554891510092 0.8397642014575021
Ni 5.426937900704817 2.979396000557338 4.765707818610975 0.8867140878444794 -0.7962711632708739 0.18415809214057963
Ni 0.6993731357337486 7.310801518026492 6.998993928878883 0.12863306249008172 -0.1253443644364809 -0.8354910280034449
Ni 5.125225544274312 4.368925786910549 7.344640961611566 0.40252933982775835 -0.3354909102210222 -1.1828136407520724
Ni 8.044190748145471 7.132294081909197 9.031879620444796 -0.15284282696706583 0.07965123327474025 0.6447763656912702
Ni 4.482577143541827 0.46979739533856746 10.279986020799274 0.17901434315611103 -0.7586430685054548 -0.09380592750856748
Ni 8.094698456516738 7.026060256325304 4.748651102320356 -0.05687820124428269 0.4213757831103001 0.3473285262858986
Ni 7.166479616857843 6.058581677611228 7.031258837015624 0.20643284437837997 -0.5851378280930309 -0.24906687699882268
Ni 2.299867238894228 5.3512664661071785 2.487228845729569 0.3093859856038543 -0.5003281905458028 0.47649663534384396
Ni 2.233731342386669 5.286275194682267 11.475235076884486 0.14143972733644675 -0.3644345898385659 -0.10361622873076995
Ni 1.3108120267324677 3.426719087973958 3.713806380454774 -1.1280386018937218 0.5207774595390902 0.33841631139793327
Ni 3.7366871654729996 2.605824622206043 2.54887096218825 -0.12036850848844433 0.37100170153312234 0.02712848078567586
Ni 1.2300032984568103 3.316979284774717 8.161158813677647 -0.8706308091293716 -0.38839701419143435 0.19946206948750167
Ni 3.5652006973823314 2.612593231946732 6.9864490182289956 0.349248883237063 -0.3506280229727768 0.4356744591211594
Ni 4.083373373575992 6.638113468471481 6.023732800882401 0.6105174445084002 0.8520355626256875 0.4489434083159236
Ni 0.7409293351909648 7.381597030027973 11.232649365569618 0.017605114676272907 0.15630327471184047 -0.002877064437478916
P 0.2505494177953911 5.530314669980055 8.042504454027652 -0.9910908488903576 -1.1996553948997597 -0.7181085987265181
P 8.523986939284733 1.6004021726420303 7.995029551485601 -0.4790687669463943 -0.06342551544449722 -0.2633670956715787
P 1.8031179786175022 3.1481155402986167 10.345123299518193 -0.7958762418253003 0.13609260409192045 0.20235507476458053
P 4.015398866699457 6.041132904697813 3.9022287933706465 -0.6137889161708203 1.1689368827699802 -0.7729340312068302
P 6.954940283670474 4.048998569912891 10.474818334177968 -0.21447114130182418 -0.22732254334319563 -0.06493578144143655
P 6.275781046640344 7.7223708440032794 10.227102539421821 -0.06837488902997256 -0.269430014036207 -0.3353196747504806
P 2.277236108323162 8.254711635393162 5.724755828015545 0.16633829035033934 0.620512350937583 0.06489053002579791
P 6.726222561447481 3.9870175723273804 1.5228903251162322 1.2956832697603102 0.1954999995159601 0.6791288750292109
Ni 5.251413700039143 2.8671416272946444 0.36697311045361425 0.16343808598440884 -0.46662951274177694 -0.07109485906429691
Ni 1.4036438247738758 0.9339599906639806 6.914029400401585 -0.3134745538509311 0.9846908589012848 -0.5853010931437727
Ni 6.800551089452093 0.6046135006436938 9.23933705835712 0.2582194900323682 0.0810969645823313 -0.7633479301802918
Ni 2.560634463431322 1.4628578940099979 9.108467656388145 0.5986713438030916 -0.04673185683890016 -0.12028366208412188
Ni 6.385034158859563 2.0372523911922316 2.6084554573369445 0.06592719882042838 0.17301775925304397 -0.38371195001093916
Ni 3.971146038701077 6.978427629854543 10.403441496839237 0.7570165886456253 -0.6872890422425003 -0.3158479391791141
Ni 8.170865594890325 7.162153474813195 0.30138609321797016 -0.06834275024045648 0.895882898827941 0.3744495508724067
Ni 7.792301127595832 3.79869520144629 8.309018237247388 -1.0058901186867193 0.04445077411420732 -1.2229141083173842
Ni 3.03917787593682 8.440456346639317 12.320681300035373 0.27131617531532626 -0.30456928094150126 0.0352775922553715
Ni 0.11027696583645225 4.779170231886164 10.114885118622427 0.39851893311678466 -0.04775078502171776 1.0463518262461915
Ni 8.624578754618728 2.475202170845447 5.729307289958352 0.32119274843079526 -0.7803624624604174 0.10580295196944359
Ni 3.640214197877345 2.6585584911711186 11.347148826297564 -0.08017136744426838 -0.6823448108633474 0.17921668897490425
Ni 1.124238138261089 3.208393119454048 12.5222155284649 -0.23363125917004282 0.5737424417718957 0.0005427598773474524
Ni 2.8835809670643076 8.23145862190318 7.8439120021884845 1.5051505300896402 -0.21030595418054104 0.46304925158968646
Ni 5.560714830639634 7.9017254829376515 3.630702093056675 -0.2217543052267987 -0.24583628587666698 0.1644405591069942
Ni 3.0458203065345404 8.265941579117396 3.6739031277704504 0.41421834612991243 0.17510035281368552 -0.2202250130664659
Ni 3.5131067369280267 4.245946186495499 9.528710897164453 -0.06831961031200492 0.606084348437711 -1.075263367074219
Ni 7.344085773382503 6.062826704492538 11.370984967683984 -0.4673296241325952 0.18602239904282802 -0.16935445146884381
Ni 0.6549679914842131 9.124194084000033 0.27821419489132343 -0.6567456222380044 0.11689211990406966 0.0797389078925401
Ni 4.691223369236838 0.38994222087191815 1.6530999904234007 -0.7875630939739147 -0.5061026311357348 -0.22173939282846328
Ni 5.996005835494577 5.675736132251718 0.3965098452634496 -0.12990730121681499 0.22674095980811274 0.09784075969957344
Ni 7.94813236916243 8.898540712391998 11.396100926091943 -0.503143805617727 -0.3139175549256206 -0.14484232526009247
Ni 0.07471337439066644 4.911469063289061 5.756705288294864 -0.4379624838243876 -0.667021807353032 0.2909594034675505
Ni 7.844746587091264 8.908328608768016 2.5072129181370655 0.8394649250495284 -0.4680636740851423 0.1696303308380498
P 8.513469006438681 1.737640016212567 3.4670792894117475 -0.17943574696424583 0.08729538008355933 1.02779360362803
P 1.8977703614360335 3.2304924950654583 1.5613560368503028 -1.1719139631204334 0.39620416894067895 -0.21670542994898165
P 4.645546519482094 1.0733158412772097 8.100625271117908 0.41384347928899695 -0.45011788823999893 0.12118894750721064
P 8.37606893254147 1.7367297238240058 12.432832026144913 0.5370689976102622 -0.2912509665660404 -0.31746362040566617
P 6.343566284802425 7.849928944748916 1.3734608724961215 -0.7870524728860833 -0.8628233972698109 0.13105221345453558
P 1.7858494616226148 3.177830728467794 5.937067557813802 -0.7498624940993474 0.45787284959506946 0.08150139910960157
P 6.974056423830263 3.958131561383427 6.121914594585692 -0.12819314673918566 -0.2526376250692165 -0.3289525948818722
P 2.3676705026481617 8.434048248735682 10.093449986070787 -0.14397277817094561 0.294099491758429 0.5172583906422382
