# total energy = -340868.76876578724 ev
CRYSTAL
PRIMVEC
9.26170461448196 0.00000000000000 0.00000000000000

0.00000000000000 9.26170461448196 0.00000000000000

0.00000000000000 0.00000000000000 13.55544089074293

PRIMCOORD
 96 1
Ni 7.475381014071302 7.031087788429255 2.9291001758624162 1.0805001899931264 1.2712297647036366 -1.076408793532572
Ni 0.6428447201281253 6.352297467041215 2.562113471350043 -0.38062071268012515 0.2810863673282126 -0.25828890981772296
Ni 0.3208069198013224 2.0994894801998605 0.938401455003807 0.5175602381533732 -1.4820653661354024 0.786432065693265
Ni 9.132550011683497 0.37936589872123183 6.407386085292218 0.8154101980931698 0.4847084817306749 -1.3401720962013048
Ni 6.916464933776528 0.1847848969460155 4.572968439669926 0.5895629537439201 0.0032686434489427583 1.0549423961286801
Ni 5.3537653218671295 3.9731878668655556 1.7719668984796069 2.7609279647939484 1.5642925876674352 1.0970835482731043
Ni 2.747503157598646 8.6764481128286 12.778469993702018 2.3497489197109918 -0.6333228724386899 -0.27242174967467925
Ni 1.5534193840197703 6.97278535872346 10.297878971361248 -1.7418462871176195 1.5214379543957541 -0.9322609232363429
Ni 2.3382469600069595 4.0004728482655985 7.82906698477899 -2.9066773752493424 0.4611594907661413 1.4898023297683438
Ni 0.16195386923072475 5.361998977150442 8.662251772200635 0.25813284385583285 0.13338677512498318 -0.7243610073941331
Ni 2.439514436798566 8.17692734336834 1.9921750365528272 0.13857834662825164 0.36783333110746974 -0.27982858366171165
Ni 7.133800091119845 6.0987305217695305 8.605359900087246 0.23277842425144427 -0.7287272547826288 -0.32822574401817667
Ni 5.960870050574811 6.936266457956192 0.7948793038600566 -1.131428087191245 -0.019311041623786097 3.265352179785996
Ni 2.0639245349941016 0.023310784007389236 5.1828275992901585 -0.5133719111036386 -0.3382412192726498 -1.7128558134225405
Ni 7.399870337440429 3.619168474796563 7.776444758431188 -0.2237605370235501 0.3740075782389817 0.32882841059918205
Ni 6.614088805891732 4.786958269354827 13.161655419351076 1.923208561680617 -2.3057853696458483 1.781902788818873
Ni 7.399222018126782 4.408663949842008 10.931486993610806 0.3008825761185334 -0.8000519704695447 -1.076355057476501
Ni 3.150026096032888 6.076280150108396 2.8842457410625486 1.4393151196520697 -0.29788672671500305 -1.0713370354366194
Ni 9.020085134174765 5.578658030066671 12.645355219883193 0.2071892629284303 -0.7272581264362701 0.33758507374588953
Ni 8.966117182165922 2.9752114239603102 12.481917625594665 -2.1683002560817752 1.3026550730924533 -0.0901081669420061
Ni 4.234247531062099 1.0283548336018313 8.692724632282923 -0.8700327705340565 -0.03484667536553999 0.3447831341562256
Ni 0.935830405839974 7.560459031430703 12.65243116210642 -1.8809457963566638 0.06899015401646828 0.20929628196910405
Ni 5.250173157250876 8.867470767742345 12.81223631589763 -0.38125783204349173 0.4739846675552676 0.0830692578173537
Ni 5.09776254831703 8.216771196044165 3.078522032760351 0.8387442448334199 -1.1528854857340727 0.006163191387918417
P 3.655993011811693 2.9088698347652966 1.8206723500025355 -1.8389907920811166 -2.504831434641854 2.5144177927787084
P 0.7073774984380646 9.039960751990275 0.8719320542869605 0.7237961360295986 -0.15293101580549792 -0.29189734190078764
P 0.12008911263721656 3.108246547120602 8.365333566766296 0.44408119512761585 -0.6110532624072121 2.380768765131274
P 7.184683895536626 0.26700845698447556 7.003269332851125 -2.075784508139541 -0.015572657627276406 0.34657467883900955
P 2.876287158402312 9.006924252107739 7.317118860246571 -0.19916793528585053 0.2608538423314217 0.023609926109456114
P 7.604544744758676 2.9681354817370806 1.5464860720455433 -2.83066039629308 -1.048176023939124 -1.2965952400516185
P 0.8325207232103807 9.196289061919444 10.310661049715016 1.7015403884097213 0.9410756933144954 0.02637951843479328
P 6.043780829085737 2.783568234846361 9.327742285954438 2.0240048044640884 -0.7440762264348734 0.5777711033153147
Ni 3.97617013570833 7.209023654911817 5.149075169651265 -0.13741363689618916 0.15603639420369902 0.28714414348651834
Ni 7.241476667412073 7.220091391766214 12.622582540906128 1.1013443804319871 -0.3500348694734681 -2.2491159419782623
Ni 4.139509555929362 4.021867385615938 6.725979457722662 2.6295697900632193 -0.0660351851532024 -1.2336764890402108
Ni 3.9271849807100856 3.7465910050415716 13.513310298266154 -0.8670778016707905 0.7801907127692435 -1.9504964508622926
Ni 9.025466184478033 4.348333206854948 1.2096980811628313 0.6964493685855295 2.448650516574912 -0.7109089956542853
Ni 2.8756758859065883 6.486388424512303 7.908704676926448 -0.513025069287181 -0.7914534301672562 0.16891530704889618
Ni 5.865678251922522 0.9038432570750966 10.741196013351033 -2.0814535334998605 -0.6079687099446175 -1.5556724500985917
Ni 6.1250245007901425 1.9508576466941263 0.011734579577004316 0.23979650744049025 1.0701401869150409 0.13112446145336773
Ni 5.184035325554437 6.068268775732619 12.282015774595305 -1.5408338424238626 0.4317180455765726 -0.9812496944302197
Ni 6.54027302118082 7.288766930490355 5.5767760517162 -1.1356727214002118 0.289776696013359 -0.28305737501165446
Ni 8.00098274334912 1.2310101893432925 9.328122015838144 -0.4228428545741299 0.13099102119929698 -0.2240364163927561
Ni 1.6936415898570594 1.4972008378221253 2.8561586960544796 0.08623711402237406 -0.15066047460376633 0.39279282926628484
Ni 0.5517938295491421 2.3946877871121406 10.532157490881497 0.8457193905996725 -2.6234230537355336 -2.235782715204466
Ni 7.548215058107263 2.578634499802656 5.554694295893395 -0.5615574696699297 -0.7618381784039848 -0.6925608321644009
Ni 5.163835548082104 3.810376363799921 11.288835042270147 0.5740062369562438 -0.3073152191177546 0.31861830283539966
Ni 2.9050540125192623 1.0175556861773742 10.897882751243603 -0.48067416376030125 -0.10131611984268357 -0.22690499618980275
Ni 4.276064126792308 0.5760141129365329 5.328521620134625 1.4408325847378607 -0.17042685859741616 0.5934864571680425
Ni 3.9178028740711706 0.8801508908431038 3.0328534941366336 0.190981028599684 1.2609854612678089 -0.7770200283507457
Ni 7.596903838562126 4.459019837103392 3.1700350823929195 -1.7738032996401902 1.2137041596833418 0.35460037735696354
Ni 9.012749864226077 5.558550869639143 4.717645525362416 0.24961375064122818 -0.3978314201314567 0.657270641503539
Ni 4.778669043844631 7.963139418841117 7.4934885725014535 -0.04227047863343687 0.8349937766520522 -1.894374153947428
Ni 1.112367754945956 0.9292823807721429 8.367421154956238 0.1986017783697354 0.02112238380091201 0.9593351537453154
Ni 1.4778901839799359 7.433888577997917 6.5577970922286895 -2.157616036895052 0.0977001203566511 -1.2736679418314838
Ni 5.454273338891322 2.055116654032988 7.184532929753591 1.7409836820070081 -0.066428306826563 -1.5507778410104518
P 5.880950802611141 0.20243029632258108 1.402215575179755 -0.7714852145754456 -0.558224805752271 1.5525400751171972
P 4.295708201995801 1.9247859485810506 12.338866895208978 -0.8215301949479786 -0.6936383814992958 -0.5759145097225501
P 8.306211476213962 6.589156297429777 6.429169614230746 1.3100755339262404 0.1879268151543925 2.1223888382616414
P 8.28893839735752 6.326596237107366 10.71998115306762 0.7512483187032805 -1.4616886022512632 -1.207097967220734
P 1.4987660658793578 3.6335982103774414 13.415277008679196 0.9909802914544223 0.9627485503022387 -0.3276361900632938
P 0.8482971106227479 3.7976970903658884 4.309409967604499 1.8697321870290315 0.6102189394313748 -0.11770201739987472
P 5.514381800970846 7.656965992119247 10.909689572115557 0.2696693837405227 1.0793465360046572 -1.0341169747428964
P 1.9500148315863859 7.052482325779594 4.253073797759949 -1.018621964431091 0.6598995944859538 0.8678954124760795
Ni 1.9593876765208202 5.765883386143342 0.5749758758642501 0.4824911623643819 0.2907439450226348 -0.8083013549625305
Ni 4.5078197580120225 4.871823267511173 4.434825486488546 0.37942103594506915 -0.607656063800205 -0.46543446399241134
Ni 0.5850544626801113 3.2373547075810913 6.374893247462698 0.04070467680821377 0.00103898278747563 -1.3038616918060446
Ni 8.273313901898634 8.360373924016898 10.820522512227942 -0.9684219465379321 1.6296389742837287 -0.028972218862633976
Ni 6.551183309059045 8.349056121141524 8.86856550121196 -0.10198923465030822 1.0432893852707839 1.0611017308618564
Ni 0.6431373899897145 4.517498239194319 10.826445372243327 0.8697448069799923 1.9535354947989325 -0.4100562443324228
Ni 6.373043685077908 1.815414480368861 2.9844203367254365 -0.39098380108200403 0.5390911702466135 -0.3210695925893696
Ni 2.4823220349082056 5.21422848216141 5.670634164923273 -1.6907348131537852 0.4979015833821812 -0.6000867360933795
Ni 2.9869367418328334 3.058918709056573 4.482838162516321 -0.2199067104950987 -0.9408399231546056 -0.19939830612910175
Ni 8.918215646591916 7.9488300854184875 8.258855455033867 0.1020332005143662 -0.07769436665868555 0.008770289993462315
Ni 2.8597457541998423 3.4493921699614676 11.157890285811142 -1.054756248259803 0.06669210201091094 1.0890838178970792
Ni 0.8377795190145032 0.8567410065977715 12.55597050994028 -0.5351288431647558 -0.4455822051531746 -1.5558521702095656
Ni 3.7766915446037372 8.294143475275654 9.655228747027216 -1.0134237080596031 0.34677831020938343 1.4131022087021277
Ni 2.9370717249089258 6.119495263215184 11.862352199678693 -0.177292732479314 -0.7065648597529767 0.48173628647622835
Ni 8.871388468737667 2.5968244874026842 3.202201908224722 -0.03910519353157782 -1.7322280473015652 1.2401597827717092
Ni 4.636464833248479 6.291151694059856 9.195198033131621 2.3437340809754796 -2.430501870690343 2.475538599215007
Ni 4.159227724768701 3.4215237011791424 9.146167495781421 -1.4660178257542362 0.8544099763951349 -0.48471696637110717
Ni 8.963820279454717 7.883887013600054 4.37077524298205 0.8193961793241114 -0.19734528025481496 1.711329092365369
Ni 6.566872636449293 4.789792350925911 5.46727491964128 0.6950218921103837 0.19954408767834667 1.1415361221595244
Ni 1.9096615851641223 4.131488919849105 2.2338555102940245 0.11034069193879706 -1.178041673284726 1.2995926321170457
Ni 7.564710153787329 9.209199877965492 0.19590449934550355 1.7940584503448007 0.7155320962485935 -1.3342333621193667
Ni 2.7775481269339277 1.1148035832243715 0.7298195345651673 0.42275029486032356 0.8729080351993224 -0.21939300408347379
Ni 2.5469594704787766 1.8388095458870244 6.7218857843422075 0.9978361380339913 0.6054726829956412 -0.22562458681548236
Ni 8.530928212028371 0.2904498310250422 2.364123236155493 -1.487535388111038 -0.8043323430124535 -0.6193880075251527
P 5.381930165192836 5.843403852646519 7.180100277989145 -0.030712084371876135 -0.15896565203535204 -0.7202094471196048
P 2.580977711036264 5.183433314763194 9.741983132897618 0.46161354758442436 -0.5058105538166127 -0.3176528535983368
P 5.7958357384338175 6.035519388688983 3.2117312759648797 -2.268374790207874 -1.3414489060311994 0.20364139767617184
P 8.180807997545738 6.368199813634519 0.8975314054715224 0.0557317463446653 0.04065222630372354 0.7665751788683378
P 3.861149027762934 6.993105538354041 0.39307692603441036 -1.5794204444478088 0.2714611855336228 -0.37968688801194606
P 7.468064267531576 1.5279311732889764 11.756620581327407 2.7170726581718947 0.13383440418536305 1.2167555449151561
P 0.15902253976259384 0.6217484096620635 4.146134453144383 0.48015197270824406 1.6949123415702423 2.220715022238066
P 5.271336151989199 2.543402975958201 4.876027155174947 0.18862075589762353 0.3287605334757241 0.4563106473142722
