# total energy = -340864.92870073847 ev
CRYSTAL
PRIMVEC
9.27751824245348 0.00000000000000 0.00000000000000

0.00000000000000 9.27751824245348 0.00000000000000

0.00000000000000 0.00000000000000 13.57858573374704

PRIMCOORD
 96 1
Ni 9.066677528921515 4.849201156327994 12.583628896738176 -1.4782087113934737 0.530624527536499 -1.4215125442530099
Ni 2.5610775127690313 3.463102795447637 8.186529562411097 0.03920778054771312 -0.8880693163207931 0.3791790951375922
Ni 5.916616759743757 3.4533892336698955 5.415099163671244 0.9116177930646946 -1.012925942487578 1.3364491388237627
Ni 8.477091233815985 7.354279567960016 12.309314015577016 0.40802841526911665 0.3139160122637239 -0.2941552846970289
Ni 3.0704967712733517 2.1554087426701414 10.511916358673307 -0.1664874143336939 -1.0213241938536022 -0.6754686525688045
Ni 6.432251955584359 1.0275315517610235 4.327291574785112 -0.12951752197756405 1.1454868792771562 1.0358450131775967
Ni 0.23527972244115303 4.73082002138627 2.438156888068139 -0.034166875689695994 0.03802867263794741 -0.26294029254680523
Ni 5.698149756169483 3.8197027706635507 11.605291386358696 1.0169057530709324 -2.4072642403186415 0.8906800144707628
Ni 4.225872526756707 0.5460070078671481 12.908047943837134 1.1106173210934809 0.5720190313228858 -0.13940367074302445
Ni 2.900476968848427 6.06206969341275 1.7033115594284334 -0.8104220008499591 1.0502161942976043 -1.4867368034691428
Ni 0.8420832362163428 2.8716331641043977 12.132914991491752 -0.42829487882763656 -1.6527364795331407 0.44445991862327316
Ni 6.84865481448635 4.480828010246795 0.24031927044274745 0.1991172845535732 -0.7965079618720283 -0.07435501787280742
Ni 5.190419006016213 5.826476390849259 5.226167139962722 -2.081636596044944 -0.6633836963798123 1.797544609121188
Ni 8.73898630107852 0.6581174681139574 12.493711188285575 1.4421464184532775 -0.4225734029628271 -1.1594325428239711
Ni 4.859016770808272 7.838315536088116 1.1015856314803287 -2.3742497330658336 1.5454345744206677 -0.07962423669154674
Ni 1.4712474248690046 1.230699927473313 0.9657024580536859 -1.3872070861029207 -0.22044047151138163 -1.5161875046300919
Ni 8.143388174041776 1.4369855493721562 10.01959742210665 -1.4834211088323486 -0.5374685470415259 -0.3359218271108537
Ni 4.688885638162399 4.765889040984994 7.497484558917693 -0.39980345625616304 -0.11719730984931429 1.1396697583747468
Ni 0.9551483531077842 2.142642877334733 3.123400892267998 0.18870714496384275 0.1639098834145048 1.2898527791214625
Ni 5.034018600620634 5.087160226086637 1.8434419807842553 0.6263554399819212 -0.7778569224297442 0.27658796523722684
Ni 8.669089477359792 7.13560845898067 2.7248962218871338 -1.1020830583702244 0.061404628359726515 0.008683129596294723
Ni 3.6129718278809135 7.975928966698665 4.844513226274228 -0.33454345870608837 -0.033329210279749055 1.3500124793304942
Ni 6.938266364831343 1.8550119739963105 12.61931301580764 -1.4493084834193557 1.3859991818377486 1.4789358193674853
Ni 2.1402863876579934 5.97384977082961 12.570688614056616 1.4543321618861922 -0.6695422597820404 -1.0795018306355988
P 1.3739819218338138 7.769661899836646 11.80503264676946 -1.3131374606810158 1.4613404748832253 -0.03632557390391164
P 1.1733926962401604 4.12284568478744 4.354489547762789 0.18912469211723557 -0.6937502244868117 0.8371553030797453
P 5.03002926770332 3.1513967318291383 0.30766755985359845 1.6134801051356793 1.2075813346150557 -1.699789981377518
P 6.728074907680897 1.7112568261967793 6.679319692920258 -0.5080993498507894 0.27427602927459865 -0.7263564405576072
P 8.99392322953178 5.948076824680072 6.367147897877458 -0.7236516400319344 -0.2994175615372327 0.6262027164541409
P 1.365325997155081 1.576927637104207 8.85736558051656 0.585832025946578 1.1430664427611217 -1.5474662601387155
P 2.285117727593358 5.559627128754524 8.535567432369096 0.010895820976897366 0.5618850282126775 0.0513421019174019
P 1.5368302025259832 4.50234257544506 0.473184054841163 -0.629465960586445 -0.6880616587424667 0.971646624122817
Ni 6.698590954166414 8.913932465780407 2.422392528781855 0.4048109367730835 0.688830161477375 -1.269287296265285
Ni 2.5353323991747296 5.424286690155005 6.1931118577318225 -1.4493123400740975 2.4327459295295135 1.9243071940614345
Ni 0.7778327102033792 6.14694970936744 10.031968065157692 -1.0599856149795424 -0.7224848734173428 1.7969877081764536
Ni 6.507761677942565 5.988758742918274 11.88207779842491 1.235938031380878 0.28644171810285507 -0.05414871812826158
Ni 8.664200225156478 2.164806868821863 7.723323478622428 0.19249797946484265 -0.7670683164546724 0.8552671821891076
Ni 2.5806809091743492 3.822114925450764 2.6196622582875664 0.7072462020907174 -0.5597939500116036 -0.9553620280301804
Ni 6.961404495751771 4.83149965119721 7.069066385919854 0.8231304495555629 1.1243477833056958 -0.06370885101287092
Ni 8.690687540223768 3.5536699301891037 5.927093861286836 0.3894272552281616 1.0416366801587094 -2.0344026027586444
Ni 2.8630700146097885 0.045069256695407664 8.84043318166216 3.7718659303172206 2.0478250468121377 0.6426487778253062
Ni 3.035696799708586 3.7216301235264835 12.608463885776224 1.0397379204740997 -1.1798440166007875 1.4452633668157044
Ni 7.763297522205767 3.271123106940655 3.7273627021534814 0.33578915818773136 0.6198780597876937 -0.2933425589877464
Ni 0.812654020060493 6.397303543724996 4.57800630460891 0.10006836347851153 -1.543880085449354 -1.3447435176220712
Ni 1.9902874699669435 4.276991653208816 10.538191218568954 2.9248136798387367 1.8141968729658884 0.40384754441854964
Ni 4.0113391909892755 6.9569976745059 8.37083117668001 -1.2243521263154913 -0.01438352241518168 -1.381261410042447
Ni 8.77200498910811 9.158738344127372 0.9724806130057567 0.45264888219196886 -0.8673647367835902 2.4691728048979797
Ni 7.280606794247458 8.375576627347932 10.54278080692755 0.09907977431299711 -0.17213098577271646 -0.4541794599038823
Ni 8.883353765093265 3.0614140807476504 0.6097027382790525 -0.11165941075022058 -0.7687223071183277 1.086064571454781
Ni 4.784592518104314 7.756005392733651 12.051945449547873 0.40510532808505073 0.10660256505260352 -0.06787455235478633
Ni 4.961115860936303 2.095104872989796 8.178938696846103 -0.8883858191199474 -1.121454778028617 -1.267046065639592
Ni 0.8301078154496675 0.6290834742424743 10.637478292866199 2.417658696179088 -1.4667161373728417 1.3583994178426089
Ni 8.680426604859695 7.110048895754616 8.233076727789593 -2.5394184285881036 -1.066565582189905 -0.8123991791809879
Ni 0.46224400512930713 6.481719683759067 0.4880753996448433 0.07794582054785931 1.3526288339074188 2.2862115612789786
Ni 6.599664775335411 0.16999475312521115 8.326524531998098 -0.4668256879129831 0.2975308860374811 0.17687595665686956
Ni 5.695162395240704 6.674617846588873 9.779962832522735 1.34209373870405 -0.36327116565808404 -0.07021194223871134
P 4.508141024452786 8.41710279976166 6.928460027869479 -0.47285055395082437 0.6203974226262735 -0.7458166061647478
P 2.3807967749800354 1.436419620749002 12.407269765982086 -0.5023431640933026 -0.88201668236881 1.2717894938618484
P 6.64195170425895 8.177529441799265 4.371666873103275 0.29780368008289354 -1.887334216381511 1.0909442681445858
P 7.348045075586909 5.3235885053072405 2.173714214249571 0.8596773954416613 -0.4835679403683285 1.491873867585392
P 4.623293582987008 3.3918143439670567 9.795089826294088 -0.07298539121879044 1.4723147145065416 -0.2369675226321274
P 7.791083689850788 3.29523537729438 11.119205086661463 0.049944707349243014 0.16951180298231452 0.8335940680910483
P 4.725773051369946 4.0851140174043685 3.8666924736703168 -0.9356547794092402 1.782840470141794 -1.3225780372686256
P 4.920907096137131 6.012332917204083 13.352041214745645 -0.8396685564199022 -0.6048461051552357 0.1405508969735902
Ni 2.1867203673118594 9.133930259892718 6.583305727118894 -0.9758259523114873 -1.5042745552425898 1.0084954175200502
Ni 2.9369468937274177 5.68410359329317 3.992824047493727 1.2262133478939463 0.3708273807387872 -0.3530965391179274
Ni 2.7138689635022013 8.125482563505921 13.637381498788056 -1.4367959527746417 0.29941781864754885 0.22199907424775317
Ni 3.985761072726397 1.0574608261592995 6.127594950455572 1.749221496535768 1.1296378280600419 -0.1986534575432772
Ni 6.147756853469314 2.2436008326980432 2.095257024291759 -0.3658872631246925 0.45115429992431333 -0.34905605049996663
Ni 3.386878704171681 3.5211707831906036 5.936136658483364 1.932708787861568 -1.5783480373192367 -1.404179452291201
Ni 3.5334356625317445 2.0282510753103242 1.063640581173773 -0.32774726171986135 0.30131297878773267 0.9147843637181341
Ni 3.0191549843793473 7.322457679805617 10.45491343004408 -0.4690224384539858 -0.12119768925795903 0.5215253934487083
Ni 4.007990006842413 2.13548063312039 3.9150051508026853 -0.5894688513682171 -1.5623506334497157 -0.9966004658546772
Ni 4.079677391614726 5.243866789589824 11.150422080615376 0.0301487556692384 1.4788311754688208 -0.4926542189403128
Ni 1.6036747226870431 2.142976867997578 6.0210983166000815 -1.0736199179335253 0.33640853693928513 -0.49188391643319157
Ni 6.298859795851436 7.3127255629910515 7.162975282793452 -0.023343816932263024 -1.0597210484642459 -0.4321859863519266
Ni 6.632154644815498 3.5216996017401083 8.886600896537592 1.3180189571430334 0.32538853167969767 1.6112429882750443
Ni 6.822056169198111 7.00427590833529 0.875117696027236 2.509640683105039 -1.1313825786652902 -0.6653994412582606
Ni 0.14717391333448598 4.412721747581655 7.920823290584765 0.6255694537455161 2.0975272991332714 0.41800146732142845
Ni 0.34412264070312903 3.2376962081009184 9.908796947459665 -2.095125117449682 -1.0415554332988126 -1.5735614145638708
Ni 1.349229502709635 7.9098359255290065 8.83553186868491 -0.8543557261184319 0.4079147725093878 -1.2709384587154628
Ni 7.32726343434322 5.838620662451039 4.908822200653189 1.934831490631526 0.7285447064581775 -1.1732193121954182
Ni 8.612264677084081 1.1437603024310798 5.5267967743487025 -0.3978723006717212 0.09322100153937493 0.595967314608367
Ni 5.939281737225154 1.0818978096574579 10.713667129572189 -1.9077724296312046 0.3823142983324641 -0.6639243993746308
Ni 5.017124239591725 7.022886610270486 3.36198990552684 0.7229600132815485 0.45052206565695313 -1.6255581193461361
Ni 2.771037031959169 9.144645793658995 2.6603840698549415 0.8086757075828137 1.284623412401723 -0.7142627426178667
Ni 0.32653617680065783 8.093948278422307 5.818641526550021 -1.4365211018467001 0.47919243700845215 3.0863771745082524
Ni 0.2830236876948443 9.165158386868725 3.9236684974961484 0.6102950440849488 0.22191834160848878 -2.7446585382099635
P 7.893683765973086 5.938372540420743 10.004919460226455 -0.8248127223539924 0.7204516450373979 0.1926998110630036
P 2.3798504681019748 0.5620107271284704 4.582595892967505 -1.1407221108986614 1.1490038912914793 0.7411575101261816
P 4.646496656536322 0.6181434245306183 2.1566732684297465 2.223154227807178 -0.6094226687823247 0.1557754272328285
P 8.774825354705468 9.268203783874817 8.177933941602044 0.5132163593623806 -0.6377775657759338 0.061153174470552754
P 6.995573596064497 8.885274211404624 13.360866918011324 -0.6097234878521951 0.18428227642326972 -0.9858128883208699
P 4.759376223059517 8.687820787034347 10.015985684188717 0.3972112700489547 -0.04445797320305892 -0.17376697871424265
P 8.296318787551133 1.651082841774207 2.3905511578387917 -0.24521613579416476 -1.162225789298392 -0.6943444064273848
P 1.501594187595837 7.6294600415890494 2.417354836283943 -2.154538683521309 -2.3794027380216827 -0.8049596921838073
