# total energy = -340855.16151668306 ev
CRYSTAL
PRIMVEC
9.42303820769503 0.00000000000000 0.00000000000000
0.00000000000000 9.42303820769503 0.00000000000000
0.00000000000000 0.00000000000000 13.79156891226100
PRIMCOORD
 96 1
Ni 2.0399652082906976 8.461190739488433 13.701620101547594 -1.7444891240571052 0.4070927908287247 -0.4464196134528054
Ni 5.95654726268074 8.198193751385714 12.196600755478014 -1.7283181707241977 -0.5157938902815697 -0.7705351919573504
Ni 5.6186277001457485 0.7061238266129184 10.862983642102522 -1.4336988019065566 0.9507001037781369 -0.3698986982769307
Ni 3.4424524788480713 2.6323633326566465 9.40255316912514 -0.8751304967719379 1.0351107061147335 2.412818337367651
Ni 4.832567300627987 1.7284584210209126 1.8631720556075873 1.0994325081212548 1.213174255321801 0.35901650414678815
Ni 9.333057322225951 2.1752046483928194 9.601386807482642 0.8723326223118267 0.4750020530761884 0.9607999112163
Ni 8.873561724560135 2.9663440653447397 6.24109850770163 1.4859194497741701 1.1624044809681013 -0.8184983501001903
Ni 1.9342387229265803 0.8028155032277382 9.459967739118328 0.3642718390084565 -0.2609011506295894 -0.5373335641255584
Ni 3.0069762048180078 2.2031722249133807 12.231686494836726 3.5246566753524267 -3.4614972690851227 -0.21083740120397884
Ni 1.741688366248294 4.9483293213675745 9.357220818341744 0.3181195088221102 0.5154581042087059 -1.2236900672514603
Ni 7.731197415542553 6.927629011585706 12.743091723747982 0.779164071276942 0.506452815386302 0.008567944174669115
Ni 2.260888332119728 5.5847895710064845 13.063166879390458 -0.3520362161742131 0.8655737063214384 -0.6259121817969155
Ni 9.030558959199311 -0.03234080841516813 0.6576620849392002 0.9420712244585453 0.5926333651391278 -0.7181556499143698
Ni 3.660039847256523 4.696046327369936 0.6592950974092181 -0.9992726133702017 -1.5056531807576714 1.7406584374571055
Ni 8.825485385136988 2.1113164513546097 1.9674916814115564 -1.2781496317519212 0.4844662838128818 -0.7084085978299348
Ni 1.6591896693353847 8.913524828341707 4.219337666351659 -2.9686569022759324 -0.8087767519370522 -0.08479138271478301
Ni 3.4176887352173315 8.898985080844662 7.822867555254473 -0.14592913056636805 1.6690835534325965 -0.8696211369179345
Ni 0.6968251728021064 2.6155243639092602 3.892146232478614 -2.6322365382621054 1.197710612468563 -0.2079289693079322
Ni 6.966772311069 6.2554271791494624 8.327900925930148 -1.4546206396608883 -2.177625904358076 -2.050000971417534
Ni 6.6542478357048 8.794219745347492 5.041204667628342 -0.1864358324311628 -0.3699249235291758 -0.029447615837155734
Ni 2.0567099466589718 5.8623734217958035 2.0312771673365337 -0.11698853627261789 0.9395541144636465 -0.33702174504325183
Ni 5.4192456409818135 5.626740935787327 12.78911478321027 0.7856165117705051 -0.04597286718568856 -2.149539173424188
Ni 7.348386500398412 4.565904750777795 11.445898421114599 -0.43650004034624823 -0.09334107205700698 0.3522791854229546
Ni 3.459847406832221 0.12031805956967286 3.240715602510117 2.835959697018806 -1.8558189193820487 -2.5892176114984182
P 6.404047333085546 6.281632647580622 5.990326026681163 0.853270206363737 0.749945797841773 -0.3304466629288954
P 7.559245819738238 8.091883037671101 8.89276210660808 2.511368464429423 2.0388966339742565 0.7691318838519206
P 2.5319608637123805 6.814448903233798 7.902871974032276 -0.21059520328618567 -1.6321334585708083 2.6996976572285565
P 9.168681848902272 4.9881133874288315 9.989922218157862 -0.035592552392629026 1.316300688900346 2.1856174072039845
P 1.6949406751706306 3.5150569859541787 12.07473920229848 -4.35472987477441 3.8914456243557813 0.08117486900811827
P 5.490643999235281 5.7838041316918805 0.9745739267548724 -0.6897591010495476 1.2620709810225037 2.489370362891777
P 2.801836669490305 2.685763688499646 1.7671550685072124 0.2988706878948272 -0.453155132404426 -0.17373098326998468
P 5.002530635433029 8.02266140117513 3.5742920868718175 0.18203847469441553 0.6258623023955867 1.1960712770929274
Ni 0.12916252295316308 5.399796490733014 12.674313912337631 -1.8363793226001988 -1.9005376024456626 -1.1619825629393343
Ni 7.627760728390867 0.9059892876217004 8.953748007969628 -1.0422061795089341 -0.202172012219497 0.4096998894342686
Ni 0.05673422665599611 7.079028961705606 4.695767405447763 -0.1505352618798117 0.2971832728900753 2.8187237927564937
Ni 7.964945293968782 1.7280909225423742 4.419549895155574 2.2002798943121653 -2.5461801727919697 0.036609166582601466
Ni 3.7725226508029994 7.119133411055845 0.2594548681518839 0.9877679551647117 -0.47061600819335075 -0.24953533199480896
Ni 5.978936400757847 3.108320977553398 9.622446354910473 -0.0845224453241125 -0.16272306219525526 -1.5644471109674283
Ni 1.0149742594955244 1.739954527272626 13.632703771479946 0.39734162497923187 0.19433169023947178 -0.5031175803654819
Ni 4.536985447428198 7.080169149292866 7.005799707185983 1.463141532647706 -0.4154853857677941 -0.6827569587001016
Ni 0.3518552933019249 7.171346464122029 0.43619054030373516 -0.8782333040669779 -1.7508646885661459 -0.4946326828229223
Ni 2.790152102480367 7.72472378849753 9.708298711015992 -0.11077006616673182 -0.1606965186835297 1.9061179247469175
Ni 2.9842289913002737 9.116289758115776 11.63100928936196 0.29222258645069027 0.004194754807637937 -0.016246286655533314
Ni 0.13790992904616753 6.506353255687882 8.114683020201138 0.6879032787877314 -0.5523128111432101 0.49421307878700044
Ni 7.508719490458167 6.551772298420062 10.417819542795913 2.177904611940759 1.8480444176429527 1.3712852726663416
Ni 4.256405070583105 2.2215283027644768 7.3981278906204775 0.3293750271312714 1.7141151397509382 -4.034426470927103
Ni 0.11804333821789942 4.467481119794889 1.2205990812756564 1.0082285370119088 -0.4923333452657843 -0.4771738639165266
Ni 1.4626722136964663 0.9253847265544064 2.121736446676859 -0.06591614307683487 -0.018433267004523093 -0.3734925862757761
Ni 6.831146526412516 0.1546980133888334 0.07119293602700336 -1.2152321662920942 0.9601728191552624 -0.09314541110643314
Ni 0.7718429199172823 8.931551099865908 7.270142305102427 0.7516764073796345 0.7667518136555181 2.2823880737678306
Ni 1.8105425042657277 3.3184735690498814 5.942235552701148 0.5458416015965696 0.1870305285923682 0.41527789774267837
Ni 5.399183993268782 5.764910940679845 10.371673041536987 -1.1997929489188885 -1.3978684224715086 -0.7576891892326176
Ni 5.896400011693292 4.5035996241086735 2.6160398040830053 -0.3117197759433534 -0.6343063193978817 0.33546545629972546
Ni 8.07341388336507 7.587496087396137 6.623359117431755 -0.4432435297176689 -0.28468128376832263 0.46033699486484597
Ni 8.072094658057496 3.9569315027259737 8.615744580397225 -0.4568678053693228 1.1751386407053181 -0.5714461895385513
Ni 6.157568930441231 4.490256602426357 7.075667764082667 -1.3672499262547033 -1.657062360602004 0.2562345983918555
P 7.308621280412978 2.457500018137759 7.398900579729198 -2.5936990443085395 -1.6064879900885622 0.46213830973964276
P 1.703581600935238 8.13145979689831 2.105062381092919 0.0700245088182536 -0.5806278560378194 -0.3012502438705973
P 1.0017254681923204 2.293661657975022 7.789546750896535 0.8951838158783872 -0.4945213540560386 -0.14575043889665867
P 7.913288200139362 3.738298177109374 -0.040996811040433546 -0.3007095408757789 -0.26114309143706643 -0.11862632898635701
P 4.015995104353628 4.693473838020167 8.830824478417496 1.0931495033260206 -0.8565020830374733 0.6353640712384349
P 0.7225792777173176 4.683852916312791 3.245032296177256 -0.25189663313813393 0.2444298924474435 1.2543371027133559
P 4.189539193564943 3.8171878505022785 5.154667467117587 -0.2235553629912795 -1.0238978681180495 -0.5000610529273452
P 4.743547861480499 0.9572487292512657 8.827790260210076 1.1034210604553578 -2.0213637672968154 2.1466505390224833
Ni 8.650951876944992 2.8400565112582963 11.98068032247606 1.9320392725983695 -0.6443567616553483 0.01139204388702554
Ni 8.676186772471294 9.245489030916794 2.9637395376660725 3.347048725625539 -0.12524794806793269 1.615718764658211
Ni 7.741289489145491 0.7362992209160835 11.582558855333735 1.063764365295684 -0.5637927867583516 0.19586098239980462
Ni 7.903563625014962 5.228476238468752 4.213089249912715 0.5227106720060611 -0.8650378884226264 0.8127244237308905
Ni 1.0005098963017702 7.294175763295046 11.225867658975762 -0.08143712153056942 -0.8825923523666218 1.2955436588586524
Ni 6.132597879976443 2.500893107719021 5.506586837077309 -2.0226614030623162 0.28619077843431356 1.2622147056892197
Ni 9.110928049544281 6.958159654418125 2.66953721721649 0.8446868355701002 -1.379325369361999 -2.2942028070145715
Ni 6.7692654364494 6.702343021203771 2.766106394338464 -2.7629023149114995 1.4650639464813995 2.7916734735069215
Ni 5.466907366736867 7.931305048625654 9.581167795036492 -0.8869488295631046 0.894909222060762 0.6858507671340769
Ni 3.279876805765441 4.739825761505559 11.065333958208496 0.3387788369436746 -0.41500253259410463 0.2790461969697324
Ni 0.05980425240747823 8.903423331700855 9.900235627926257 -0.9874640507710478 0.26560575519411034 -0.5073719847664616
Ni 5.041268744286138 8.592962501639219 1.4998329060032338 -0.4641054607683427 -0.5678975529553445 -0.841047696155616
Ni 6.176490390567002 8.925793623702141 7.592934122574714 -1.585011051161709 1.1482618709191321 -2.0157446213378254
Ni 1.9293858584022912 7.219507610886378 6.11125092989232 -0.5366910454455531 2.8140574976290766 -1.0910890212525661
Ni 6.638030787459556 0.09728155878806348 2.6757432299848327 -1.631228944478668 1.7861638780880722 0.7434805018324036
Ni 2.248845689669163 5.616799630790968 4.819725584562549 -0.11201550853805868 -2.7042716497524846 -3.071410783006407
Ni 3.4916407367447464 0.5793208323527299 0.3298628651208809 0.47304672912203044 1.345532846292586 0.07609539760268186
Ni 5.570089631864949 3.6255044133118273 0.29371514938957166 2.2023977119861167 -2.0159425962812443 0.0740220600134209
Ni 3.4158418197867286 4.9720188386764335 6.734975001490397 0.24709561220506476 0.05883223964685997 1.5341772563392932
Ni 4.903334315341402 5.9393407954548145 4.456427896325004 -0.29321040428525635 -0.03478291200714009 0.21815321813910174
Ni 5.207472286964597 3.367030483406503 11.710282480397852 -0.09728128765167762 -0.5749639728838226 0.5882712315156902
Ni 4.434933946849465 0.5029593600314112 5.393344536675186 0.2148794324838364 -0.19942041761628884 0.37297245210624796
Ni 7.680671086262482 5.788402574192566 1.0113303707352477 0.3843642388829574 -2.4498494219790197 -1.8244843709348255
Ni 2.634728515172368 1.9005042472043396 4.084869030750675 2.633213043242762 1.3418636249711147 1.4565003731821045
P 0.19241278032478193 9.1956976985938 12.149462008327033 0.6167413139309249 -0.11537825436270452 0.5754452833956154
P 6.511224966287994 2.668161453681449 3.419812687962525 -1.0320138123569647 -0.5094975157498967 -1.9155880690208815
P 2.3278295934411797 0.34939211119192665 5.951392860943291 1.4077807964892142 0.8683777514291368 1.1808758002994113
P 3.915064945286333 6.758070867410847 11.785336977360883 -0.9818770436015734 1.788999033544022 -0.8454417114582536
P 5.045509111346197 1.4861167320196322 12.92595425514972 1.0943314394492636 -0.2822778165331526 0.017178825772131704
P 8.931032832780792 9.263279726493215 5.704882419970079 -1.1241127844767544 1.0216373542186468 -3.360757076350567
P 0.33898530812275274 5.232386799201916 6.045134184388102 -0.17428891265598373 0.0590960348312079 0.14982538029698067
P 7.553705073446429 7.861970335674747 1.2649203400911755 0.7694861818675457 2.5661265340069095 -1.412715000566038
