# total energy = -340873.28156549827 ev
CRYSTAL
PRIMVEC
9.26114339227103 0.00000000000000 0.00000000000000

0.00000000000000 9.26114339227103 0.00000000000000

0.00000000000000 0.00000000000000 13.55461948531004

PRIMCOORD
 96 1
Ni 8.000099940955046 5.777647755722186 0.35644844974728085 0.15697176153377482 0.37807454921950373 -0.5426704029574396
Ni 8.718848030946283 4.0852756440224 12.362612547803055 0.28752003876869836 -1.1941578621202984 0.01386955889324063
Ni -0.20862207635707972 2.149057622576718 10.519848725948936 0.5770347393699223 0.5283383026054836 -0.2022452886595936
Ni 9.167133684620802 7.015381069270213 7.87328247171443 -1.0735222160133961 -0.0458355702768759 0.13099719184688408
Ni 6.052388840360308 7.836825980118732 11.272035100852005 1.0645475233186117 -0.5145849575751331 -0.20729879192310102
Ni 6.772878025339477 0.6335196381032941 10.630021141882057 -0.23263624224662516 1.5373672240315006 -0.5073043647533199
Ni 1.4946837414211718 5.302578874892895 6.895207544414394 -0.22045306991687194 -1.258734203339787 -1.83203518669889
Ni 1.4178625556504838 2.9327078065861567 5.017161543967075 1.3709836822655228 0.9094742643591305 -0.8619386806720123
Ni 3.7385013848304007 3.7406962758524207 3.799115569383644 -1.0497852774077727 0.3476136616264852 -0.25578362689736595
Ni 9.130311377854769 4.708856222864802 9.939290789481186 -0.3923166609608147 -0.5892451653931852 -0.6984985378050744
Ni 1.2369553774895896 6.568975427736916 0.8008249747281533 -0.7753992049178711 0.5447182866254039 0.5449003207292228
Ni 2.417417779306944 4.6945477560756865 1.7497523049243822 0.054987411979473044 -0.23768511752444224 0.18215057479224758
Ni 7.172876076529564 3.0904343424343286 8.174560437088818 0.42573714540278934 0.5115065757601256 0.8386162038959878
Ni 7.1667081549233815 8.578865846145325 8.641788833786288 0.5921173447346576 -1.110505735216281 -0.2523494044048364
Ni 5.880816894900662 6.7487527463843655 1.6739952245479137 2.2848666172153096 -3.439119158500238 0.8859797807816161
Ni 5.267303179100181 8.729072333428602 1.0922926107370337 -2.2288543635157483 1.0001197918618454 1.155315949552436
Ni 1.7717586342346061 8.09067392490168 11.893894033107937 -1.010700395591169 0.738650941654244 0.21088933748783678
Ni 5.6553821385377825 1.0008147391796443 7.963027583313086 0.46267232786624185 1.6032759109091677 0.4024033557728554
Ni 2.6627732554519508 0.04072958323097142 0.4568911082638055 0.10270271577756505 0.268508273552886 -0.6422230031417971
Ni 6.103714097930067 5.296623959588427 9.028949087783449 -0.824315985223232 0.4595906036171246 -0.010669821009020334
Ni 4.846976917811642 5.665411957005492 4.142671581191036 1.6269866242625464 1.488037010337805 -0.3806006580754671
Ni 4.578681589086286 8.039172705604416 9.113583900369656 -0.29671944587977933 -0.5373693024595003 0.8822131146503321
Ni 1.1917146912340368 2.450081832617759 2.461301708032008 -0.6919077719614342 0.15680181161481382 -1.3500389616930557
Ni 6.248132370492828 0.6515084833403024 13.148889192124075 0.4504585594088693 0.5159119039166727 -1.0435765774938994
P 0.5309885917156073 7.461193997616128 2.822369616183438 1.2314601981151823 -0.1094973701018953 -0.21487531871877832
P 0.5013501540034998 0.6809320625219845 0.7016159005328649 1.0457424747969668 0.1120569032989554 0.964330807187694
P 4.8467268669357155 7.7131526691143 3.158009202481875 0.25695193617385426 2.3593599604381947 1.9320714113878854
P 9.480910489334086 4.309089700263534 1.4365459866539538 -0.5946341976192404 0.42354630839905766 0.30431679861106303
P 7.0834597355270335 7.694398853419828 13.343790884307642 0.23817491267666724 0.8458029514524144 0.29773606006975173
P 6.987680988903711 5.252985451167514 4.796817638215184 -1.0181295981757046 2.4073125770580734 -0.3694086460143896
P 2.976337053863518 5.4104248915655475 5.248077971198872 -0.4436145399038424 -0.7009961074159475 -0.7813860186289252
P 5.111308477096388 2.1428804398269836 9.727459726883051 0.25261062848602306 -0.2366646466797279 -0.6233192242587587
Ni 1.5082698390131668 3.381437995151212 13.436626439509878 0.2318019192707879 -0.6094671488670148 0.3357428783308282
Ni 8.912785638086003 0.1388060195697491 12.298906067417523 -1.2446306740588695 0.7315300143387465 4.227190045348507
Ni 6.077042004497929 2.00464861115751 1.9803566316184482 0.8161709875185944 -1.0499865947853015 0.17253104942461256
Ni 4.384614325936827 6.329574866896377 6.531049192659385 0.140984384966583 0.15236280200685373 1.7198337874022702
Ni 6.910480096247357 7.49325607659601 4.0935495496724945 -0.9575994020011314 0.2495625856883186 0.00960949806530603
Ni 7.07525436233923 4.20612430624322 1.7226569772318803 -1.118735579325241 -0.40422292548009736 0.991093419993519
Ni 5.816859437524849 3.2695633810330795 13.334153738326574 -0.15196582367875117 -0.33294731786356213 -0.3645382052959657
Ni 0.42301199291885916 2.4788562056363883 7.852150394355593 0.5739918387785405 1.871994243590331 0.5522716734926296
Ni 1.9263734258490282 7.330334039214703 4.645113624019414 1.0513001713904024 0.571845738969815 -0.3841999453909512
Ni 1.1271274760966317 6.727155759619176 10.041424532810456 0.6638004722022568 0.34672585970489317 -0.895587221964393
Ni 3.6374437863819686 4.586025675923677 13.215442548037744 0.14855911199004737 0.5715742304759833 0.2304024678201
Ni 8.46625960168652 4.008111795940258 5.355159017414061 1.3371644197232326 -1.4073555360263375 1.15981512297437
Ni 2.4789025113541525 0.4985393969352172 4.905254515846507 -1.691564508143932 0.04517222566126414 1.4835974865092127
Ni -0.08475335522368288 9.104741360505418 4.104812952461441 -0.41735740597952636 -0.8345705730717048 -0.9651476466620345
Ni 9.065761207291574 1.5650591712790929 5.589003818237261 -0.7664733631831508 -0.3625877664378142 1.0399870603704284
Ni 8.985883844148454 6.424918339772715 5.116462303483536 -0.4860637102069887 0.7047951694470637 0.7907191231043931
Ni 8.242714118608417 6.085580778853635 2.7281115493314902 0.027980801483642136 -1.094713505379031 0.02542049695563364
Ni 2.2226837138216813 7.305838314517479 7.4876799420628535 1.2334790283174242 0.9468611896480209 0.710348495165125
Ni 3.5349877552570597 0.06101982264085688 7.440537016921551 -2.3205288465036102 1.8847443441671474 -0.7457649269912059
Ni 6.757810144779029 3.236584448841468 10.7785383965813 -0.5452661887090738 -0.512381265055595 -0.3936407790888769
Ni 7.215940394050203 5.423177486237789 11.22304920814369 -2.291259151005215 -0.5829577897225767 1.5429233779630396
Ni 2.114115327951908 9.133663911820891 2.682906981535793 -0.8640451854920538 -0.4743528495279637 -0.2931924065631273
Ni 2.391718105947853 1.7704991187114218 9.555654400605874 -0.043136683288474094 0.5428606645913748 -0.9340406408445848
Ni 3.951035368224194 2.938996123058525 11.37864197651729 -0.759971300398575 -0.15826631197548227 -0.12023763933753485
P 3.670015228257256 5.8159240620260135 8.821916223660033 0.8462210128264394 0.5079137162025446 -0.5140370554914632
P 0.7384530251285838 8.460369514386922 6.06908112549992 -0.228594982297716 -0.3590933801313106 0.30370281917614794
P 4.1191992128564 1.457490988913024 13.052313061040854 0.33441104689328216 0.5623290577286316 1.0944826203151474
P 2.36125820480261 2.3538770733910077 6.841368812484397 0.9159195057638418 -0.5769915448368127 1.0817212068844209
P 2.9835237012605105 1.8029872102947335 3.23639552151299 0.32214482793141935 -0.8659048644086119 2.0653759112117074
P 7.633951369450536 6.949219459728827 10.00153400918537 1.4370682325994217 1.3268144439474763 -1.9587954576462914
P 2.349357635337229 8.87223109046818 9.902964880009582 0.653027549956469 -0.40701565773388615 -0.4620460071361526
P 1.6054377571694123 3.7142001441477865 11.249155445704748 -0.4341173990466846 -0.8476263778143982 -0.835726798163335
Ni 4.984134453828989 0.9420713056240718 3.91057528427061 0.8797494836011881 -1.4982016095756328 -2.8788726943322485
Ni 6.686573428570695 1.9706139086008758 5.974930487913186 0.08335722137141774 -0.6279358970951637 -0.33298537019034913
Ni 6.136655985547468 3.386383445808421 4.292070496756508 -0.459421425029112 0.28343404162478286 -0.9931595584939281
Ni 4.320221594814031 8.397977190271536 5.163293128087108 0.40292991770028674 -1.2772903690754196 0.3680585597443984
Ni 0.8812904204868779 0.09960267279628335 8.024023326980705 0.42284002636065243 0.3451387177234314 0.22739427712139546
Ni 1.3891530106367245 5.10174171580632 3.8646798351658727 -0.9094742643591305 -0.33639568142347875 -0.4763367127272119
Ni 5.81263635606476 4.380724645644641 6.802697981465219 -0.07439229886864607 -0.7973762234095945 -1.5523343868642943
Ni 1.6115871564884883 5.700845092238603 12.208252437636334 0.06695538297462662 -0.8322725210661474 -0.4346868983969094
Ni 3.777814939212145 6.745066811250341 10.942332833685283 -0.06036178891750895 -1.8025718871324503 0.11530883457734979
Ni 4.125941325362857 2.0641144139102026 5.408252227288054 -0.6808255460053436 2.0852829345482795 3.9534734881218037
Ni 4.009343528032783 8.93758698052047 11.82843904881963 0.2422801930942924 0.8715841741815764 -0.04447005738791696
Ni 8.728979721993074 6.956165317393446 11.969095444871234 0.9550288130604778 0.8716602788351504 -0.22544692358703755
Ni 3.891847399778086 2.686639222387582 1.6311226126988183 -0.08552234734353659 -0.4936320094725499 -2.7120605496692844
Ni 2.1006218417954408 4.399330283042267 8.879156573616983 -0.5076378368333386 -0.9396549017075688 1.5204390808175945
Ni 5.369407286770083 6.399515023007315 13.015565769537599 -1.140357785580707 -0.7058539497288812 -0.19685445666132548
Ni 7.5883031928786595 8.847874282924248 6.095526320915014 -0.15158967128625506 -0.2114801769943003 0.26161540308779463
Ni 1.9903771889426056 1.4427842929511374 11.904439697271538 -0.11780846107075195 -0.3406441722871876 0.40839634013149667
Ni 8.319803877542137 2.345968056796895 0.776841391269401 0.6250351785086009 -0.053813703386346036 -0.2770227387818003
Ni 8.237713101089891 2.486061375320487 3.2306758392547654 -0.28423391181825886 -0.4473423823773909 1.0303940173653545
Ni 7.858506317175896 8.914498949643276 1.5698286602087979 0.3062155582956726 0.032573820170963254 0.2927527479225474
Ni 6.915703381211151 6.4718167707242245 6.761233989550509 0.05186120764566552 0.34287023340422884 -0.03231439586198951
Ni 9.412841084220817 8.965407455753157 10.380764872072602 -0.14324387042472106 -0.7826507442739618 -4.299967434321549
Ni 3.3598687918166816 6.9420235511882815 1.98252559143852 -0.8361482019714697 -0.17267965918733486 -1.1318492338890636
Ni 4.088192904241541 3.2620433324681857 8.062924760474349 0.42765673102300544 -0.4101776004016356 -0.04412115868893047
P 8.04511835976533 1.133323181133472 7.711751458094758 -0.5417044394997445 -0.09666885087865933 -0.27652985830578186
P 7.664744671763681 1.913389302587967 12.26767656524304 0.382128150463587 1.868941058586304 -0.8070636259006874
P 7.071235026037304 0.6366749097117418 3.8660347404676507 1.0664871635434858 0.7076786616424457 0.07501013495830307
P 8.797382528274243 4.874973354771834 7.554192548944892 -1.569619656307303 -0.9209030750213623 0.5871597436190662
P 5.081413505707867 4.803875555716791 11.545811174331922 0.5926009692392956 0.1994813527612113 -0.55294041742488
P 3.1643660514165344 7.25641159137605 13.213083734774841 0.7442703447235504 -1.0753466708166448 0.8474728829556696
P 5.330973541025857 8.321017087347556 7.14336636871284 1.9939084992993403 -1.4893269327938221 -1.311007815932523
P 4.83612285756773 4.664745396122694 1.6316782813119879 0.27678465462906526 0.40525599473030205 0.2531670152101253
