# total energy = -340860.78898202576 ev
CRYSTAL
PRIMVEC
9.37360023598352 0.00000000000000 0.00000000000000

0.00000000000000 9.37360023598352 0.00000000000000

0.00000000000000 0.00000000000000 13.71921144339747

PRIMCOORD
 96 1
Ni 4.212467746041208 4.948061010728297 7.278137390535192 0.4680161086766585 -0.009017630117578017 -1.292287099594568
Ni 2.341497174119666 5.15994186647837 3.984690201949844 0.2666851043012181 -1.0502622170441913 -0.2856683302719403
Ni 2.307892817905544 2.1239077959332198 4.296102755214117 1.279134878483326 -0.6250482911347236 -0.4360225864891975
Ni 1.9333050123187274 8.653154532736593 10.20978236401519 0.16701809002618334 -1.936611208239768 -1.3298961681965933
Ni 0.0554954617936087 0.9147818155088516 10.211291513624808 1.0174971067980283 1.8780239947241786 1.4511198255964814
Ni 7.529034919173872 9.103481026806007 2.995438883406484 1.0216427535352857 -0.5934502046134683 0.14743811101172674
Ni 3.542217847370477 4.191377145906822 1.8667177695744437 -1.4612895670406316 -0.219135636657029 -0.4544949342617721
Ni 4.62604972787649 7.397673287936857 6.011086311181733 -0.061416198323952294 -0.19395450940571113 -1.3305885662779278
Ni 0.16120623646718177 2.96321057168113 8.30670814924909 -0.21845557987086892 -0.2606430118721963 1.0096842956218288
Ni 3.106101730991611 6.926228072932879 2.477099422023703 1.1469243830546312 2.1271492357647626 0.5598047486448811
Ni 6.843159229203576 3.4322561450698177 7.201364793966008 0.5105724939816304 -0.33794914195352765 -0.9370313480417927
Ni 8.463704701929448 0.06419135056901759 8.382945513254862 0.9279720660530018 -0.3223466595295803 -1.894394208552086
Ni 7.4378766585930265 3.631585750339916 0.43022199666130956 0.11220936971641965 0.7115368590462713 -1.3520899306848133
Ni 8.678097682495528 3.132141591957533 11.90610776906392 0.038405339251075796 0.17007410324368774 -0.7966185193079635
Ni 1.6608238321825186 5.72885377490339 1.469890160485918 -0.7821563211360465 -2.2295542177962506 -0.05902147283953061
Ni 0.6685898341001534 5.095592102068343 6.596196737869969 1.1642757298488853 -0.8226612232286283 0.32935574385756183
Ni 8.994278586110184 6.7665675431155465 10.113446126761351 -0.13332686842132524 -1.0066105417925115 -1.1285782764472758
Ni 4.1915739915080765 5.4778850069042555 11.455500066992716 -0.19738821767760842 -1.522683910987713 -0.8771305579211023
Ni 5.725001225278843 4.921121284156641 5.230806282929907 0.8311810877741814 0.005757214198751375 0.3890356762166977
Ni 5.0816535587795295 1.240980285507339 3.0784261768152663 -1.7004165592179232 -1.1082076832107237 1.4869157522491683
Ni 8.275876503932635 1.9326769811147257 4.134174751542337 -0.4344704115107291 -1.0312766770806239 -2.123060924628002
Ni 0.7996449486152168 7.114168754130409 3.6865028610098394 -0.9486524772204887 -1.3526620011381993 -1.1137363263384368
Ni 5.507215001491143 0.3159221922530085 5.496368808862032 2.9450793720663087 -1.0274459904806241 -0.8533370550459304
Ni 8.251589506177881 9.198210629009608 5.5032827762660865 -3.721098984176998 -1.2375665681232364 0.36673881249171036
P 4.523371312822238 8.183284082542649 4.028715189350365 0.5743062846951658 -0.2373130788970042 -2.406085903739824
P 0.9257048716584516 1.7514009295596622 12.269955303702302 0.6404473992986132 -0.41993905066377346 -0.7964799368475702
P 2.706270820443949 4.175751354607256 5.9127056917548675 1.3917720797657835 -0.19929391934075352 0.3293824833304392
P 2.156087364938263 4.606065212549152 13.074765105950428 0.17692994982325658 0.5047000943612534 0.44634299457859905
P 8.481317696441675 2.146329447276087 1.5380877877204628 0.632865216075981 -0.2732267620744778 1.5651955590976787
P 8.40454791195251 5.782077076042522 2.5986243973580416 1.1201604846972255 -1.0967421057732853 -1.090694871137941
P 8.207449223496626 8.64226240946719 10.61606324876395 -1.1382651647177364 0.725550399716544 -0.290412529825145
P 3.2093613092495654 1.852345228602864 1.6492689953888928 0.903650972809134 0.4803954561776178 1.2748431930865076
Ni 8.99888102373951 1.860997061457992 6.306899319226609 -0.5128803161792006 0.46907925983385024 1.5968579231979658
Ni 6.518776425536658 1.1352554504336763 1.470136686167489 3.3183966091064847 -1.685608290560497 -2.2027540668842707
Ni 6.341830977209189 1.035801553799971 8.160721827198886 -0.037072222261949055 1.3997733528037055 -1.4985510224952514
Ni 1.8751793183483594 7.317350909025055 13.381499295424891 1.50865777191195 -0.6165909043959896 0.08736402853796567
Ni 6.504716025447068 6.28374277763906 11.169564021330775 0.02932111756162047 0.4361262019465973 0.19554267982843743
Ni 5.0614815714509955 5.840024671611755 2.9546787209067666 1.0050043736476564 -0.30339377257616135 0.30041309268128263
Ni 5.6186483590011775 7.961964011532432 1.7566210874329242 0.03522976973657158 1.2549464541625808 1.68473874347135
Ni 0.8573741393030585 3.0599180034973354 2.740892212264551 -0.41602865986577386 0.4632809079845183 -0.4133469992685527
Ni 2.111309677452946 2.1985403996087673 6.705154527604232 -0.8700335418650049 -1.3664117466241241 -0.2975216300661005
Ni 0.9235086371644574 9.28407280555671 6.18334495947934 2.0161559978436308 -0.708204966459561 0.3697745139942406
Ni 0.5414444481700023 3.3716558206836815 0.4013784919175231 0.29873261965506615 1.328867469821763 -1.155074265855275
Ni 9.141059789445452 6.533202396028579 0.6806817781772014 -2.0225025088869493 -0.2343838210653512 -1.2016598269242982
Ni 1.5560176099147092 1.2279603550243778 0.5408182916860125 -0.7917941013361267 -0.9908507078550935 0.36227332052118905
Ni 8.808756293728065 7.056783574564759 7.680027681015976 0.5085030130471113 0.18706138183030363 -0.7475253613257384
Ni 6.792963600883738 1.0263904593400048 10.391657388614071 0.9094850629924079 0.3084647593411655 1.374447215334091
Ni 4.446639022733312 3.4621954236605865 3.796202102508826 -1.1371840158384157 0.3083824840400044 1.0499022626016112
Ni 7.945972649830537 4.882492678310506 8.593453136596185 0.3478913407679041 1.6446434181123608 0.041129680160774326
Ni 4.42266135378053 0.5393063299963784 13.796587614789772 -0.43882251783183773 -0.485090547660442 0.11518773561845323
Ni 3.270102237636597 -0.007211110525948107 5.338501448736125 -1.180171318033219 -0.2364098503564445 0.5832084722808021
Ni 4.279638964069213 2.0587706491181756 5.819249961799382 -0.47265232189708917 1.598591618059621 -2.097546325296665
Ni 6.551837112947316 6.75406316063587 0.017777969873278537 0.5993902242469871 -1.0789747544875354 -0.5485132348914618
Ni 2.58253929965555 3.5911480396822526 8.37187435422432 -0.10058386966234935 1.4153202993993688 1.1886641859955784
Ni 5.1314461222968 2.681112077883641 0.9757814552575319 -0.9843668999029627 0.5080659255096927 -0.5061383694696767
Ni 1.1236415599596743 8.428638064106009 1.687600458113135 -1.5543989827028069 -0.45187009504441533 -1.3235283169970367
P 0.6593896456415312 5.012907575941489 9.034553196126808 0.7037549011080073 0.41068924993073147 -0.43348156523489856
P 6.604423009282385 8.649948761516168 7.022370276665483 0.4643250329783165 -1.3803962338286742 0.36285490405627185
P 0.5829160669142531 3.215229182886955 4.992860257493752 0.3541036402262031 -0.14273941998447673 -0.1862039189260148
P 8.156222499170218 5.772975310384526 5.976088100638731 -2.026679008862142 0.5329536898903079 -0.06100765003162396
P 6.232112988510082 1.3377908269242011 12.636559614118248 -3.790981310990433 0.9049655778554996 -0.2253368803717345
P 6.257206115869972 2.4644319389029876 4.716020353329769 -0.55311242422637 0.7133430590170747 0.5949165047463497
P 3.916552565755681 3.357932870196241 10.303224033570588 0.46904017906579865 0.08893548679014361 -0.9148303864647213
P 3.9435579075277554 7.632528837433321 0.5374381715044748 -0.550831084391361 2.398073317847993 -0.7046424459192833
Ni 2.346737016553054 9.144846723869582 3.3981249925323387 0.7291370886265378 0.8829427937275051 -1.1546243228020503
Ni 4.762923035948626 2.7610407655929348 7.713256155867703 -0.3838937270044421 -0.19512821799883814 3.1007514409520534
Ni 7.441897933018649 6.808870600185095 4.037371709005523 -0.7997380387735518 0.5090583713299491 1.5084238015242732
Ni 2.5423546761995 0.08860864136460087 12.187940989979719 -0.15105282494617855 0.6842633680422989 1.074385078234324
Ni 4.292733883352652 2.9137273369658305 12.433583678424917 -0.57913353088048 0.6916408914532927 0.8317107350254064
Ni 2.4419821667599413 1.478760398222438 9.82192622754383 -0.7481748219842792 1.4818272819826672 -0.9439270467203615
Ni 4.301282606607123 6.9807449308802525 8.09180993163979 0.7938363285771362 0.4899417051051561 3.7394255504003273
Ni 1.7515977751609164 3.960055443632875 10.624829439539807 0.6395536838397502 -2.494414610183904 0.7551947049455381
Ni 8.16710524883956 0.9507923748583054 12.920711863688824 2.4746775367662925 -0.9041500239327395 0.7057390214175716
Ni 2.3007501346600323 6.121148311003033 9.93499996506432 0.7505680048068042 1.3617066278389711 -0.7635212225333625
Ni 6.54205107448496 3.7537143855181005 2.8111079755919555 0.7730088503088236 -0.20304952972844387 -0.8328114242887527
Ni 0.6983650746898767 5.590668162822893 11.68565381869922 -0.3331620049775294 0.3494882529413787 2.3582312461503903
Ni 2.242146387086618 7.631825817428841 7.889314861629522 -2.0054285841237975 0.19728845887495053 -1.2633321071231147
Ni 4.088886202853765 5.6519621336134485 13.713531894100553 -1.093778138048955 -0.758125505439088 -0.417384659673036
Ni 6.439766350633219 6.39090177352186 7.256941806080137 0.18735628736290313 -0.5592442481557207 -0.5811505613105088
Ni 5.605637802118277 5.010789142327992 9.33593693468718 -0.7474261167437127 -0.514936427377281 -0.6111265388473088
Ni 4.8229984387314175 9.165581127201698 9.27337752788856 -0.06220269878098965 -2.1964034420758947 1.9153679825902756
Ni -0.0234893043896703 7.888634338265186 12.178529895519754 -0.08683772372085045 0.9680159693487652 1.3185663450060712
Ni 6.272194502365476 3.725518596538442 11.330340009555215 0.6511190200798465 -0.3367592354104845 -0.150661760155347
Ni 5.484737108547916 8.504311137388186 11.994308658825924 0.32363606776496523 0.1822955850105441 -0.1877748629575605
Ni 3.8085124514672657 0.3078337127614699 7.463114139393836 -0.829242733100888 0.4231195052742842 0.3323477366063502
Ni 4.3684069566348285 1.1806799163231139 10.918489331650964 1.0888539612744603 0.5555914818944818 1.3252447854675111
Ni 6.875835599011785 7.726171102029995 9.20767609034992 -0.9577528968598601 0.18891309032706174 -0.32273181078314095
Ni 8.193820009009784 4.2547333087105175 4.377457167492495 0.06181986152027418 1.674729438864464 0.33030088137965047
P 7.988631903702355 5.183422734627986 12.211771493411565 -0.23094342792523453 0.17964837719568416 0.934173052657391
P 0.3320250997956138 -0.25988493637594756 4.028701128950275 -0.8050463383603425 1.4765590916051927 -1.7307807733320775
P 7.402275725566183 3.0506756338384444 9.457818106823789 -0.5093509628697035 -1.1142004104590488 -0.04051647205680764
P 8.287912206409324 8.535637708787794 0.5862961870957907 -0.48887058352816454 -0.22275343591527444 0.7404142042022539
P 5.6597141008628435 4.700541727551141 0.9454269261841175 0.5093648468267744 1.2111166014618238 1.3789463887560254
P 2.098983393374405 6.850020704447298 5.308168478942848 0.7630373409184085 0.4660715833557779 2.2765542406948724
P 1.5988455885876025 0.3721206740510967 8.098902934804986 0.0671513010355166 0.24164924437851285 1.8982274662552467
P 4.123502907874338 7.423056996898598 10.720849786471634 -0.6687917547692611 1.1030724188666874 -1.4215014885094164
