# total energy = -340865.26071744546 ev
CRYSTAL
PRIMVEC
9.24112664055270 0.00000000000000 0.00000000000000
0.00000000000000 9.24112664055270 0.00000000000000
0.00000000000000 0.00000000000000 13.52532294584491
PRIMCOORD
 96 1
Ni 0.9436761011745329 6.347859076962731 4.106653056686245 -0.6107948665395029 1.4092247280245922 1.3445326871628458
Ni 0.07931935994213862 6.816698382044047 10.295313401506885 -1.0568763799265992 0.7789807516215422 -0.17409299459509373
Ni 7.863893580776843 2.3040715547229547 3.6475086172760927 0.7170531608788102 0.42196687972707975 1.0119795194139087
Ni 0.23129984827930566 4.425251977525218 10.771377419181581 -0.4084901853968836 0.09485853714279793 -0.9597228761020374
Ni 6.0956687384191675 4.464887168511416 1.7359751595636357 -0.20836451418345406 0.384209458472648 0.6753843203851142
Ni 2.4951041189725895 6.105639913768692 2.294990299842531 2.216182681585351 0.9202291888827894 0.2692176409150847
Ni 0.3519057884893474 3.7607133393791523 13.16489938068234 -0.20765463260062303 0.40665698884288676 -1.7116664211001296
Ni 5.298667794934756 2.1492549647038888 1.7887373705535394 -0.7024094428237064 -0.5217971590528562 -0.2546883369506581
Ni 7.101676236936183 6.740930386964579 10.875427881505923 -1.5751593551786098 -0.030227945646606 -0.2691770174851364
Ni 4.452032761735524 4.971485715926518 3.8510111574447707 -0.7568936899145158 -0.7048697314387409 0.5427686190982006
Ni 1.662303051944105 2.2809132920483424 9.25127959210409 -0.30945257717573155 -0.44730227316807475 0.2516456934695924
Ni 3.350693803621023 4.037254045898615 2.0005846478312255 1.4877685871677666 -1.2489552695761523 -0.7144720304151954
Ni 9.21399441955291 0.5409764616113603 8.82738265688129 -0.9174241153338264 0.4678448732061169 0.770480427460015
Ni 6.36793080343091 0.1352762283169639 8.23982907015717 -0.23873849848962111 1.183758521163845 -0.6010845812302744
Ni 3.3114190165631214 7.411660579776244 8.798980054993653 -0.9962117150566908 0.9285173970335105 -3.2646466690785387
Ni 5.67676848022277 8.370390475801912 5.946962381153675 -0.8344587300841888 1.2088830841456149 -0.10679899733412573
Ni 4.126338504072303 9.194264614760293 2.142289003648772 0.14090776609237665 -0.0031429165043558773 1.0513582783218471
Ni 5.687146265132422 5.018791041796965 12.572883254035805 -4.233175573507981 1.7010287388806253 -0.05001232736238483
Ni 6.355547694099712 7.186445089096685 13.191395538200556 -0.002233774426525185 0.8441013953802753 1.1313990337255224
Ni 2.6577202196450362 3.8412682379165006 5.658724256879415 0.30937672963247365 0.7872913283697667 0.037373041331819505
Ni 3.5164703695108352 0.2400752218769959 13.478646710178866 -0.07984175201899153 -0.4739468723387967 -0.4055650413302886
Ni 7.986551051040261 8.455260980352445 6.635617586778566 0.9542394843899632 0.7195335040985028 0.007875546093334825
Ni 6.83277794192187 7.967551295230603 2.192535780041697 0.17408039618960341 0.9995456645259301 -0.8648507121124849
Ni 7.87261720406688 9.005902736030597 4.201831113586046 0.9620062728195754 0.6837519756235192 0.6408415494132382
P 8.117211336737126 8.412825728077179 12.782484937606414 -0.5455500384980798 -0.5837448044002463 -0.08735811500069471
P 7.767896760080963 8.023848237055718 9.057124451255193 0.1007453349408781 -0.7012542461733406 0.45503280904311305
P 8.190290164043924 3.65896853808327 8.959376437112851 0.16778633565077555 -0.42674604628327795 -0.3618902261501574
P 3.627373127035984 -0.026366781749083676 4.75252739190976 -0.6330955869192322 0.08257329201754167 -0.45334462270741277
P 2.4355358184137104 4.211209008622837 7.906700326332046 -1.615721078651056 -1.185689419637971 -0.8827358199230217
P 8.900572377704487 7.681991249377374 2.882070740896685 1.560537491500377 0.3863452738687282 -1.657976130665525
P 5.358661187306498 4.753672367466577 10.236410462046399 1.5793088585706092 0.10854040550526468 1.9740829799329807
P 6.540324015799182 4.753672367466577 4.579146303132902 0.3150735229069348 -0.1842750773344181 0.4762744920307088
Ni 5.225838478039856 3.9336979838348856 6.198344121140163 -1.2703728160199799 1.6068026931155037 -0.02742415764922374
Ni 6.051144991585057 2.201356435158583 11.056856143122786 -0.6466517283371122 1.733949400868046 0.7024917181248675
Ni 6.196591079468425 0.6034963779317202 13.416213660446353 -0.1144184615525965 0.23312243785442432 0.04439600961687193
Ni 1.696199503456666 5.710683413988063 9.160917086153907 1.2064451641280836 -0.7923420034197967 0.36581527223617644
Ni 9.282711435214688 4.245271800409996 5.5553770442715695 1.1736144907513077 0.8995765456294442 -1.5421857284660665
Ni 6.019697438559636 3.4611345048278435 8.38189937457883 -0.35991639025323824 -1.1620578962619599 1.9596832595678828
Ni 3.3294299718515568 0.9736635562340369 10.398308527200163 0.2843200437741619 -1.9826028444785335 0.6909610917774487
Ni 3.804026498659243 2.4641186222654965 12.905119305053917 0.20055915920642234 0.3539619724420162 0.3656190970649703
Ni 2.0545056960674963 6.114788628871591 6.701066940157127 0.10868592994419347 -0.29064110089618334 0.19692310511573186
Ni 0.5308851516190711 2.7009686910405613 7.395375866893082 -1.6899843081410058 0.5309831964274985 -1.451198758463533
Ni 5.4881201265757085 2.9330041329786454 4.09108545520913 1.3515749387216078 -0.16165271194921194 -1.9961579574551493
Ni 3.0610122154083057 2.394227983555164 3.7462842446703974 0.9626359359837744 -0.09243578663391822 -0.08244885062453543
Ni 0.6227715193071017 7.616406975553861 8.07371150670443 -0.15223296129720876 -0.15174419458624833 -0.13295842933831292
Ni 7.627172887770909 2.958602053014031 0.7118116200742302 1.0232286099651668 -0.5457243592924149 1.3258546511373683
Ni 3.644173494770399 3.221890984323838 10.107703750463426 3.245266207669398 2.0289071268617125 -1.3081340939291535
Ni 3.894737395073447 6.351629456520289 10.653165854813116 -0.0977523137508252 -1.8642495666479055 1.1036640297040992
Ni 6.914922314194268 1.3884699954500466 5.9485176627211676 1.5073462521893781 0.4034598220618277 0.825941436641797
Ni 3.9839512290162666 6.7569452589578365 12.850192822268964 -0.9520877281542828 1.5297760419478041 1.444272977877977
Ni 3.6878840224842526 6.970036391844463 5.112206815898662 -1.635715262384796 0.4360670665738877 0.607564018307031
Ni 4.655328300673592 1.7667555032653908 5.687370824503129 -1.4307204360045231 -1.5979884372579833 1.152566668942073
Ni 7.389481876496487 3.7336553213778494 6.695508402647638 1.4094275880640177 -0.20333929305472076 -0.466707417167564
Ni 8.607490054988872 6.321078292752424 12.560831901141167 0.8795219409714143 0.16611486148562357 -1.3189201288010641
Ni 5.0422542616416735 7.035565218909776 3.3680486389374327 0.9424347784455511 1.4590133694119451 -1.589939855921894
Ni 3.793066522788497 2.5917016128822947 7.7156418869285845 0.36897978600708714 0.7274401605400891 0.18653019191718198
P 5.805996391332816 3.06094752752374 13.30948511970098 -1.1103949206700297 -1.2896889998500884 -0.442855807360947
P 1.9595346403983065 0.0011754712738270866 8.243359180429197 0.10312514802696435 0.7908435644973993 0.2751527754525971
P 2.43981445992143 7.746836233091562 0.8833186084239495 0.18850839868947536 0.9734193997525237 0.060713001609340594
P 4.640597945245285 6.892096732068851 7.044812814064797 -0.7407296785601437 -0.5915977247857618 1.1831874791517236
P 2.486029332880622 2.1133716710225166 1.4119895861655913 3.794415019262329 -0.7300452022631041 0.27261406819114337
P 7.16229802590085 1.0533497888929282 2.134445135588831 -1.2682501132500223 -1.1509095929546242 -0.34387810584345296
P 1.8134139502901783 4.580013120786085 3.7414150951878544 1.1656846943812698 -3.0233180412642384 0.7089104771670178
P 4.721485524331831 8.991948635217083 11.748230088124721 0.8931012223177458 -0.6508868494643822 -0.17214152729567772
Ni 3.9141807249486997 0.20751596134967693 7.577115554468499 1.2072766588904433 -0.34107226096354165 -0.06606423861892494
Ni 2.061528952106086 3.1388871872993502 11.467769295800561 -1.747021403560656 -0.044497825302058855 2.313435429991938
Ni 0.7374012230958857 6.223325658046899 0.8024467392522279 -0.13070280053491684 2.2437922157725034 0.11410247297407446
Ni 7.468003727233192 4.226844994435065 11.98768245808461 2.2550233086016327 -1.810536907615798 -0.9958918698234268
Ni 6.702283996499603 6.44014096485925 6.503286505434627 0.5579486692727488 -1.836292162203031 -0.6453795464929079
Ni 0.9761309369739097 4.3005891828402545 1.749108648355798 -0.13242261143950096 -1.8361193840705925 1.718287011740441
Ni 1.3449997370217242 8.700834672417548 12.679015742130531 0.2663233500864252 -1.0084236837418505 -2.398092858232018
Ni 1.351865893912082 8.478493172037991 5.4538697399233085 -0.22549268922330842 0.6019716118209181 0.9646059152259516
Ni 2.3427733919461295 1.6040007856974454 6.221972757146833 -1.6777422575488592 -2.085800754724963 -0.9863132249960562
Ni 8.677648686363836 1.1309567681193422 12.727125970107506 0.44441261032510554 1.6812330443109367 -0.09244170017118918
Ni 6.948347468262133 0.1303303774855782 10.953063508224071 0.7106711686118663 -1.3765200387027197 -0.14171766358818172
Ni 2.087727545355298 8.295971685171963 3.2068676851897133 0.2098938063437869 0.6635593027257282 -0.726168235806201
Ni 8.463005044247627 2.2972146389589634 10.652678847453599 0.4209890891948427 -0.5587621663129796 -0.6011984811003195
Ni 7.796285500279052 6.478999901230656 4.274583729132104 -1.299453278325704 2.1949399701564904 1.7127218589478375
Ni 5.723399203868458 0.45313308670870195 4.135813430935942 -0.8457965236945111 0.20402963425352605 -3.304839182137025
Ni 4.292743466555041 5.131301755309895 8.502234549786333 -0.5789406981433836 1.165283345177793 -1.938762964475448
Ni 8.3320028368752 4.730384729022833 3.1180059381614598 -0.16802441980351063 -1.7212939168875645 -1.0589201498295053
Ni 8.906135535777159 5.345926915173371 7.827239577156498 1.0845941575568419 0.27607708703907935 -0.4857981152504279
Ni 1.0640694954781438 1.3211853543750858 3.5198295189450817 -1.317686513504279 -0.4924431313707713 -0.10878543163653523
Ni 2.6056279903167083 4.685860982188722 13.339200885645308 -0.09725994749543895 0.9680049136051716 -1.307789051884909
Ni 5.209407755360104 8.007574613524197 9.790521494296447 0.9012634464135639 0.7718996764050449 0.7765446313762239
Ni 6.783485773882611 5.730542594549813 8.69131816048526 -0.38657255938818585 0.3304384353987793 1.2600084420665203
Ni 2.0238343976568665 7.9858856899418695 10.674360378134834 0.6190581349895596 0.5255939070911272 -0.7807483850449263
Ni 0.5968067265549637 9.215916573837157 0.9841975161792844 -1.6873669251228167 -0.1612621613790126 4.486715655786808
P 9.233687259840062 1.221935657198176 5.519319093301869 -0.21182161949411907 0.45840609639072016 0.19664285487115166
P 0.020873856236797352 6.785047524238561 6.1267411017141065 -0.5432080206284644 -1.1381633490325496 -0.6201035455349385
P 1.7392631523248594 5.809933111164974 11.392473522278426 0.8924093384570437 0.1965767775199066 1.4532129606800843
P 1.2184240291788813 1.156933574335757 11.219660762773112 -0.7248955397413644 -0.3629796025595942 -0.2874516474246082
P 7.830523873467175 5.3725968058672775 0.7040148817587591 0.32695561905650145 -0.9476199221909165 1.0083522070739668
P 0.45809279922963747 2.214534281357305 1.1243003847975053 -2.0186592238814587 -1.3685195369957464 -0.01610436176103033
P 4.867643178945425 6.133880795944915 1.2568782042154323 -0.5672429500904811 0.5383393796822534 0.6060923188575109
P 5.063933944097635 1.6675242883412142 9.21327361169632 0.37132257520765083 -1.3279421297940162 -0.46622584954545515
