# total energy = -340855.0273734043 ev
CRYSTAL
PRIMVEC
9.48614731780444 0.00000000000000 0.00000000000000

0.00000000000000 9.48614731780444 0.00000000000000

0.00000000000000 0.00000000000000 13.88393547406540

PRIMCOORD
 96 1
Ni 2.208612188297233 1.612028399949706 6.650210271137209 -0.28659187052747415 0.6531864441318364 -1.374647247160039
Ni 5.324071576700343 3.596909809932796 4.793081649400464 -1.284054941492763 0.7889723156166154 -1.3795320860561662
Ni 7.026673708740081 2.5336455310216675 9.76601590390786 -0.26575179385367137 2.155169375126772 -0.612816267844906
Ni 3.8958183036651954 8.98558204808403 6.212644663117671 -1.2807145642656201 -0.49461725620395464 -0.30614665273095015
Ni 0.7964559582012964 1.9493557892586273 12.97188586267164 0.8943291811875759 1.2340850373325392 -0.9856419099606445
Ni 7.592114476302985 7.649401318373755 11.933394656797073 -0.14601809073574853 0.015634878323779525 -0.22459434577875514
Ni 2.567937952628859 5.25913890010249 2.45301328104625 1.5577689276163043 1.2661544070632582 0.7844070648434361
Ni 2.40549717044309 6.634658681653716 13.397761691674152 2.065009529011224 -2.997321617200477 -1.2482258476092956
Ni 1.7323981199424199 3.286930982586125 1.304044509328897 0.08869997374056982 -1.0559911491081686 -0.81192352509615
Ni 2.771596043772651 6.13571580495289 10.864054500696621 -0.6830580348802882 0.2755117014539126 -0.015720496059050345
Ni 3.54245932583175 6.787850470459952 6.993893378973604 0.11680367395532142 0.40713084315551173 -0.06853301187439165
Ni 4.363580214993173 0.9501040306809232 13.107878318250766 -0.5853715413703918 2.3648258686487726 1.0355426514458295
Ni 7.5900085516565685 4.727317037705808 6.992880258468031 1.0953722220089523 1.032813939660757 -0.15220365072117015
Ni 0.88521499035953 6.589096717344077 9.22965112568609 0.14455050505128655 -0.3948376276104555 0.7395302589354038
Ni 7.178490006223208 6.570371063055668 1.4510930693017126 -0.7664520230269123 1.175098788606318 0.4988467209042699
Ni 9.06231549161946 4.239700620589765 0.11874569161673834 -0.2023887562159934 -0.3793552157041402 0.4403284129534029
Ni 1.7410589722044851 7.555384114902418 1.2590868125867216 0.11871734603826652 2.505357996569285 3.7408355433739766
Ni 0.43913177089847166 2.973328447064089 8.856090449082334 -1.4390587806668895 -0.5000237719315065 -4.439482433831457
Ni 1.2043232856328294 0.6982620041812335 1.2146309330238045 2.5334406137381142 -1.4709841686205765 -0.060378758198373426
Ni 6.5072407543984445 1.6981056983352276 11.712209960352743 -0.4335152466863115 -0.9444428100145154 1.248189080834089
Ni 4.246929064646385 1.293730221634983 4.622281674429007 -0.09639220017850496 1.1364576791953522 0.46277080111731916
Ni 1.598596015718507 0.7274575189752737 9.706467564378954 0.0853426272325627 -0.3128258645233387 -1.187969216811083
Ni -0.052878629533878514 3.278450367118123 5.905948042652352 0.1740757682039131 0.5087747786512592 1.4873698090674514
Ni 3.4911582425532726 3.9167067994823563 11.462424530534781 -1.889065854360637 1.1823559843893636 0.4183112852523635
P 0.8382357956797353 2.5746351724503467 10.63302602945235 1.2112405286341978 -0.3454688473693405 6.091908838323348
P 5.323160906582972 6.859025031820605 8.322960447006638 0.3453336073430569 0.41013003499315176 -0.1246751062835982
P 0.9019115577926748 6.917156140979352 11.878886307198988 -1.033278538002001 -0.0918068948006677 -1.6173197905967438
P 1.700666958040329 8.376286822681555 8.040186940801672 -0.07460235799692312 0.35722341680210734 -0.567030834079675
P 7.218322337711063 9.5220995532734 10.46548834045343 0.9350078898538607 -1.2947059934487057 0.016491312786803856
P 1.363330082584352 8.243082345722167 3.3298396715642196 -1.5276487111921562 0.40808009444265847 0.44322424644395925
P 7.348690456700729 7.869100484189127 3.4494637803983377 -0.5332462814300624 -0.27641878664921427 -0.06646970158745971
P 1.3008543180739875 5.36951970724531 0.9069420615764353 -2.2168280284788335 -0.08161452764869814 -1.8938234236502802
Ni 6.780716887873892 4.996752072535428 13.6330940278377 0.053750711358894525 0.18284734374895606 -0.993320766662141
Ni 3.3906050837604 8.1598129468652 9.68473859593264 -1.0002208362160838 -0.062047404150047974 -2.115192834733835
Ni 5.221972175937352 3.4147378418706893 12.800099328406366 0.7558210256756274 -0.6913529278992286 1.4389605645261283
Ni 0.2115562571825602 0.8493877101586882 7.649187880064996 2.907564920060618 1.0562150921935165 -0.5042270113795768
Ni 9.190236184668695 8.583236606853756 9.125535918673716 0.2787057829111781 0.1665069547177197 1.1508779683857406
Ni 3.494459421728737 0.8848175207978864 8.333401849071102 0.11497124873227295 0.20827503979344128 -0.11331905784083064
Ni 5.266101732041545 8.29968618520491 1.8454113328932586 0.4006984572666067 -0.7150759825477815 2.4684544386747165
Ni 3.942917023797895 2.354660908370353 1.9650354417273763 0.4131461961116562 -1.948945818545721 -2.351295181152189
Ni 2.3601059567804574 6.869289042935122 4.628278816597767 0.5348462789273305 -0.4672195809172921 -0.26554919092456203
Ni 8.720605502370699 4.148766414911607 11.600055243710468 -2.5076159393655266 -1.2408953753861531 -0.3045415130273594
Ni 9.16175877120679 7.672139612866823 4.79738551431974 -0.12562281490884816 -0.7576632210906887 -2.118028247300101
Ni 5.050974889107132 4.776806266896602 7.5078907710521925 0.2853451426045666 -0.9655284270402211 -2.5882704170938005
Ni 6.657292628529168 5.417652417407105 3.6782013471286006 2.100253696925499 0.07165021734713467 0.5217709338006111
Ni 8.557899108067364 3.6276354402469577 3.3466111795591065 -2.436660176982255 -1.7479200041155252 -0.9215198826697548
Ni 4.540667608233301 5.27933490718457 9.603600734319143 0.36493261252090703 -0.19326031155216392 1.349182013009399
Ni 0.5901986627641795 8.978998662027214 12.893746572142522 -0.6140298285370328 -0.17998133505507066 1.0041672224583416
Ni 6.2709218589410805 1.2940906952231086 0.8006070961529721 -0.7440461445278863 -0.40267692114921616 0.2735491784109031
Ni 4.868025056986438 5.973237078178897 11.959676975830238 1.1217864503364228 0.45986879697917576 0.7835776269636054
Ni 8.604495062406098 8.60104210487774 6.829896868670662 -0.8877157896361162 -0.9309041520981324 -0.2196431724210669
Ni 7.95743548557396 4.884682731216655 9.410142148489886 2.0715838397946325 -2.5861412865659394 -2.715399641344846
Ni 0.8095202799267252 6.550099166797142 6.681976531783406 -0.2067909990487471 0.3461280782198942 -0.12253723400498895
Ni 2.2367955312004053 4.960552935369994 7.902013620014387 1.5614965129795366 0.02485382581888623 0.010390599205704685
Ni 0.2080938135071452 1.1335091978603014 5.3302233430661135 -1.6924494818520466 0.010995579779555257 -1.9646573157437068
Ni 2.5628059470716003 8.377719230887001 12.075371922553789 2.081951041961569 1.4284928322255852 -1.3875143329306945
P 0.21763498021600103 4.8161358325904935 7.970322416349442 -1.9230062158618237 1.3211652160814988 -1.0362545899111897
P 6.98785639498721 5.571536694948425 10.932001874828849 -2.274394771149709 1.6001075404835154 3.6498056359486495
P 5.770167128152572 2.011480566327922 3.015451683065952 0.06830984011999204 0.22029109041771092 -0.8108773432198229
P 4.30329575045273 6.315601611574517 0.7723298403939461 1.0909648369698761 0.16208208617714667 0.40133171997523137
P 4.976176619571112 2.9836778335021092 10.487327348205596 1.206351833083329 -1.1014832200026965 -1.2191237880370165
P 3.068142486888123 3.389874650437093 3.42695789650814 0.8045282610733434 3.5101533395299285 2.1844074460562832
P 7.317149017739757 8.413823506581878 0.1920034108708743 0.4161939817990445 0.2636679147414491 0.18036237254357324
P 5.061608859956832 6.0004338617882516 5.311965355827562 0.04483129738207763 -0.07344330469181545 1.2508715127622585
Ni 1.0798176055237294 4.412813318213458 3.9625305814507388 1.5500792722815304 0.10855146124885821 1.114202724451894
Ni 6.829580031358994 1.105477633310024 4.4903426494868794 0.737811219361768 -0.3328933246971751 -0.4432689836389656
Ni 4.529957748207155 6.058887499946901 3.3019750632021267 -0.584407891905542 0.8492765118233115 -1.2335523047575208
Ni 5.146822918960263 8.551695167892785 13.600980574209254 0.5392243533903681 -2.997266081372193 -2.6128131394301715
Ni 5.564535918421147 8.666591381034225 4.504670526000159 -0.30236070332595666 -1.4658712728740433 -0.18053669333790842
Ni 5.621633037550799 0.6663287873468515 6.89949672962003 0.3448327564472383 0.40235244793026187 0.4518253578494089
Ni 3.0853124130593588 4.645555936230735 5.661715803320932 0.27677719842989756 -0.14025907676478425 -0.8826733421162024
Ni 9.356822413117907 6.962642216112544 0.015050720918940792 -1.5920854415099872 -0.8603664510888861 -0.4682202542676646
Ni 1.2990424639863047 4.6084271566538195 11.98019740914163 1.086321938881226 0.27857954174595895 1.030074943463039
Ni 9.094331237933229 5.660611615803621 2.327447049696297 0.7086698219111215 0.5738766533569148 0.12497849645662992
Ni 3.279104911264982 1.0846081097869749 11.193839454481372 0.33446709694219817 1.1274737305291873 -1.1332461142365902
Ni 8.768728726385438 0.13199878766858011 2.8981602177928876 0.48125291908190665 -0.7409232826281885 0.6539847716634156
Ni 7.166044181285826 6.926471537388277 5.96551061140184 -0.9542939917769823 -0.6237231445653968 -0.6320054391788471
Ni 1.5013250638069862 8.891820970583204 5.71958414620623 1.3217516847125883 -0.8763491996703875 0.9038011252337531
Ni 1.8062667470669576 1.8894128260121965 3.4878665495248646 -1.6005417998074565 -2.7010140620471352 0.9556703032992186
Ni 7.431675271146017 7.091729705249659 9.309623139826416 -1.154420177211044 1.135259030901561 -0.4040324067358461
Ni 6.057844023770749 3.626819631600148 1.749084252613803 0.6966697121264518 1.3900368422422318 -0.29734113862417827
Ni 7.736929997258834 0.9353625581560058 8.50713114625343 -1.9590906202892069 -0.8835156355118396 0.21534043128065494
Ni 8.582506173530449 0.8236603307282965 0.3635176927156423 -1.247925028539425 -0.0505291190978033 -0.10115825410858063
Ni 2.9493948980419735 3.3429182225102325 9.287810693286005 0.4001796086486592 -1.6288463031791043 -0.0228031139374446
Ni 5.261311227778299 0.19958094513915234 9.49750007672796 1.531137698182021 0.039600130890125346 0.8061370003213599
Ni 6.582057996228576 2.7964876936474146 6.379348519790376 -0.496217510811539 0.6118580176966947 1.391710630400229
Ni 3.2436456935699103 9.2489364626508 3.1461271532202293 -0.09815392006461805 -0.6539901709800544 0.7118435916534127
Ni 9.320509442187802 0.5564886905862217 11.047238640649597 -1.835020237469143 0.7415287774226713 0.3585105110446471
P 3.0439622980425534 2.7344482919016233 13.196138379073858 -0.7071238175802402 -0.4447468537360728 0.7752457100591422
P 4.746251387229447 8.2385764258706 11.221038135320137 0.2844511700353875 0.3124491979102103 2.0728333959310175
P 7.460323435254931 2.674799399213927 13.400191093935176 0.03165027991542936 1.1588198489406365 0.42892557043310003
P 0.010084722935160693 2.0883847605103583 2.17676529540106 -1.059465223699698 0.5831511366803054 -0.059833170107548565
P 3.4428073510091903 -0.017027633965396898 1.0740025973784435 0.21383659304161884 0.18942473985615763 -1.2916039574846143
P 3.9697912784073486 2.7967058750297014 6.583803447286867 1.2944817932530417 -0.20794053927215803 0.5364321353572117
P 8.715871914989789 5.030684020554495 4.896696936462991 -1.0946451140349405 1.930823140803081 1.0469994871325194
P 7.7243513662626695 1.098012035577006 6.346124238341683 1.9650208697307125 -1.0301379354904905 0.997513978807882
