# total energy = -340860.9184384157 ev
CRYSTAL
PRIMVEC
9.31529077982875 0.00000000000000 0.00000000000000
0.00000000000000 9.31529077982875 0.00000000000000
0.00000000000000 0.00000000000000 13.63386966030541
PRIMCOORD
 96 1
Ni 1.2167818825246068 2.681415700774683 5.1274526398734475 1.4526272633799433 1.9153975502766305 0.3601627019360894
Ni 3.7086314205596613 3.2319214265448952 6.973669636547094 -2.914389656291936 0.7442220079841183 1.947174585577911
Ni 5.276497288710502 0.9034797838495112 10.098347849079397 1.2176369190788447 -2.298444613010061 -1.538197690352596
Ni 0.3879622893937972 6.067663545899795 12.396281915215948 0.4001927212747818 0.26599502021272897 -0.8986890008181684
Ni 4.873555080579526 2.93114932519172 9.036078690946056 0.01869449108570974 1.3830336714515212 0.6175265288363817
Ni 9.534013574484272 6.181980791557816 4.891191720182225 -0.08073341059532546 0.5339790458310287 -0.7607436597882253
Ni 5.289436227287668 3.7505595433356347 3.867887490900164 0.018425039474406976 0.05708980303445652 1.451532487653868
Ni 4.37922987213033 1.3967346654142452 3.23658559252444 -3.020599871002127 0.14044496752334523 1.7372432411279695
Ni 8.847308985548649 6.230001114355004 8.956811157520178 -0.9786364251770888 1.4468366248400955 1.8560680592783778
Ni 6.163024175283854 2.675621590051142 -0.06849253684401309 1.532538949404922 1.3168262223865126 1.3034971093777745
Ni 1.67465635904259 4.994681803631289 9.036978548013408 0.4724651455869475 -0.20887384971970477 0.4629294381823705
Ni 7.456936663581636 8.208084432558179 1.2595474499212338 -0.44186104754784544 -0.9096339298654463 0.6218164144609872
Ni 8.582717472700669 7.846585952094458 6.626374179588487 -0.195789762842237 0.4567598190365489 0.3501282005182228
Ni 3.927987882485596 8.768622726253238 11.533967331846176 2.0764447674313593 -0.2003089908688292 -1.0672176139516074
Ni 0.3792385197915534 7.533163686171236 0.47794613307105827 0.6468288773449247 0.6116513010025272 0.6663350656986524
Ni 6.166368364592135 4.49092952114315 12.096105060929066 -1.5303792227494417 0.24258229771574352 0.3835990785821587
Ni 7.490099097947881 1.130205572131383 0.9481698902742466 1.397998777401786 0.4595348106785247 -0.505099129571885
Ni 3.094260062762771 8.925277967471533 2.3965066077030457 0.8865896464514731 -2.3717681042945604 -0.6007950750143137
Ni 2.3876207520451915 6.6516297953339265 1.3588875714292412 -0.5882655750887352 0.07103778057411636 -0.463222286832441
Ni 8.70319212541377 1.2095252711843527 3.075923844839592 1.055044983144815 -1.0309185224102568 -0.37160462522444393
Ni 4.722349284334334 7.202070314070273 1.2004773294708884 1.4431002977261147 -0.22131284681400593 3.80785751792048
Ni 1.6955132945892255 1.2681091334678676 2.774506193851141 0.10896849418161879 2.5954543364367497 0.48270867769182674
Ni 8.93403434059071 8.047721705700061 10.90160069576032 -0.8116581872499055 1.0279265296614684 1.4749878904633307
Ni 6.0687906960566265 6.7988859083849364 5.227565930497297 0.5922309874943865 0.9707562510980635 0.7109246793835692
P 5.14861698000831 1.157247860604756 1.083176396248961 -0.2413414833301069 -1.9407668822793542 -0.30924071827524163
P 0.8449574024836417 8.906787115725185 8.16232493077804 1.148889734311118 -1.4354746628600568 -0.01456812762216201
P 9.107969445783553 4.312830481073423 10.415921940001786 0.7735312984711968 -0.9089407604531637 -2.095823171957971
P 1.2561389851081415 7.054991191539758 10.25073389263757 2.2203530109129566 -0.6749441475239021 -0.2544178568980908
P 2.764461516048579 5.841572128904536 6.9232515579617395 0.0959635972815186 0.5884092997554511 1.0898404935574455
P 3.5638718053766723 7.6279001910882895 13.263614645606252 -1.5859322774243978 0.19047786371102032 -0.9050131432639833
P 0.9073735753003792 2.814465995733411 7.644033342795845 -0.2092438314646138 0.5963725204665858 -0.23581361153334227
P 7.913376585354563 8.200408633143072 4.4959318321697435 -0.48163884166641563 -0.24978010101576334 -0.004122506808805803
Ni 1.7826857835777974 8.617426245298597 12.082826114246739 -1.699824177049563 -1.2887569749541226 0.7994796429058425
Ni 6.499753298168969 -0.05471056447186172 12.681339121407367 -0.00275236593415655 1.140045653656927 -0.5670922834452299
Ni 5.096311623557056 2.3144211988850936 11.803672007678323 -0.39513973223190657 1.0181907904309433 -0.6626321629257685
Ni 6.582603492341265 0.5222319558858233 6.017703779609615 0.9047742877802998 -1.2438428880502512 -1.1559823794918413
Ni 4.259444550918101 0.1726468005094571 5.779111242693148 -0.009559618663977084 0.477934396231635 -0.11902305020414339
Ni 5.513487595651971 8.6757585947372 3.3170249895017982 0.8365567502637978 -1.245761959449835 0.19020866921003374
Ni 7.608887683071012 4.823783483158502 4.267346711893629 -0.23123627657530502 -0.7312068266713729 1.4940886158485236
Ni 4.268191608746725 7.611766107851678 7.392338849717546 -1.1346468512388588 0.6352391156247963 -2.34661371651612
Ni 3.8144717518150744 4.986335303296414 0.13162971314949976 1.3356860354054931 1.4643939169975682 0.6709093153328962
Ni 4.468498301493173 5.583175284273846 8.568914075160247 -0.49986539197677143 -2.0216036512217634 -0.45927847169334457
Ni 6.368901411780587 7.089849008786524 7.850313931373494 0.9525986063524302 0.6051214703038095 1.0622142471997449
Ni 6.465836325267986 2.212847270702641 7.47183740234912 -0.472535850923883 0.6192995615764044 0.7085260972444056
Ni 0.4105807463838754 5.612425296608118 7.089121484594387 2.4087220558110904 -1.1814537842900683 -1.8406015882116622
Ni 2.0461967227217097 1.0487713021230374 6.966211814930911 0.5714263920442094 0.4482731217217764 -0.8430937800513674
Ni 4.742209483791871 3.073021200303491 1.7605554478126606 -0.7248137786608355 2.5407032088377988 -0.04502490145012246
Ni 7.224128922098157 4.244996535271458 8.827139518444776 -0.3409395920404193 -0.07024073859411774 0.3307986469516755
Ni 2.555864214710569 2.3802803030899664 9.215132548297396 -0.9988262698614024 1.3843395347471386 -1.0486786746071552
Ni 3.0276929964759214 0.6161468521761616 0.020157357226156365 0.6295870595453416 -1.01197412009727 0.6274900678069968
Ni 1.713370706578015 7.922691875906879 5.894031187649903 0.924751502233175 -0.11721453624049491 1.1136162558208047
Ni 3.306574165031155 2.826091478342701 13.655547111833446 -0.39648596184715584 -0.9399104693618006 -2.2680572589674552
Ni 0.7322423868006194 8.483928816393359 3.759498496149637 -0.1909414336110002 -0.6633302174340576 -1.0058942324517772
Ni 3.2378832124983776 4.18269587205757 10.715989805389206 0.549311305312725 -0.2997592611473676 0.5649922063830916
Ni 9.047028814990302 6.331565727246905 2.4970428125179702 1.541294584110365 -0.2908151645802024 0.07801035523720758
Ni 3.8892269584974093 7.282256335144608 4.146932608569118 -1.026035997506975 -0.16838823090083258 0.7072073784329821
P 4.994299876718643 2.487331622117181 5.694662544662073 2.008371468802206 -1.1304932340818012 -1.5181317728406565
P 2.529110700244318 0.3643321918497374 4.565559902932084 -0.6204647855290991 -0.7438427702678285 0.6687472746845708
P 7.638929495102232 5.6415728407463135 7.116293255606437 -0.6796250979393391 -0.5600955404124225 -1.5015882666596785
P 2.5544203446749605 3.2287169665948987 3.3611030813372467 0.7476438891814736 0.18931572508211914 1.2567200011232358
P 7.82028888686527 2.519683626205374 4.527125945642284 0.42839618029219123 0.813225017516393 0.7367298133721312
P 8.892516090599038 1.5059098706873877 12.27498192775991 1.4496301284248323 0.19166674181279894 0.420305947084889
P 9.28900280237726 4.510296010201415 1.1835710086474902 -1.1290063651236297 -0.4411077143215887 0.16573870909312746
P 7.950991728604814 7.440895733250548 12.94789522903283 -0.9723999573490738 0.1289369668837457 -1.4386533176983545
Ni 1.4315645367893546 2.714447721073195 11.730813394152438 0.03967494999211877 0.1710495797830796 -0.31799378187752336
Ni 7.527201900217754 5.5518852233086164 0.7954121666230392 -0.4901489360199558 0.5148281839341908 -1.777807535703577
Ni 3.4046828051281457 7.421314992509579 9.42964785372329 -1.4817452637918225 -1.180495277031541 2.5972489664433267
Ni 2.672407814810593 4.740923973695652 5.108569614394848 0.012572437348371896 -0.01500495804926448 0.059671961939335945
Ni 5.793728796627843 7.1241851697623595 12.873181009628926 1.7388226697999472 -1.0242603936637908 -0.22243487623359112
Ni 5.316916334417 4.769316979299111 6.168808039187786 0.5596880205613587 0.0699723154240795 0.3212914787921886
Ni 0.8517249610698993 1.8535285682281597 0.40748341227523033 -0.15023187170677998 1.0595647253920397 -0.4916378618606565
Ni 1.922918167552361 3.924578486143448 1.4874963358526248 0.4755260439004585 0.30605537856872456 -0.9944271123524422
Ni 7.546913055026455 9.01009368795037 9.211165166051163 -0.30698766057500676 1.8500676187205685 -1.0990023625623717
Ni 0.1839965505183988 0.8973447334917558 5.523380434218531 -2.3166559938117652 -2.3606763652567735 -1.3868959826204048
Ni 8.171596439464759 3.5681288931590807 6.527310722209884 0.8860880242247062 -0.3436924721952081 -0.4984834240275802
Ni 4.278196230799912 6.109805920358473 11.683871782001209 -1.1978895612485887 -0.2507059552641424 -1.63306779745962
Ni 6.847465148615264 6.57353039934331 3.025273815519485 -1.5117662356339447 0.5519186610285849 -0.5762369260589754
Ni 6.664997237276499 7.5341324763886774 10.511249965868911 -2.8455769083935962 0.9421943802999709 0.5730436159326583
Ni 3.559419096492665 5.2304797533820615 2.930490734149671 1.5288671569802894 -0.7832402982288446 -1.2320124710742266
Ni 8.707384006162313 2.2310772943135233 9.494271750400927 -0.38228755885958676 1.4803080171246634 1.2694690732587879
Ni 7.780400812720253 5.789574177041509 11.134086128190692 0.30339788634121945 -0.08036291462978418 0.5119146098318216
Ni 3.243537593863633 0.19803562490979407 8.712233546423848 0.35273375646186994 0.1461283910613677 0.2873786280948276
Ni 7.172019186748502 3.3295270409520614 2.3873589923806717 0.6974896369245859 1.912988169504189 -1.8301009457906545
Ni 1.0949192515192103 0.6628118001979881 10.211495094244048 -0.12529962724147453 -0.5643504590340345 0.015619965925444065
Ni 0.12939497494599916 3.5906253198429234 3.170583964374116 0.46365500349448535 0.27361782686530944 0.17136736813381453
Ni 8.487356843316611 3.938281278545905 12.418450443672349 0.30713035680045814 -1.5429902266452329 1.7416899640454135
Ni 6.527522179305422 1.3434605187455506 3.0497879341369596 -0.18893674447614558 -0.3852708098576268 1.2674949802515527
Ni 8.780881648620085 0.9992512175469261 7.686175717254522 -1.021555336027802 0.8014264822195681 -1.4593962066726607
P 5.647339005598198 5.101993950793968 1.65621487833617 -0.7245309573130941 -0.13462501840745847 0.9164959470926023
P 5.91137160101304 5.538266268521131 10.108300305505493 -1.1150167357127572 -0.3855466892268328 0.2519951063892112
P 1.964669299807841 4.734114496301909 12.677507742403199 1.6694177968435637 -1.4697636659499138 -0.5760806029867692
P 3.3761314395852975 1.4715457638398943 10.954309404292491 -2.2171309044312335 0.1255690788527773 0.393291109058942
P 0.5422467891665292 9.375467329283856 1.4053242948325357 -0.6499563672303129 -0.5029761696916112 0.8167566848187353
P 7.163700632285283 1.3456682426064497 11.067184642973011 -0.8149052334322933 0.023824870333739614 -1.1094328138670764
P 1.8474084223352882 6.336763659375097 3.44476091120043 -0.6538508171887126 1.119419749876459 1.1124877986433162
P 5.385327828233208 9.55189893234472 8.061474800671501 0.9177030800268259 -0.9954792077660404 -1.1774089247967334
