# total energy = -340856.6640498429 ev
CRYSTAL
PRIMVEC
9.45784827309829 0.00000000000000 0.00000000000000
0.00000000000000 9.45784827309829 0.00000000000000
0.00000000000000 0.00000000000000 13.84251696162970
PRIMCOORD
 96 1
Ni 2.3756317803690257 2.260633803541531 5.941373924907132 0.2531341050896608 -0.550844968348432 -1.078026531641653
Ni 3.9345783646648402 4.300890285094621 2.167683016761127 -0.6873191241494873 0.21393609473396058 -0.5359017167750384
Ni 2.777221474757731 6.890430219251578 7.552851289932881 1.0652365789658365 0.8189269529971768 -0.2422976765957892
Ni 0.3069459527722017 6.257265110550741 13.733686583019958 -1.11976504903102 -0.5222072500070812 0.24343796084781946
Ni 4.723618270313941 8.294958515229068 11.911651979839966 -0.002310907521363762 0.8018070054874386 0.6347850588065131
Ni 4.493575027417719 2.982712143606401 12.78543325999163 -0.7189226099873812 -1.1607576893932976 -0.15627499257706634
Ni 4.860993516092324 3.0455500873552186 3.89430117212289 1.1290583014074878 -1.488740721273049 -0.008012328781515234
Ni 0.6210751412875141 2.5241199978368822 1.8499276892281598 -1.293404758138779 -0.4722545722380383 -0.11874125729766646
Ni 3.511500439060405 0.8475688537368766 11.377801844004509 0.9641631712615784 0.634906671986042 -2.1883828857642635
Ni 2.3978198923549874 0.7009996336782064 13.191171166621189 -0.9654808616317371 -0.676449528424835 1.8528768060345895
Ni 1.7612310425889683 3.1566608885534593 13.505950109311026 -0.7061066891696355 -0.5695276323595998 -0.3709582498896966
Ni 8.489780731255843 6.817339968003705 6.928041244372879 1.06368029022231 -0.8612779071595619 -0.2622566362162193
Ni 5.2989486369882846 5.243686429684801 7.97378795869434 -0.17423749059275798 -1.1900204429131571 -0.9628971600649611
Ni 0.3983134957561654 9.247534074905984 5.90438711777009 -0.12200450142997052 -0.2662768131192059 0.07286094982578419
Ni 5.354031145175086 2.8536408885883215 1.3496926376299172 1.556270488693907 -2.8327787281876633 0.03503128057252031
Ni 5.857935841892917 0.9089096201082956 5.5588777345581795 0.5000435694258485 -0.7837234085128503 -0.19084758834561324
Ni 3.474141938487282 4.2452781374060224 5.175730844249877 0.17127995062633083 1.3603781388355345 -1.7039240581505495
Ni 7.505871320338735 4.293219970166823 6.747133414686148 -0.5354240058076715 0.9930831967300381 -1.046554943395933
Ni 7.289201474862867 2.4291821171399177 4.474995084537745 -0.12324917247034903 0.3794760575527207 -0.43742255216051756
Ni 6.4689128386077925 7.901597148814696 7.112395513960583 0.1696796960187465 0.9027096919417873 1.89517428125122
Ni 7.193724496815859 2.8355196513482954 13.27657931942512 -0.6225162687414891 1.2616174384248529 -0.7823586669548397
Ni 5.149107947221197 6.565543674140855 1.4392754846497928 -0.35151711044594947 1.4057539958671725 -0.6528709697739467
Ni 8.279731379552427 4.220035140436487 10.353510258429917 1.9001845899816179 -0.7231520746876966 1.5529144277374805
Ni 8.111949151661996 9.300129169003993 2.284430695514198 0.2957498828776584 0.183005209483059 -1.3164953214096553
P 1.6616209848583017 8.349587046700044 11.82103917314606 0.23976231176844515 0.6018196596240861 -0.18575860385848006
P 2.6460505774289595 5.628696516097635 3.134319559425907 -0.9993852276886659 1.193887639178047 1.3044859556536048
P 3.698992822696251 9.268492666619919 4.284660617503866 -0.2544258273178908 1.5118176576971705 -1.4296642268258668
P 1.2001063639806582 6.208670686260942 6.313724681442213 -1.6692871848029702 -0.06269095127131784 -0.13551539143221178
P 1.4487721100739632 8.484664035354562 8.703856288957734 -0.5421240435356663 0.02891694014466633 -0.10655011454811328
P 5.245284806038436 5.699431763132164 10.025858238491958 0.8344620725182983 -0.03280419101421447 -0.05732197364992063
P 3.2517406369741195 2.2092776875637945 0.8242079685683666 0.09862083239870756 0.3262403381570317 1.1821844918085058
P 8.640642868633536 2.100115203104304 10.501832963553463 0.8437203578917727 -0.3300841373831541 -0.3198963982168749
Ni 2.6702437532431493 6.462453128255527 0.5856091561484876 0.31089650871110974 -0.7849192285931643 0.2861871788898878
Ni 4.833404972757691 2.751325886259196 6.468704765946372 -0.558384985479219 0.5070161440889398 -1.147462000725656
Ni 4.238894089839729 5.951483418897666 11.89027913437284 0.10726385278568625 1.1646133156939622 0.7206771307846427
Ni 0.7469742340037638 7.495940579680057 1.8804642438611832 0.3578715919090675 0.30468215237028173 1.0257454628497495
Ni 5.468735928706944 4.697240331554842 0.1811726494376286 0.5112489512233647 1.7055546517754367 -1.5666127511601795
Ni 7.193866364539555 0.669813324870658 13.636941307523115 -0.9547927857902718 -2.0808760637298356 0.6303812733118628
Ni 4.674900893996939 8.29066465212522 5.805232928324899 -0.45994695851527884 -1.0907568347241279 1.0923154374604995
Ni 6.395803671663427 4.787524950914597 2.398714604799093 0.35385192922671316 -0.4745284558738795 1.3551811680156274
Ni 2.756225051650811 7.178364951263771 4.794992867889924 -1.0816798121235243 -0.315303893750186 0.09384423694567064
Ni 7.738449266564982 2.8729632725556358 8.508607523975048 0.6151554575010438 -0.7720174329298317 -0.7386270303948441
Ni 3.885246228211825 1.426139479220423 8.704035988074414 -0.4396049045238171 1.4535628878203355 0.22646636599048742
Ni 2.4191000509092975 2.2404602132320446 3.467370119142888 0.501094379287866 -0.5336625430318744 -0.3825037886354509
Ni 1.4512027770732776 5.6241567489393836 11.772354899297921 -2.1504316033314708 1.5529367963349836 -2.2641496963829333
Ni 7.911102286302288 9.01835149620018 4.593376133682963 -1.069530835465816 1.440879635925712 2.2767756126770595
Ni 5.718092097722233 0.8436816781076226 2.678858907210759 0.7956846946397845 2.288007991057769 -0.0989771872968618
Ni 7.293334554546526 5.715377695275527 9.189313452671039 0.3384762181015913 1.545819725674228 -2.959522544074832
Ni 7.447251576907794 0.3168284584048236 11.126712051405663 1.2563356212006234 -1.1442638055033325 -0.15265410799502743
Ni 8.211663245723372 4.381868381779958 0.8881354564351652 0.6229896088334819 -0.3706137220660843 -1.013881621532628
Ni 0.014678580478351182 7.583662122165049 10.43958329796557 3.383310021950418 -1.266284247772903 -2.3099420721266997
Ni 8.62937857137212 7.965957806131178 12.337946519632988 -1.089417289977098 0.5433039227763804 1.9698015789488073
Ni 4.636152089731601 0.5660134403668537 0.39917699730105805 1.1577998923165544 0.5595399250192685 -0.6410845186619798
Ni 3.844010009857694 3.147080088279896 10.39696245062817 2.007062263072479 -0.3075021383175801 0.35061311057444133
Ni 2.33661815635279 4.487682787960237 7.0675047830440585 1.5121323607241117 1.7893523031183827 0.3004822553563212
Ni 9.005346954861436 0.5739873522233601 8.771227379371032 0.4197657583107029 -0.8903527130383312 0.34337365540320863
P 5.520460900766288 2.931261449146201 8.359177304821854 0.2154072799628484 0.7996444506184809 1.5031365849834049
P 8.275598299868768 4.348330851898364 4.698039519731659 0.22722741252622802 0.13335797876957678 0.132594618240991
P 7.690233156205037 7.995296051391388 9.628259756063219 -1.5909826953641115 0.6695183485226405 -1.7843162833563724
P 3.7277635970616796 8.14301818315129 0.011118646398421165 0.9653373940753375 -0.189629399667796 -0.8654724048568837
P 9.223303067698808 8.659520733733272 0.3580618394044806 -0.9093505942970727 -1.1749491504023313 1.6617278843984735
P 7.57929259627523 2.606223578463536 2.1930423452640926 -0.05440042912775147 -0.4918070404486691 0.03533467074555205
P 7.685825798922233 7.3134892291595195 3.5678815098114325 -0.10906105389542509 -0.7129674208452108 -1.633517997623161
P 7.74403885487858 1.0585318335808909 6.896009403932106 -2.2572092605093577 -1.9331654157830125 -0.5005714169048605
Ni 9.143876058125874 5.258156937501733 2.83179136756958 -0.9820205111579734 -0.5842749658721034 0.42078751470699793
Ni 5.59305934390535 8.305626968050962 3.392648389072518 0.46136003681272153 -1.5768022900986716 0.7878109483186626
Ni 0.14486869894397458 6.77037229361228 4.4655542604182275 0.7538862705467596 0.90877363874768 1.022203254024446
Ni 9.44632858719623 1.4433338473323059 4.125111446511891 1.2797570854483573 -0.18002375825723188 -0.7552307003897961
Ni 9.336201402215611 2.1763170864252293 6.60721306194467 1.808707824826859 1.385516071553743 -0.9523589795377986
Ni 1.6667849700008144 3.3139165313456918 9.998269695157324 -1.570024862165522 -0.23257659265328331 -0.22494478713963842
Ni 3.2466144832245925 5.304557140998376 9.67549035863589 -1.1887850278441592 -2.8404902378993078 -1.1768337690195538
Ni 6.3162537100632905 7.635566793341074 13.532707307784802 0.37074176300351636 0.2695724531513422 -0.03439750364326334
Ni 0.22680203830219384 4.17065571474224 7.958243039316622 -1.1001691291769633 1.8233883096571692 0.7897158786508592
Ni 6.5420030898556645 0.8247262586522673 8.877095695286316 -0.8798505279554266 -3.2204689461200604 -2.749140228130401
Ni 3.370644705127361 8.55168234802827 2.0471975963810936 -0.43069526073901304 0.06486816142829474 1.569149401539104
Ni 6.525905832140359 6.473556642096755 5.118298060773855 0.657526466268087 -0.5867527379886346 1.2382725930513254
Ni 6.955992023295348 6.585197082796792 11.26456964744461 0.2619313916663166 1.2164727235674146 1.89261937603985
Ni 1.018742666008453 3.953777796604952 4.675434316638034 -0.3496605168531849 0.5108244620914364 -0.1487527160580922
Ni 1.0236418314000677 1.0330807639499353 11.273774971142792 -0.9454848781257845 -0.04047276330306578 -0.37512523678319265
Ni 5.567173213255062 7.8120029523769245 9.846265049711471 -1.2620406420052008 1.439712097980172 -2.257733508443944
Ni 1.5666452727683513 4.656817488149898 1.6827375226379502 -0.6658257301624017 -0.3903196851354439 -1.0001102787801486
Ni 4.686032781382905 6.1240229444560175 3.5888107821958033 -0.1300559109795373 -0.7989140002103595 1.5140743149418312
Ni 2.3985670623664497 0.1268165039961467 7.1373954442301875 0.5770802478958771 -0.15064119133005668 0.2282684521962327
Ni 7.723581529121703 6.738679044138727 1.558736620064745 -0.12701429593973612 0.5097443416533802 -1.0194231201761474
Ni 9.453677335283652 1.126335147659048 13.638436593330864 0.8013856016793037 1.6181158041354777 -0.5040161809203513
Ni 6.001581641058637 4.4464938588473375 11.577646177450102 -0.7524881046476524 -1.7336609230933497 -0.18875008238663624
Ni 6.387934741922455 2.3828670342774916 10.31120814057842 -1.2364049437149673 1.5344875884908604 3.369736911251674
Ni 2.849819917896792 7.340916989073965 9.978101779556786 -0.5199583060719045 3.6240817488199846 1.4714353972253822
P 0.895986416264469 5.39806688661014 9.68638390824605 -0.5612574219310076 0.16478945780598073 -0.5147914171589844
P 1.4346420847939008 9.157362949725185 3.2676232015342324 -0.5231816981052086 0.5305103705561379 0.7337704736334911
P 1.7542227770384153 2.68689902400499 7.860999335217195 -0.0771102120204414 -2.616697562086242 1.8038345558949578
P 2.8346116979166447 4.857919715412256 12.885666589921732 1.9111032937766506 -2.2443869119337085 2.879057299539229
P 4.565691120296217 5.930364043763544 6.116371545224712 -0.7561035899130527 0.7537417745490955 -1.3340029912761155
P 4.416531395602868 9.031800556406505 8.008906840802725 1.0242467668170359 -1.9781139554692448 -0.42357664741636086
P 5.64123762287231 0.9599148499160921 11.957760881610621 -0.9732607626874723 0.8340342409522604 1.1689587371468515
P 7.825943820692061 4.955297720956783 12.37911369569492 1.991980686149008 -0.03291911932552395 2.339329267039565
