# total energy = -340866.303388014 ev
CRYSTAL
PRIMVEC
9.27981669915559 0.00000000000000 0.00000000000000

0.00000000000000 9.27981669915559 0.00000000000000

0.00000000000000 0.00000000000000 13.58194975745841

PRIMCOORD
 96 1
Ni 1.6862261998347283 6.279289999980006 2.856990137306339 -0.22618662996653946 -0.3703828370022008 -2.168819618920355
Ni 2.7931969658721014 0.504148309929069 9.694537202015653 -0.6356160393482407 0.033593262574413106 0.11962134590977462
Ni 7.694861068014001 7.867474937129597 4.29631011205721 0.43162548586276633 0.2682156820131317 -0.457095862219729
Ni 0.8293511318565917 7.181724327698105 6.942712442620517 0.709770511174468 -0.05663086112016698 -4.267188954338947
Ni 8.564853156797195 7.12136840034324 1.657662924250738 0.31918677374436 0.18604631030222796 0.9736042620698201
Ni 0.715201963466875 2.002593708349802 2.27705449295008 -2.3085580472949787 -0.33284318818553 1.3181770799874524
Ni 1.21509918939821 3.8829907913292385 13.083954034464542 -0.2594924432075208 -0.4869818511458838 0.025167500404563108
Ni 1.4711571696415642 7.6324914204506475 11.151106499916464 0.28271773228404856 1.3799522043127201 0.043143625267009565
Ni 6.567864457691296 8.521117381024828 0.25513927839708556 0.056921395777392296 -1.2078749545960745 0.4624532698769004
Ni 3.514582071158864 5.912319651387123 5.562297031903739 -1.7880415547267594 -1.6001245097643797 2.9693145904645895
Ni 4.930979042872837 2.3660562862569323 3.673278999275983 -0.5903206578455511 1.428171444330424 -0.08040250961846798
Ni 2.2188319954382174 1.7793398798898805 0.667945425265474 -0.6758113806202038 -0.8531802177530919 -1.9586602176200072
Ni 8.563210629253867 1.59271348766453 6.989543037238649 0.38465271665765366 0.41413221417400936 -0.2806027428235748
Ni 4.754449091139812 7.436371775813854 13.063323146135 -0.7760466086938829 -0.8425669610136198 -1.1215385959916748
Ni 5.264170858936245 6.4896077640591345 4.384660462236708 2.9312625207878744 1.091528679893146 -1.0276822748611463
Ni 2.5641710914689564 4.04231596303214 1.4637806434031904 -0.9841344721771824 1.7329816376381382 0.6106938221852644
Ni 2.422876603476157 8.853242018175905 2.9600768362926524 -3.2494306234597325 2.144609854443371 -1.2204921291394528
Ni 6.212261884468908 6.080729763569792 8.77558294473465 0.6680019118781141 -1.0666820531631114 0.061587690904810054
Ni 5.049148227826226 1.7287277599954416 9.092490538577529 -1.4670974319716605 2.325055016508738 -0.8995024978583993
Ni 4.930700648373967 0.5047774814965137 12.53669633638556 -0.2678032770660614 1.0273837697841208 -0.026543811926799447
Ni 7.636871493899525 2.2072136650187386 11.571984231288738 3.0754787824281933 -0.4728256142501598 2.027206599230838
Ni -0.03962760095071923 7.060928954638714 13.012309210180526 0.8514251827351982 -2.1421932745820786 -0.3774171181411629
Ni 2.3756980157344394 7.052540000406119 8.835574175295996 -0.5274250467625949 -0.511589622392235 -0.7088459424776695
Ni 8.081885100342102 8.646756818364544 12.186689492590446 -0.5947486117099177 1.3335353076110774 -0.44473476955121466
P 7.505562088599504 7.712826793007699 9.200711760104657 0.5528859100378607 1.433105391296932 0.8545066498739993
P 6.912303411509023 6.066114052379153 0.2388235048000187 -0.3180688580898329 1.6709293483920835 0.3873778288983006
P 5.603747188840389 0.9058344525309547 1.3679739605623091 0.46089132470641914 -0.24525367390031955 0.6328220215428714
P 1.3322383147057828 8.769872145581179 8.158609696248819 -1.2877295621308724 2.8117519894243514 1.0438061770062024
P 7.708623036074772 4.077699903838428 9.389256290427216 0.6815770794593874 1.338650517350456 0.06621619081575693
P 8.209352661557727 5.554703357956247 6.017985211414629 -0.1423396134428968 0.34644200991588725 -0.3054915356454545
P 7.564544603093281 0.004552678038175972 5.800348455960227 -0.3519914789792067 1.0834456457746955 1.1120666519454978
P 2.6386416199164944 2.430597410911466 3.117056998333411 1.086070227881736 -0.08549303676749792 0.32819051990486703
Ni 4.218780956048761 2.486294870318584 1.3229306586269192 1.5069269052637726 0.39538347281159647 -0.11417729207606789
Ni 3.747969459377628 9.02721074051933 1.1634922731611448 0.6217143416654841 -0.1079127992235948 -1.2623057227411292
Ni 3.3441211195011906 1.0340778064167613 5.029151150972443 0.2734036539719743 0.6235866189875325 0.4298989900899629
Ni 7.700716632306884 0.5135849554590755 1.7598132897391876 1.4856713383191058 -2.078149408827292 2.184387391451625
Ni 7.8070169317918126 3.4697141577577613 5.220616039588142 -0.7563095352762716 1.2762621849212215 1.1631015070351258
Ni 7.871418859196911 4.383646178279161 12.496453483592338 1.2324734698710451 0.2101437175710639 -0.1634026047607831
Ni 2.482555104217106 6.301051169974957 12.878295666314823 0.04432761827278173 -0.8293190948647783 0.592411993156941
Ni 3.7560336200282083 5.052238406763674 3.339122082283161 -0.44204025343818715 -1.4175551022671586 -0.7680648760399869
Ni 5.870857430688854 5.172588348624873 6.5169860070596055 0.2495381602082864 1.375579014945689 -0.5388538574248268
Ni 4.416997839243703 4.307950714036598 9.077550033804878 1.0655613092951066 0.42931380701045424 -0.3224343341473802
Ni 8.225081950743842 4.544762354591454 1.1934632969277505 0.16697078172801566 -0.06922720972793883 1.1311028426413423
Ni 1.1129284083131763 0.2517836967040476 5.798215954098888 -0.809621873546167 -1.4054570334520442 0.06482085313012707
Ni 7.56690167651704 1.9860663549335944 9.376190308613618 0.23027185577950665 -0.4200912599709217 -1.2583505947481233
Ni 6.073510066232449 7.026203880813084 10.999490999868918 1.1834173357743423 2.12087343005838 1.060726606910625
Ni 7.769721348759955 7.472247546901478 6.958549377679529 -1.044625073363072 -0.7403735807723056 0.3248784248124985
Ni 0.8383516260050362 8.959718634176783 0.7167442689906109 -1.0085800068140567 0.2180945969870244 0.1482778333042027
Ni 5.9600828675764665 4.172159157304782 2.2298842570433286 0.948881048291527 -0.5136873854615283 0.8110696617362869
Ni 9.1707695037696 3.9758817557852955 7.197075000365757 0.18544518638311933 -0.24275764695134322 0.44487977976951126
Ni 3.4911226947208105 7.950176662927036 4.538463215063706 2.129254197922907 0.9752919341848881 1.707776856237736
Ni 7.588300933663461 5.56710119297256 3.6438879640486883 0.6726586939238351 -1.2565050568989522 1.1064919860711975
Ni 5.3083056668236575 7.92756174980222 6.274195380650699 1.0428137311859458 0.8242203401856321 -0.7746777533708142
Ni 5.66032623082726 4.3914783435140174 13.24803696815312 1.4544864280758694 -1.8425306869135751 -0.44083337761427954
Ni 0.5848697228578859 3.6916038531732234 10.802444301550889 -2.0245408794732165 -0.015415820334437964 0.6356960006565568
Ni 8.128664655968775 1.4009739164766133 4.311142042975303 0.8510747413743148 -1.1293745470963261 -1.7640207663321297
P 2.9262138574318532 2.8171296129582326 9.426375556943123 -0.10388645167302107 -1.441219278653318 0.508052555773254
P 0.8018281237167096 5.611068964160652 0.8705590855792256 1.0819950293710978 -0.0517215967440077 -0.0809637814385767
P 3.636713737812826 4.294114507442794 13.063376969071447 -2.156756259997918 -0.3468037641306802 -0.19267564269328752
P 0.15020311195661695 8.919611266706346 2.859000145588175 -0.38773701200993227 0.030936027457224142 0.5509521833502576
P 3.8525065937030503 7.180629309335885 2.524734654740794 0.8790964233982214 0.06761847047992225 -0.36926800667146725
P 5.71230248376616 2.363522896317222 11.206901397398186 -3.1095937218340315 -0.23019035180929387 -0.14621992233390949
P 5.469143448637082 4.377280224071683 4.567148056245536 0.31743842359468555 -1.4534050220862325 -0.47845427329084694
P 9.189050742528684 1.6647155848887603 13.221959755444031 0.04079286564664587 0.42619403043454984 0.9232957436232552
Ni 7.349392054550456 2.3103588268498143 0.6940012943963147 -0.6593285524738323 2.306196746151654 -1.542770654435259
Ni 8.166767583047353 5.973343725539274 10.749393445846355 1.0102234559547503 -0.10949222789557271 -0.7508999342249262
Ni 0.710612166162183 2.326060276586043 9.035555151632106 -1.6261237620416187 -1.148995406651047 1.0992779848212617
Ni 8.777379517234019 0.11029247659871394 10.22515711686054 -1.288149937497743 -1.2725130022914344 -3.152641959173758
Ni 0.23278420013788065 5.967367523630212 8.543413068457609 -3.2064577194426325 -0.7382323660595866 1.139469726548799
Ni 2.983572404015559 8.440225219470038 6.890150633252331 0.9467190076432019 0.19960399438200463 -0.8306797226577307
Ni 6.379595537922616 7.145115451096791 2.47309618712719 -1.6116906173354244 0.5917015973534778 -1.8904920452842024
Ni 1.955944070155936 4.473641839946977 8.264140698935204 1.2611412701193827 -0.5206159942605615 -0.10789737260462709
Ni 0.8561930014559067 4.894166010305685 4.991638420231467 -0.44951779276215487 0.8941479184147053 -0.21191906430393181
Ni 0.9801899112522935 0.9732857276803348 11.457665242254711 0.11026330173364238 0.957310410005803 0.777052424250578
Ni 4.673696126834457 8.521906165438292 8.707931225546083 -0.3241086365260096 -0.3252010982592399 0.5125195904056722
Ni 6.636618619095383 0.33659472482125435 7.780555534674286 0.6900113262696697 -0.7560151439643045 0.4527311574931299
Ni 1.2434768686496207 2.3972921490300685 4.935340556688455 0.10752456264624062 0.9602527804635785 -0.17205333845724563
Ni 6.088079378339941 4.7138777328379255 10.969936639868953 -0.5366501649052887 -1.572098713975415 -1.1445733663239512
Ni 5.346983942533233 0.1030597875180895 3.604947997510176 0.5999846632978764 -1.0297466135893427 -0.473589746109694
Ni 4.052755756739739 6.508752025764713 10.087055813769773 0.4407120215450668 -1.984775683760137 0.8880896280357673
Ni 2.8403198747140452 4.434406775239664 10.914699459366632 0.7251981585834478 0.43481391089307697 0.9186962971780308
Ni 6.024494074798193 0.19541252260966568 10.313806277135491 2.009016301475056 -1.0071026509375816 1.8461495146130853
Ni 2.0085049515424602 2.017459974589423 7.388607631642849 1.942598021950822 -0.30771913942439266 -2.3103845589807563
Ni 2.9864677068037992 2.0451138281437733 11.788181687183984 0.954019397959357 0.9702474297824452 0.21453850420464984
Ni 5.975023372349119 1.7304816453383183 5.783899980985366 0.38874591289042076 -0.0826229143085545 -0.34686778459939616
Ni 4.66967796623411 5.7512034750748295 1.1248965878195676 -1.295100400673647 0.8462505805127941 0.4038449733153884
Ni 6.653405807377202 3.3483619957006328 7.603093889351713 0.6984021214365262 -0.5983389001643373 0.5987137670052527
Ni 4.3568553476713054 3.3404648717493735 6.947018277536363 -0.8512040678633276 -1.2785982892535657 -0.8872928431660848
P 1.1717902851907755 5.66984732268859 10.351741239533085 0.5310485024477951 0.965908436087459 0.9616458041563632
P 1.683163860347166 7.035186743309934 4.727347386674886 -1.7155292464896452 0.35844649057593103 3.1536760568652267
P 4.439074523004039 6.651187931202877 7.7344858850197316 -1.5139169634283605 -1.728010923896424 -0.26829615754207986
P 8.144124830472649 3.4283168957758963 3.166645554453674 0.4451723713092655 -0.7537690282426052 -1.6846713805685243
P 2.3290298179073154 9.236684041285223 12.803907728235282 1.7285457133539714 -0.09969889595423476 0.014433401816510625
P 4.116916408912483 8.326723782281025 11.04141906736196 0.3920186701044216 1.0030397937221176 0.2947921469500794
P 2.4840027556112267 3.9827209806408512 6.063036865184985 -0.8630871924541588 -0.9198450660704932 0.6089369873951578
P 4.5598977355133155 0.7888734997026582 7.134734120233955 -0.9026269024199939 0.5887638548813925 -0.9135931716235105
