# total energy = -340891.24938675715 ev
CRYSTAL
PRIMVEC
9.09093754811506 0.00000000000000 0.00000000000000
0.00000000000000 9.09093754811506 0.00000000000000
0.00000000000000 0.00000000000000 13.30550602771980
PRIMCOORD
 96 1
Ni 6.805475743628111 1.9999607750727573 11.2291022499232 -0.7460428632429409 0.16743949383431808 0.08510068642508568
Ni 4.917888045855629 0.26897447418420956 6.058316143595667 0.06507050724708793 0.09977217239433141 -0.595017291990272
Ni 3.0532276922261223 1.5639503260477134 4.529061380165582 -0.22565698271531462 -0.536400767898644 0.5151806821776032
Ni 3.611838523135442 4.2636405534141595 4.974955496340603 0.22297429367682892 0.49638231852417736 -1.2954552129099044
Ni 3.7343661775204535 2.7194811981036606 2.6556055445938362 0.5964630232978632 0.48599043376689205 -0.8985655878664267
Ni 5.252179996222571 4.804751329813081 2.5676698161400022 -0.48576443379901507 -1.0323714528066994 -0.15992287374229877
Ni 5.342234822186211 4.792914929307866 11.651445383649058 -0.90009616557834 -2.008854321975895 -1.8593490440224947
Ni 5.847854578944303 8.033925024633618 12.291133739831618 -0.3454320805941341 -0.278005928630676 0.20674214808868266
Ni 1.9286514620444126 7.024858245157944 0.4210331296453653 -0.3372009509335935 -2.693581259918174 -1.4734364868158107
Ni 3.0160093944777744 1.6835688804621654 0.304188220234094 -0.8250808884137145 0.16469201299616798 0.654895199292827
Ni 8.31097134214239 9.014000804715183 6.555236782348046 -0.30118570918124904 -1.0691801369946168 -0.19619933957582986
Ni 8.749481798954633 2.6300536468211733 1.3568824083307551 -0.19717327345332494 0.16537901176086356 0.12405469909077989
Ni 6.994376332028923 0.7971543012139929 4.708884667564509 -0.6454085999586304 -0.7553471713630023 -0.8811592194645211
Ni 0.6616466063978401 7.712342204763058 2.2351124166305065 -0.2979420054329708 -0.25302097655056427 1.1782051954457837
Ni 7.6846330275434775 4.160194776648538 3.616782174897912 0.5976524156202738 -0.5993274893298517 0.6372792859832767
Ni 7.7502605046918225 4.022485256792168 12.276750967758423 -0.3964515090647947 -0.08788904780350026 0.55086502295309
Ni 8.345535086167601 7.330159196130777 8.947713325511016 0.03640630654317601 0.5894459685500816 0.5062797801435475
Ni 6.500302065778989 0.9238028775260504 13.55245585050445 0.9642472463349523 1.1584853484193531 -1.1472275161173469
Ni 2.0091880765418764 6.776684744856977 9.162423994306879 -0.18107971032557202 -0.4202866638111794 -0.45875833752381634
Ni 0.28383452047132485 5.197998009270897 1.2415965946849559 -1.0676097071837032 0.27411610665796665 -0.33359189342609646
Ni 6.5844841461770605 2.0170062827127557 6.877575968210951 0.45471167825826847 0.2174469361006965 0.165245828617109
Ni 3.43442887961834 4.656332685690088 0.6651847992370333 0.6538690720211577 0.16374199037807283 -2.280489571193537
Ni 6.139319123182162 5.783608924281973 4.67725820541582 0.1777195356040875 -0.9987558216347832 0.8787141003581382
Ni 4.984670072054791 2.66455375428453 9.902277207944513 0.28449642145102616 0.1443209055389837 -0.30309295350629095
P 0.3055173152831434 5.812190831492723 12.166660624841295 -0.5455793490741185 0.24758695001918649 1.6556981332646261
P 4.128140131347934 6.339337928032957 12.530140847944098 -0.7753989478075548 0.34574781206234 0.8932819708699841
P 2.5828716816736583 8.729836283215947 1.312786816433256 -0.21617809669060192 1.1625050111017075 0.5286537769633735
P 6.554611325854376 7.769251472937133 5.63356482055043 -0.6689102826249964 0.3575175510037585 1.1106214348585388
P 4.784033083460251 1.2522766279518731 12.193405253601886 0.08421468427570658 1.008718846384766 0.8334259179443
P 4.1957039781641825 6.166564662593935 8.15297539546007 -0.8988864615409552 0.6464031026614158 -1.631170580436907
P 4.953488156745354 0.8720599890809421 3.634718594403894 0.06003885836045143 0.7951216230474629 -0.4347406344529803
P 0.252057148761664 5.791763495136949 3.4133679049252286 0.15657735430883357 0.2553048874887345 0.6082744141104944
Ni 0.9939849143158033 9.039100882898667 4.663060888465748 -1.03968675552119 -0.4073357600774662 -1.7382333729553807
Ni 2.123197522575593 6.468920149846576 4.705891021876053 -2.250662203419459 -0.16623390356199114 -0.117184711443824
Ni 6.1146008643698115 5.845463662405999 9.04537544789767 0.8259072409697519 0.17159491076358838 0.01842246837124569
Ni 8.889327689101883 2.3431436622247226 9.839900650013266 -0.06545900093475823 0.9376980350915142 -0.2993782236588651
Ni 2.379180138110031 5.372353097818911 6.827946722713202 1.0429697971478362 -0.11642392201839948 1.6658933286300728
Ni 0.8945900592591861 0.2211152341997984 8.891391331893498 -0.4936741755643949 -0.6108174922473222 -0.20067537306931243
Ni 1.617223219258588 1.2547129991772168 11.229766797447725 -0.5447756222259005 0.029495181245639525 1.432478042125578
Ni 4.188722138234839 6.883130530967238 1.5736821745429763 0.13058607245139447 0.17541968382631723 -0.5522683310585199
Ni 5.723963283948092 8.10474342704193 8.079741530982451 -0.2608939515407378 -0.9081169790002876 -0.29414114362964183
Ni 5.429007819745562 2.6473991553956355 4.829565952561955 0.09109341367341085 0.9932819430044053 -0.31681801640186724
Ni 1.0481032647056219 7.500959728152264 6.820907609878188 0.0073150456041744995 0.2104473648544118 0.05340206977022415
Ni 5.293734671114535 4.666132716215911 6.848064058103364 -0.36636034610636903 -0.4301679274806333 0.15269396009402733
Ni 1.1966764547645508 7.71369675443685 11.48890487735648 -0.47679359775897245 0.3817028900007104 -0.39455917713808825
Ni 4.79557857396841 0.07054294700485045 10.364456829392221 -1.0095472558233323 1.0006872343295412 -1.1265743586433694
Ni 8.27221667597209 7.600605493081342 4.3655763254763125 0.15939656892518356 -0.5805244976907358 -0.34954276032839804
Ni 7.397077586391058 6.184119262728782 6.898678761216139 0.3290963195485881 0.2626857533338379 -0.32452978322382814
Ni 2.3420163859861303 5.25009817155614 2.5085005409262995 -0.1607867644044908 1.5592673665387016 2.0532626728879415
Ni 2.415234795870155 5.439689671199961 11.41652283371399 -0.33769923072625063 -0.6535034611516229 0.18224827671237648
Ni 1.025403193997848 3.405174243039399 3.608160329860165 -0.16118682805638693 -0.03420235691332174 0.2394357816669618
Ni 1.4354953804726864 1.1515490414712433 2.466880411284998 0.7277314665282628 0.3778966288807427 0.08415914844742281
Ni 1.3181404694728265 3.297773908501298 7.84493989051491 -0.7425983563377663 -0.051937826519871846 0.767471465430362
Ni 3.7934209069228153 2.5714534642892115 6.711349995893169 0.09488836193946883 -0.02932471710604627 1.3265411356814316
Ni 4.176858464917401 6.886203267811142 5.817579939188185 1.208065730450642 0.2528551403966613 1.3626551077951694
Ni 0.7260558979335137 0.29627365012669 13.522385756840013 0.23987466897659335 -0.05659486567590898 -0.7961927446244547
P 0.29920820472199205 5.715345075285308 7.939355639153166 0.5991642242791101 -0.5270998022126923 -0.18925350438561597
P 8.76244547569844 1.628159616960411 7.660232951540407 0.48301052520296167 1.5089117969042853 0.8777872176684948
P 1.8243875009120711 3.2449737440356388 10.214862727062377 -0.03155874864288759 1.1692245892137283 0.8099080373280181
P 4.018103424961512 6.167455574459918 3.750702592042628 0.7007613656973222 -0.7904918375849354 -0.5484908662939586
P 6.765511982782546 4.0622581079521645 10.038259449693362 0.5210042308379157 -0.7929768087903182 1.5540331147229558
P 6.613893328691938 8.111988904156105 10.258105589031004 1.5529262548120224 -2.1382024082551303 -0.4528859379034394
P 2.8218360623803216 8.576035804147418 5.643636670104753 -0.10211727558774025 -0.5698850156990185 0.13414010835123996
P 6.962839870160574 4.079849071836643 1.2371856718545944 1.0196450063789664 1.613433825278776 -0.5383290952696083
Ni 5.2031162070316 3.21616456338969 0.2535016987157951 0.5102899297442051 -0.9911605257860285 -0.026210339846780666
Ni 1.71621443669429 1.076557898792659 6.4714656123208165 -0.8878448590148128 1.6444004488636197 2.6090436450854098
Ni 7.317931885317018 0.5923854815675176 8.8745730976887 -0.6688004965200094 0.797371338313588 0.25601785439535907
Ni 2.898109027233434 1.6489324089376887 9.278301627977939 0.9911199023560802 0.061415169882687776 -1.4537243530988642
Ni 6.3782016854521535 2.483516826741636 2.384200153746728 -0.3510805371291631 -2.219020922365094 1.1076695513190666
Ni 4.2355222840112186 6.5981932797883225 10.295946615991802 -0.04073450160488468 1.344635274178981 0.3862843387238057
Ni 8.138898078883782 7.624078293468795 0.06452656462823665 0.5827760127290738 -0.8502635583269292 -0.503681680399068
Ni 7.550214427028802 4.0081124847501215 8.050762349806973 1.7426366442293986 -0.2401880864519541 0.48574875006973117
Ni 3.407210613018791 8.481144599482723 12.53490449914589 0.276166304318776 0.536944813327572 -1.05860904634699
Ni 0.21948341093506255 5.067152147157566 10.146432513911144 -0.22802368317527827 -1.1481808811695515 -0.9905480890130102
Ni 8.789963743232454 2.4115075115328755 5.557177309885978 0.1687366153791868 -0.10999127901917831 0.07912569978857341
Ni 3.4989018077158693 3.1195551715548837 11.832519584035325 -0.8181095993022038 0.2693842483999361 -1.1262457716593572
Ni 0.937939285195489 3.6832932911623146 12.806988073923637 1.7180823519288024 -0.8931868400530166 -0.9676398169562691
Ni 3.2810920383576194 8.741027227165194 7.834388039465446 0.19998965985619752 -0.65386958624179 0.4365218947231192
Ni 5.63573573640346 7.77085147792094 3.551332880122763 -0.11455627268204142 1.558314258596813 -0.535507052439781
Ni 3.1101278694627887 8.180734572835394 3.4049324241043464 0.29613811945501256 1.2987865912759826 -0.19333590198510572
Ni 3.4353652461713633 4.347904452248904 9.106434728998494 -0.07834896952354893 -0.17478847800022157 0.022315375667748667
Ni 7.260031704965472 6.156464631133647 11.274486936745154 0.9469095263874531 1.195534944973483 -0.6862914542159213
Ni 7.999252189359509 0.2651371895042931 1.8517403133852588 0.39159855184786746 -0.19448415665693602 1.3043466018622634
Ni 4.652759947288744 0.30466913082297714 1.460132729942105 -0.08908589632507882 -0.10273845411150695 1.1800980415931224
Ni 6.125100897076051 5.881981957973932 0.1360749693104118 0.6580715401382795 0.39270129799374304 2.028892471573693
Ni 8.366707879390832 0.19902971086080543 11.00576882699585 0.6946657943225456 -1.2668475764755407 0.8123086763497108
Ni 0.33359831184271177 4.864724243893651 5.802131709250771 -1.5392963227334135 0.4251483627788549 -0.7182579798201888
Ni 7.25022258350224 6.209310250286347 2.477924082048235 0.7646003145301542 0.48562276601482823 -1.1322770654551015
P 8.623608679603478 1.5133138046851586 3.5301100867437896 0.3912478533766682 0.47280118877012767 -0.6780657238720194
P 1.9374514894553556 3.385383272302185 1.6048568171024868 -0.8034250007068358 -1.5560501451529847 -1.4238262799878512
P 5.125934148437688 1.183767323645192 8.245422047055753 -1.0575746915452044 0.3256466704370908 -0.4188895263533367
P 8.522526546563936 1.7793419060554356 12.528477206398435 0.47785957712964156 0.3867731054347662 0.2596701064359657
P 6.354383429443196 7.936588357806171 1.3095131698726352 0.159251558706887 -0.4788710491132914 -0.07647129288486185
P 1.8169238413001039 3.29058297701157 5.719038723154179 1.3704861738038139 -0.7548663750718418 -0.053128761504179466
P 7.240568007974946 4.029876188904871 5.890361074982884 -1.4046489357284517 0.531841944883368 -1.209443584634775
P 2.6383082179876367 8.646290568436434 10.079279577465735 -0.24609699573722132 -0.08667548711137331 0.6242944436878345
