# total energy = -340871.72584020556 ev
CRYSTAL
PRIMVEC
9.18630201647450 0.00000000000000 0.00000000000000

0.00000000000000 9.18630201647450 0.00000000000000

0.00000000000000 0.00000000000000 13.44508156674812

PRIMCOORD
 96 1
Ni 4.88724128300027 8.884945382473855 0.9975635021337911 -0.42836609838520423 -0.9616967119989568 -0.44959389741572886
Ni 1.563444299732084 8.491881891631479 7.866596034758849 -0.35662049311078586 -1.2606540460703193 1.3673350297693418
Ni 7.980563134882451 2.289116227821582 0.01342761766299664 -0.5141733239590113 -2.220647402224924 -0.7573708866612505
Ni 3.4487582496496203 3.967646519263334 12.846950593666556 -0.23273445838738627 0.5443477906598625 -0.3642772383250952
Ni 8.023812244793778 1.7373501832774005 2.363282755812257 1.729552300241615 -1.0276149119583207 1.136738957881197
Ni 5.10605899712258 2.5605530799158727 8.531011863716929 -0.33632034810085304 0.7366064004203895 -0.37136936928518627
Ni 7.868086052946533 2.229570618126334 5.572985867988962 0.2875298089607113 -0.9086903350052544 -0.23913830503120104
Ni 1.1105044923217313 1.390227388838286 12.295029300618232 3.8236212085126406 -1.7742046488436671 0.9442525483805803
Ni 4.857036721957694 7.50656832324169 4.605895166916737 0.24001993630520596 1.0782754144276656 0.12210066068820262
Ni 9.20651188469264 7.243931948482796 4.930620838400285 0.3066457038545558 -0.8039621041572284 0.6948110616511581
Ni 0.14715629069255626 7.36105729924096 0.8306557434674995 -0.06192296275704174 0.9196907998808161 -0.41515397057030434
Ni 1.774325048908899 5.878167681924432 8.854003161379055 -2.6647836189601914 0.18533231495433888 -0.2730508986182459
Ni 8.334676705158975 9.183812532400607 6.732073037174977 -0.18529529106881637 -0.9330967888740769 -1.0359046627709385
Ni 3.1528031574632878 6.015208935462493 4.612631482188186 -0.1729416545994699 -2.359482602058988 -1.3790224934095991
Ni 7.2000030522219705 6.902743505148762 11.77809312018382 -0.3574388752470231 -0.7564586592596263 0.27963549381429903
Ni 6.739796879913602 3.728591381790418 10.569918027522407 1.5446375324406687 0.5938602955676933 -0.3807433543009185
Ni 6.997775799548229 5.982202552303741 9.458789785293503 0.16373067752416318 0.007216829463413377 -0.25857893025431594
Ni 5.503182833457905 1.1694621786876838 4.6838896269592505 -1.1131480579351343 -0.026480819899347943 -1.3970940061993293
Ni 0.6758674730565211 0.5703811669580122 9.874095150587301 0.48046461885265646 0.3662564735386531 0.30138188435245516
Ni 1.2428148003193646 0.10778196297336885 2.715664708157964 -2.5046763971212282 -0.7383971737722251 -0.18113498904353967
Ni 2.776026980102812 4.060740503936528 7.70331870265096 1.2989483136648274 0.5838504767401751 0.8503422340836645
Ni 2.0121584082131223 5.757230015827866 11.33807568382535 0.4821990850452598 -1.4870605053571486 0.7832276998233543
Ni 3.5641290167219166 8.526688789986201 11.436224890500288 -0.2387636953006017 1.3215462535700016 0.23146536186697556
Ni 9.261078518692914 3.168621969542155 9.069863804881045 -1.2790554313956424 0.8315644392555291 -0.8111804762825384
P 2.7392542131157587 3.970668812627996 5.658268740054338 -1.5769105335417617 1.3391436549367906 -0.671008817025238
P 1.5339378976430469 6.488955716948707 2.711926801865925 -2.0862686955003165 -0.8414559873376284 1.0518326468551047
P 4.842173285288933 4.7032396535347 11.26884679317056 2.275645098617042 -1.0916019563332426 2.0871708955996118
P 7.4095334150018095 1.0941804336317504 10.837098865890718 -0.6783035509144383 0.9840395984705311 -1.1809084533095597
P 7.584734567131981 5.995201169662392 0.588072147388606 -0.6614401995001963 0.8183129735622616 1.500181873230455
P 0.3023092572937385 0.39713302263734535 0.5135675634835859 -0.9615846119011245 -1.1354318090339994 1.024612634796887
P 3.4450286110294 6.866650524511208 13.138748884188725 -0.24116279166039756 0.6617749571317958 0.5075948994105451
P 5.005073979013992 4.697498214772045 7.965431458194698 0.43615191297821015 0.2243950852837555 0.9919575677660272
Ni 8.190387459326939 8.1275347809044 2.754587988447957 -0.8268775753028211 1.2074674347450107 -0.5926143389757342
Ni 8.08231980236074 4.7065099770539085 5.716553070482207 0.11618712341724506 0.32913025811031704 0.886133532750661
Ni 4.43476997699295 0.21767034499998061 8.883460876067383 -0.7817462301818214 0.22200293090249507 0.49505665773421836
Ni 7.104272598868965 6.629515324160524 6.938092395322677 0.9453586369605653 0.8802598475787033 0.48758194662372795
Ni 0.18166647149202225 7.052471041776785 10.62618596465683 -1.1023514815402629 -1.9469987221216787 -1.5382773945505959
Ni 1.671640564926566 5.6985846637306015 0.4449339451997063 1.0066789331366017 -0.7856630487377243 0.2715192924650679
Ni 3.763995389776454 5.36488305654307 9.743583520525233 0.38544050266627167 -0.5438101729888376 -1.3713986583157542
Ni 3.728894529757086 6.93968162557218 7.959380441053962 1.0237343459569916 -1.1134596756382824 0.8976921841225379
Ni 8.96583995806416 2.5952038111362485 11.346505953189332 -2.3425341471301073 2.7585453234943844 -1.7909163051713932
Ni 5.947487516969224 3.6368294109101598 4.5858754589240105 2.13831399413233 0.4514129529023387 0.2303749570162742
Ni 6.36281860390868 4.597542062489725 2.094824102832931 1.3855978326342717 -2.138543850754949 -0.2152779534738357
Ni 8.69737946782443 3.8012090992604795 1.458912450413479 0.7971419959116013 1.5390060451865044 1.1237669711015614
Ni 7.2578767549495335 4.085084204290186 7.8298646061308865 -0.9960841883398909 -0.16122128083874815 0.13640293624348768
Ni 5.033027896061607 7.310293794277069 10.252668168622936 0.9322411257420009 -0.5992354438366776 0.17791931031971941
Ni 1.379461042870555 2.1822244175139756 1.261076250105416 -0.19138520601663814 0.24613581939495677 -0.318632958123419
Ni 2.220320011991944 4.245348429335435 2.6583614747858584 -0.31132588293904445 0.008082777008134468 -1.3244775682841836
Ni 0.7064009037114217 3.3216382022934274 6.604627794727267 0.28954323984631425 0.3946013432299333 -0.538474362598221
Ni 5.611011646571576 9.028315998103867 6.667187430115359 -0.30195935412248 -0.8984779132486268 1.0809581034661513
Ni 0.9955011773302456 2.512536279256036 3.688792646917895 -0.542547247116014 -1.199588031996934 0.8304778910595697
Ni 3.2979467293832077 0.7110546843148794 2.4640803733596313 2.7897762564842083 0.7964490836096348 0.4129510493817146
Ni 8.229971234732187 8.209403104508851 8.912044973433588 0.12441671041588896 -0.04917749016591531 -0.09766361069176084
Ni 2.1852283382745963 1.8373522670698212 8.191536665709672 0.08321092560154056 -0.41782046165887393 3.0748241795633304
Ni 1.7744077256270814 6.264240396929399 6.347032862517086 1.3357662538241253 0.11683298453136007 0.44979238657978016
Ni 4.085699686525542 5.092821535911402 1.5228436006931936 0.08805231285424191 -1.250692306871917 -0.4348144251137092
P 1.2801020002195518 3.709630854420626 12.98535417579422 -0.48587524834526646 -0.9710223602752568 0.32112101465259535
P 4.942827596524791 5.444620158078823 3.5320366706141795 0.02149493664898234 -0.6266338904542885 0.9351837533100926
P 2.8363901706778623 1.2611322865477392 4.4643048566182495 -0.28217754350986246 -0.07797435979294957 0.4755481553876455
P 2.769688431708841 1.6388822119223614 10.362931351771975 0.8540968160300902 -0.6111406799146959 0.4114790928218784
P 2.2371033857829374 7.681098875324383 9.933804276458511 0.04839896012867794 0.507774619521519 -0.19764301400089188
P 3.403258495743332 8.473086717698052 6.728079751686775 -0.1288428645080426 1.80235874268038 -2.494415124404536
P 5.891294907511366 2.032478508281911 6.542026820980084 0.7772699395780226 0.9852575300380323 1.2852119379153415
P 8.826345961886693 4.79432183806546 10.481570605103077 -0.41644337880568927 1.2460388672603058 -0.667026178228406
Ni 8.652265538602991 5.882237213719401 2.7676564217019624 0.12823222750723723 -0.9580161778235758 -0.8388170070528844
Ni 5.827606275604986 1.9608804703360976 2.3743614360486767 -2.0734702581840674 0.05954932031854261 -0.790694954734677
Ni 5.962626542698593 3.549265580053155 13.06899545568858 -0.46376581804073674 0.31200079751888204 0.07367958907233761
Ni 3.813289086417105 1.5909664605847473 12.600569380332491 -0.9941237221794104 -1.1037007964793057 1.5477485672658249
Ni 6.991428064852238 6.186983596939112 4.3802465186121715 -1.0574816176107658 -0.30646521241263347 0.192278664365185
Ni 3.3622508435249445 7.112907722767997 2.340237079934061 1.7953193193350951 2.239785408605955 -0.2756646820920091
Ni 5.14828842750966 2.209103537225221 10.938716820208501 -0.32836664047141517 -0.7778001010498798 -1.0132784407309905
Ni 2.441516978337498 8.229759949785722 4.636778595678609 -0.23846107645851838 0.6548440343399174 0.32256443196734125
Ni 5.278779847707284 5.514583034265032 6.065748294657089 -0.5886155022289863 0.0004358019858379591 -0.4041450210543104
Ni 0.9066411592581837 4.845939669117235 4.486569696824724 0.15908109456729377 -0.15645908356341443 0.5354024085411165
Ni 5.5133888150024 6.114567978113496 -0.0012309644707132446 -0.3177461846430915 0.391821466491951 -1.4230744894234912
Ni 2.5791645278088957 8.773092969075314 0.49590597921945695 -0.47031596045442875 0.6302344633213534 0.5646798173489953
Ni 7.090970833543646 8.442827038843355 0.3809127691601933 1.2646634243400285 -0.11291282354134748 0.3354068351476482
Ni 3.854223248219331 3.174537948043195 4.112164504015675 -0.9458985686244353 -0.7856288530656792 -1.5210474038255548
Ni 5.7986969831472654 9.088991522947607 11.905068942598296 0.5046126768537696 0.021613721615033745 -0.1548745126851139
Ni 1.477543189540744 0.8859719797126254 6.185302503669406 -0.449883917852322 -0.5226829040919192 -2.89459910392857
Ni 3.629324202159617 1.9510419408724118 6.557637104003092 1.877424927687599 -0.17291594356785706 -1.8811165176065734
Ni 7.417525497759425 1.6307798935405022 8.57626818061968 -1.5274569068963244 -0.6106267163927548 0.6391456497680541
Ni 8.568605886104592 8.803214853399709 11.815537405848554 -0.24489037702362984 1.1212863707715528 1.1809020255516567
Ni 6.070629895550649 6.828325272482732 2.2735766793241305 0.13292551921784848 1.9527399954808307 -0.9127501068969247
Ni 8.601795995303748 4.815248234067585 12.68048653338784 0.4778901732572608 -0.7125221057776762 -1.271253161742404
Ni 7.039711268270661 8.459931933205057 4.789595485676043 -0.4671331918510729 0.8101432932672756 0.3428938875533127
Ni 1.5333959058238522 7.847297451474711 12.190359656769322 -0.787955701426643 0.2987868699317693 0.6078913197394629
Ni 1.9992700264787142 3.6473293541193033 9.96771275447565 1.438405977574239 0.11085568390200262 1.67088641096929
P 9.28790252059204 6.234871789370666 7.441718542759951 -2.9562148198578377 0.31479687220678043 0.38071481505582816
P 5.648969446519241 8.8444521631686 2.989661782625298 0.5030990684227206 0.6350000030307967 0.613250270058531
P 8.107040141097228 3.6600340098133066 3.81314578010559 0.37606934586401686 0.34834179804176135 -1.3247513907708606
P 6.1514693533288325 8.052877704385844 8.621322398877988 0.21573920938097038 -0.3683313537898108 -0.526061590756165
P 8.991993359915806 0.09660958245634314 4.423714262511582 0.5749063801730099 1.8043284648122409 0.6614787660476156
P 0.14176852455768074 1.523979946253098 7.737886757153153 -0.015608910181850537 -0.56510919157693 -0.011165786808832382
P 5.873758256954712 1.3602249264401556 0.16276657371556383 0.9009389731946097 1.1273068659340197 -0.7017173018526882
P 3.5057684399872806 2.561389033399715 1.3104452744226331 0.7282762832881393 1.3501261220902232 0.16461230879816813
