# total energy = -381165.52624939405 ev
CRYSTAL
PRIMVEC
9.27852428407219 0.00000000000000 0.00000000000000
0.00000000000000 9.27852428407219 0.00000000000000
0.00000000000000 0.00000000000000 13.58005817734529
PRIMCOORD
 96 1
Ni 7.574523376171251 8.84697093087787 5.832580632221119 1.5623958848653543 -1.0943759195339537 2.4783040777752867
Ni 0.789899337367809 9.138799079622082 6.594679654846864 -1.0046526467351924 -3.169540277590993 1.588022584294523
Ni 8.212811625198716 1.8530883317721196 1.9796603942253597 1.014942972917607 -0.08575837461374264 -0.9629074444776062
Ni 3.8355842430474674 4.3979927197097375 1.6477091225123497 1.9047786371102036 -0.6124905090743711 1.233575187575656
Ni 7.306355464591534 6.615170348083756 11.144529343792966 0.4991963909342048 0.6410379816947606 -0.4400378782961777
Ni 5.125271296048846 5.651929618281781 3.538610224683086 0.38496330591953704 -0.20860491232903428 -1.0310974711902825
Ni 2.8437842152092885 7.721606544615014 11.525911954131018 -0.2881535585876392 1.0735389281839447 0.3488670744176121
Ni 5.610575235127992 8.268055959346722 12.124819362139945 -0.4824682795462465 -2.7112804769701504 0.1530963377387686
Ni 2.032358701283977 0.619631920060152 12.722179112282584 0.6903049462506885 0.31416566638068477 0.6214667444310522
Ni 3.3483596494220267 8.954657484811653 2.175118077367484 -1.1582498353697794 -1.3321430552492415 -1.6233847658439007
Ni 2.9192650110262215 6.0994977987146495 9.790882638695107 -0.8065013256393142 -0.5334632825368748 -1.383864909103565
Ni 0.5626589968204824 0.6459411759346343 4.556231458013452 -1.152344525628938 -0.36507916540110025 -0.20216661290285828
Ni 0.27359306478366974 5.331607121172011 6.411675607125204 0.36158066532953853 -0.18001861605090932 -1.9166676752383056
Ni 5.9902338956365675 9.110378959451552 8.01767961826227 0.12972526711299595 -1.6706141311445097 -0.5634883681440552
Ni 6.368704905024728 0.6491988658438322 0.9678150423204441 0.22506254366442532 -1.9550447323546074 -0.7693008053296171
Ni 5.989074080089288 2.8383748354967784 3.8696512731545907 0.6466566134331185 -0.3144765127528842 0.13578098638877262
Ni 4.389966796122565 6.023664418971344 11.662934418591462 0.26600196219126443 0.26536587126916233 0.47800972955426063
Ni 8.947976947259324 7.210285623179299 7.627891592689976 0.2629611184824116 2.830588148294248 -1.165522971992425
Ni 8.652966264653378 1.8001450716699168 10.128863095549095 1.2958390786118843 -0.24623172154287268 -0.508554435110337
Ni 7.775199301423693 8.87770140361858 2.403629575754628 0.9914466895678796 -1.8424077881824656 -2.450335360476503
Ni 6.818481374259617 7.834145766798613 3.999449478534143 -2.0687851940035724 -0.41577900574881305 0.9898402643127082
Ni 3.7507506946572744 5.763373974588748 5.880803906972114 -1.9485372702533927 1.0828236959199804 -0.006871787419168811
Ni 2.898276988882656 2.670971698664682 11.295770219010617 -1.7461695970833218 0.33290772287487824 1.5403227071153989
Ni 2.8920603775492397 6.3782432280855526 2.440974708524582 -0.33810340814320483 1.2557915757716953 0.32487353971649213
P 6.725900258013599 6.663632080911271 9.088046479125582 -0.19452940807257466 0.8017221590831161 0.3580533689025705
Ni 9.337999719498386 -0.02026058583231156 0.4389985353171321 0.33673069616539425 1.1472722533123532 0.5554919802021402
P 2.136287452844575 1.2011328163355142 6.185051360596593 3.3226438144186132 2.5594342095883986 -1.4310631640559226
Ni 7.628032626260525 4.33472246197456 5.437985403168463 -0.05965190733467791 -1.4087200204740318 0.41243528608756064
P 1.255755489350177 1.6908069403968085 1.7416421197602765 -0.24266071636216274 -0.7626228790888092 -0.7012269924798311
P 3.4524368573726765 4.2856854606355945 4.001364565965811 0.6197173658401134 -0.21610019226481492 -0.6512753431520526
P 2.0017952419820744 0.7197063725940316 10.613643725853308 0.2797097986956602 -0.6867313699668173 -0.33863228406348134
Ni 4.127718583096161 1.1705229644117203 7.496708103620754 -0.6364210517480394 0.7082504749855157 0.0531668138309665
Ni 9.299493843328715 6.723933210845414 2.4037520522764213 -0.359006219734143 -0.5989258830160589 -2.9612562389364876
Ni 8.128219318442358 4.385132684921505 11.8677216579959 1.8869590924302793 -0.9245291018097238 -1.3120609397873855
Ni 5.229367061048252 0.641377069792981 3.1800147423655396 0.58643957762359 -0.7705207937796472 0.1138448484373136
Ni 4.058027586491247 2.29397597465266 5.262734490417257 -1.0601249687708838 -0.49264984806493867 -0.6538706146830545
Ni 6.565019923819401 1.592853558535793 9.294096525697897 -0.6544141458913503 0.482897139553549 -0.6616260902587573
Ni 2.8958181799224243 0.12146887404521137 4.239191702828702 -0.6584579769434208 1.3532322718193726 1.9870973899147775
Ni 8.20649295009714 3.643305382357326 3.2478611683240617 0.9739799002416839 0.7574269367101666 0.15489559573103645
Ni 1.6664229783308098 4.476572542669 7.944320820970638 0.5637763316981194 0.47790585698654464 0.8028120497131851
Ni 8.086614415130358 8.444357201057544 9.658952228413439 -1.5522325711791074 -0.07409147979877563 -0.044483941344987905
Ni 2.766568335333626 5.505811416373352 -0.07250702875370887 -0.6349791770951903 0.5260867875671456 -0.8374193553744094
Ni 4.544788253897776 3.2238696878392625 12.850659767200428 0.7575750322522566 1.006333633982041 0.5503803700071876
Ni 7.451081887843227 5.390386573108124 7.537910318974739 -1.9367680455326068 0.03787980576490896 -0.9535578849419063
Ni 2.089802045709623 3.6180214034266385 5.518066491372124 0.2536647807821502 1.5645322144820668 1.3463663979374747
Ni 3.811942562931727 3.6700924822372873 7.409130895571917 -0.3247838082161632 -0.28071715691425203 -0.21251298913418887
Ni 5.705578046236729 2.5735193571200914 1.6079469341418662 -0.7754531980842579 2.683306360354727 0.39112855418998443
Ni 0.12109494951276854 7.508580903415142 4.7989892027309375 -0.2663094661293543 -0.388428381650002 0.24144664144940353
Ni 4.975423127340368 4.146748836595919 10.310808463639196 -1.3218663559135815 -0.5446717496581845 0.17316714034671468
Ni 8.752413488939288 3.452446135897054 8.236658360703217 0.3661328034765952 -0.837706547597525 -1.2813023184482901
Ni 0.7858613235584017 9.252145533426589 8.980805294361954 0.4794464620007872 -0.97614322644159 1.0044934954495088
Ni 7.120951990465664 4.115266803380572 9.613499521041783 0.4471544347363009 0.5491878923609831 1.2830136447124418
Ni 7.003476593312844 6.880100054655467 0.9448070854197375 0.7926009135081382 -1.2343658017977515 0.13099899161909698
Ni 0.5411439544922335 6.333928995655108 11.193987590138704 1.6679561246963726 -1.7470301453114039 -2.416793777075631
Ni 4.010252464467721 1.1074568342128646 0.4846451638482917 -0.48584928020333745 -0.006390219797059962 -0.494144173222278
Ni 6.288640518164947 5.238747649194646 12.572635279173715 -1.4382514542742457 -0.656948739387746 2.657909260437861
P 5.832035054987679 7.215964080098779 6.131300868873484 -0.5409914725931199 0.39840349058484287 0.04426771156912376
Ni 9.121309061169113 5.650454332905642 9.066562983780218 0.4808312581634558 -1.002610419494183 2.1589679229372556
P 0.6796639727873255 5.543667795836548 3.9359082878871217 -0.2078461797861388 -1.3008964385301338 1.5982347489408346
Ni 1.3491809513146142 2.4824228047745907 3.7255121804960405 -0.26593537061938716 0.9065380645489419 -1.0380178524591994
P 1.9635677215437508 6.84488805464007 7.611608710258613 -0.535779075154245 -0.56672101614874 0.46266564299802254
P 6.785125079119866 2.4782474688043856 11.221908525697685 -0.3502235884455065 1.2259325834287338 0.5407994111869718
P 4.128646435533985 7.331704393192869 0.21453247355889746 -1.0388318637200626 0.14487240716707953 -0.9502915554858085
Ni 4.371187062781019 7.744348207866065 4.537165018268619 0.8226997897760476 -0.3102275076685432 -0.6173504082698335
Ni 0.44996575113220466 8.444310808435652 11.575315457182924 -0.13135483229661893 1.6715885792426373 0.3462913432706359
Ni 0.4524291993546258 2.4027481159386963 12.580444085290436 -0.440320442533603 0.2512507720240189 0.1082141325140975
Ni -0.25785854314306067 6.325968021738583 13.19854040956599 -0.09317960677847822 1.2146469832125855 1.6903375777153664
Ni 5.551712276472476 1.07753359309306 12.404269959363596 -0.03903860195970051 2.3368358111937497 -0.677255312155582
Ni 1.422639028817092 4.473222995368458 2.12556426222065 -0.9404401166130255 0.44683150417924333 0.6880521456607699
Ni 7.662465230228151 5.879606049474884 3.7199719735897974 -0.2778868865543085 -1.0210444578296545 -0.28060942769179414
Ni 8.34408418810197 0.9751729121523837 7.632848180412829 -1.0566951171537284 0.7553890803445312 0.9918508669848336
Ni 3.4244249922747882 8.122986230693035 6.7121615469667475 0.33561509450371235 0.5249868696347475 0.04107080189838088
Ni 6.030419184718698 3.336139832815893 7.625935679751045 0.9478029847360001 -0.60608640532024 -0.7937887631686523
Ni 4.410611512864135 1.4000365434317141 10.339204459646345 0.6888910966222974 -1.2110574660891142 -1.2389709046699309
Ni 1.856994590535356 7.821935228716857 0.4129963985995695 0.8919249426214575 -0.7878222611725723 0.1994589841637081
Ni 4.866836556541896 5.781782566955164 7.974196741616114 1.0065264667191376 0.2749982521526038 0.4318044346427918
Ni 5.300041581237259 4.3131220572220315 5.452963725072246 0.8808298611495603 -0.47863656450498215 1.2227469866119007
Ni 7.553553911076442 0.9129780353926439 4.0570422072022785 -0.3864524888705538 2.4355895696258956 1.1580505748747798
Ni 5.19738398751648 7.570273812006018 2.1036734396550827 -0.5019546704056324 0.33933599499872524 0.2582133193847811
Ni 7.91223382796583 0.7171575619473308 12.022942092319376 0.35915122995243953 0.6455538672872431 -0.7054312603691657
Ni 0.8388658219215006 3.592171434508879 10.325800703329547 0.46281219587821587 1.1466880986741088 -0.49938099614118514
Ni 7.339238554987995 2.791518287386697 13.469449197247036 -1.3982540879457015 -1.8444962952803783 -1.4109671646369957
Ni 3.1965258764966067 8.873145648148867 9.047672835998572 -1.8751603000231383 1.0913718426003074 -0.3868813488778563
Ni 5.50792691993159 0.5000438029064087 5.599696165294513 -0.4094898303059915 -0.008985234217745816 0.18071512789730168
Ni 3.473165080833651 2.008401551339377 2.544509122799105 -0.811491579765054 1.2974786710978365 0.6898321203793281
Ni 0.1008464257621487 2.562487191634371 6.041577538135963 -0.5395727378687224 -0.13334949412914454 -0.12034973943536693
Ni 8.308900023659708 4.46370322935639 0.8045788907866129 0.32916445378236214 1.0580184639508423 1.9428762153128731
Ni 2.343115039759787 3.139444394521712 0.5025657058324127 -0.5902777204227576 -1.5076830667035066 -1.6939075544548117
P 3.0424374221472763 3.5185649006163495 9.385042765948471 -0.10148015622437362 0.7088832234735082 -0.22880786963947045
Ni 0.8324738464773352 8.6871019558409 2.7298495029592034 2.1254785329305586 1.6164594994789776 -0.9710465286449729
P 6.063803315431583 4.839372124382324 1.428160678674579 0.4287890448552357 -0.22824222694398755 -0.0952395746313005
Ni 4.7928032105279685 7.716243557524395 9.687184922391529 2.4831680907358074 -1.6746664468370125 1.4255221796330353
P 1.0275965748894051 4.509446354541083 12.336790035118012 0.6761011439464808 -0.10194166924182443 0.9991309455860149
P 7.511865501045037 8.515384305172924 13.31255862853548 -0.7365171831406929 -2.043056164668585 0.19494618389501908
P 7.122566453707477 2.048187863873244 6.064229199700545 -0.2368659640572566 0.3586349524376533 -0.09398153385448331
Ni 1.5265121092314207 1.9744328735906627 8.110635586893167 0.6116366457145079 0.8701489843969465 0.29479317539134386
