# total energy = -381169.08258066303 ev
CRYSTAL
PRIMVEC
9.22499802491686 0.00000000000000 0.00000000000000

0.00000000000000 9.22499802491686 0.00000000000000

0.00000000000000 0.00000000000000 13.50171708655487

PRIMCOORD
 96 1
Ni 5.732985771465023 7.700539491993258 2.928508857983833 1.675352931381076 -0.6279207275865122 1.1078569847395243
Ni 1.253013042416996 4.8602732758693055 6.634190596203546 1.2017881249720463 0.8438980211202176 -0.6564584300148888
Ni 1.8838553127341902 3.251793381525946 8.089904521951143 1.4197081440544195 -2.1518742493152683 0.642038655045133
Ni 3.9301812920691415 2.6311447341132403 9.591525728261539 -0.033727217049116104 1.0519941121336334 -0.14778263883533901
Ni 3.149847927482964 4.363793102931176 0.30592215461131095 0.6820897574297479 0.38454293055266675 -0.40911470635475994
Ni 3.4444666919179228 1.8123062274425992 0.655950870155597 -1.079399757840096 0.8627737749787979 0.5851707382134954
Ni 1.8477117701642503 1.664097407910018 12.573190870317985 -1.511053011617004 -0.040480476612549644 -0.14658759008597336
Ni 6.9135641287724825 5.825650877415775 4.059304513025166 -1.4592758790447127 -0.3013492313423068 -0.502645782935386
Ni 6.273819735285305 7.754800930838685 13.378554422258686 1.7819554964336795 -2.7346952563496645 1.6998018084520596
Ni 1.363482394707713 0.6904772705579743 8.184389720027736 -1.5549777380244123 0.34222334384884934 -0.9506921333583369
Ni 1.5052244905696646 8.307230717275203 4.4421732993184895 -0.06453237535543081 -0.11680495950690206 -0.3467603124872544
Ni 0.5712404800695872 6.05597140506858 1.1048669528715191 0.7324975204583385 -0.8598370609479773 0.9019455600822531
Ni 0.7722494987479847 1.5532313807008455 1.159752001588751 -1.3112911515008967 0.5433913402838643 -1.0224647352159486
Ni 7.644497628513832 7.4363632213002075 10.44083717116783 -1.4413558042311823 -0.5357045131625677 0.04286363213274553
Ni 7.64385187864658 4.733457226938994 9.833071233606812 -0.48369803818828955 2.391949464338442 -0.2678562417911839
Ni 7.886967478669091 8.081725638632483 4.545717445532827 -1.8275871782298654 1.4769169891652436 0.8406262923474813
Ni 3.6718721201699873 6.699950072685313 12.512797575233089 -0.14406945164980994 -0.03671792424632386 -1.4681927219183684
Ni 8.59716318267353 4.3265333355907 11.962980308259512 0.5387839234188397 1.2290495317911607 -0.08250310090123855
Ni 5.815964629406986 4.71757178020458 1.374069925031225 -2.0731979783592878 0.3842979044213962 0.8195280769162853
Ni 8.824365660967313 3.5292259744938823 7.651788144515115 -0.7664455952690091 -1.2051434145975244 -0.42054403123762407
Ni 8.706165760265772 2.8334304925291773 10.000681146651093 1.090573000848096 -1.9130323924785635 0.6757342475253653
Ni 3.1532150517907813 4.269974872217473 5.350811627528901 -1.857188803146382 -1.5937571727854551 -0.6558529352204059
Ni 3.5622975926953195 4.874756522891972 10.84046132151674 2.1239145308775487 1.4804458282541084 1.7135263571270039
Ni 8.582919785601556 5.836739325136312 5.599391193928179 0.6214590311215685 0.21367204243929655 -1.92810959852666
P 0.9030489018594352 7.2884127017145275 6.355717423449525 0.4778567489161641 0.4836139631149155 0.022370397275400185
Ni 8.736995703928034 6.929301975537239 3.112254215211137 2.5754254428103325 -1.6343623479013272 -2.1026659059114174
P 5.196681281713613 7.166292176818953 5.173709191436006 -0.4634832538033114 0.678633166339715 -0.8387578716801747
Ni 5.254097669910475 0.29079500272101305 12.877626877734807 -0.6627195804332523 2.304955160435069 0.6075943573243342
P 7.604276636782099 6.515127235679508 1.3904203116700615 -0.8536072779881815 -0.5177636124134308 -1.0314373710282043
P 3.0115467559136584 1.4094505602579965 6.688480632543096 -0.7664589650054477 0.20582966357674232 -0.3892750459210134
P 2.5594295988557842 7.496740833888329 2.403157208480838 0.3894470527225035 0.5177980651957921 -0.4260827016676662
Ni 1.7548437142552191 3.6535604989343233 2.209799403229574 0.869901644272831 -0.2531454179435705 -0.5138593922630181
Ni 4.076858761916523 3.1566375260872204 2.7101457728729264 1.085396084632847 0.23921209569192994 -0.6153274643025338
Ni 8.122352530280777 -0.09435051310428122 12.133196283268065 -0.5156799904115248 0.7466391020660431 0.1753106690522787
Ni 9.147849444468465 8.376547353025721 0.6590901370102551 0.01708112385200284 0.19757822220122745 1.133885547592802
Ni 6.070565352068488 0.2770977255367745 5.590993678154464 0.4191828892240394 -0.268262476090667 -0.39726937698039966
Ni 8.865250852562509 6.00221734111885 7.766646750903529 -0.2565557291767001 -1.1912049501395614 1.7133561500977268
Ni 2.7441694108786567 5.423662360052911 8.667683680676568 -0.5670632299795072 1.2157641275361644 0.8158807099716852
Ni 2.928152773057034 8.788425068355654 11.207775838507567 1.5594823107629852 0.9982030344551066 -1.0040309539907935
Ni 8.446030038742103 9.013312072125432 6.442546795599933 1.8386930583350396 1.2335155379823144 1.6516740997068975
Ni 5.987466569151179 0.8994613000969416 10.44441554793222 -0.46803950571542613 -1.3796603841039141 -0.594133346723422
Ni 8.829254909962227 4.4411262620337295 3.1043825243293273 -0.28219759811452044 0.5438749647885021 -0.03599055916199608
Ni 1.9285319785499682 3.6444000758174395 10.90524202569971 -2.8183170442363785 1.2225161015480173 0.9354480627150729
Ni 4.808963836417033 6.392527010882545 7.402924448174247 -0.4962326803201905 1.336956931698117 0.7926230249953252
Ni 1.7557293140731656 1.6850935035938317 10.262763342774624 -0.3755024176169533 -3.425707255969707 -0.9984321197467774
Ni 5.317667131842445 5.384520693099299 9.559607234823051 0.4486685573879821 -0.6472731639711949 -0.6317732685633829
Ni 4.060502840278825 8.700953636337232 6.51418720837275 -0.5955484819033937 -0.4701007591198291 -0.20102067222387315
Ni 4.022136073165915 1.7417349919499907 11.750652216907987 -0.24526858629865497 1.7008330779300513 -0.15076409006116614
Ni 2.4254272764027607 7.742983708267962 8.008421958701586 -0.9181699923609156 -0.6677663988285402 -0.34930724727882423
Ni 1.2413434198159305 5.852698571855556 12.418204444678683 2.042268378659967 -1.2212403201593873 -0.32162289398967836
Ni 8.89585017127218 0.0581709930417373 2.802484313890811 0.3281054163902285 0.47753227569720985 -0.01999418373373976
Ni 4.3990694956793766 5.78019008676119 3.4585191315291506 -0.7405916103203826 -0.33279279456356875 -0.5655316238263293
Ni 6.569360999530625 2.8444359152667826 11.423748726609828 -0.3288420374459369 1.3094494703064674 0.5863380190487193
Ni 2.9407079954760458 8.791340167756394 0.16995952006127052 -0.608873481147074 -0.46614588823713915 0.7997532082822033
Ni 8.023312950640431 1.2890274350134854 4.668461580300207 -0.38307174532377897 -0.5402615364056309 0.6077571081544436
Ni 6.76054908522792 4.654509693168308 7.247262752673759 -0.25243579347105555 0.49407809587103296 0.2013934821822596
P 1.0380521366067004 4.014488549738023 4.691293450606639 -0.5061998188352315 -0.934976522395293 -0.2615498399571818
Ni 4.1944129127508125 4.1690902929564055 7.548269828295467 0.5215711590849792 -2.1593983256064555 0.1127151057082446
P 5.907827160522723 3.8809382521920766 3.7934428351785874 0.5081998799843958 0.9727403714076279 -2.1574316887983875
Ni 7.710991414844646 3.599428210062346 5.208435774297232 -0.1378196140853562 -0.4651282456059022 0.06896367165390704
P 6.125869215699624 0.6620006239119437 3.0088844214609574 0.7743710207636728 0.38892614722202695 1.2443892474720244
P -0.015566261800029737 -0.1274175188066675 10.2280367599134 1.0480567247524402 2.0178886642640217 2.347647299986957
P 5.2097438790283235 8.108026108225872 11.48315679189726 0.21265774224216924 -1.968516541588797 -1.669802690986808
Ni 2.365907588638276 0.7789625298679809 2.516234467735446 0.10953593664931457 -1.240649320813618 0.3878917924202417
Ni 0.9845010226152503 6.835179319886116 10.276008595051787 0.7573544316010183 -0.6736927916153044 0.01907501435358005
Ni 7.299805574372485 0.6432185277729959 1.0686080978252843 -0.011577677535270383 -0.5708013568657008 -0.23604012572185154
Ni 4.996840147795133 1.4651418738094837 7.5231833684525125 -0.1503383153776572 0.9253917069203353 0.042626319310958845
Ni 6.186256053285849 3.0258547279723564 8.9495055277422 -0.46320634599284105 0.34413650171116217 2.0422100146182056
Ni 3.454660314822411 0.450896689808767 8.952826527059498 0.974150107270961 -0.21678641969856213 0.23810626422226086
Ni 8.403548922474984 6.700485122575322 12.687483061822837 -0.891663975650587 -0.1240626695105799 -0.2462237511230727
Ni 5.872892092704356 8.622808677401562 8.239004476300533 0.40874266772732193 -0.12505845776494592 0.9316569711037568
Ni 3.085494340712188 6.440395526042172 5.556820595179455 -0.8734158280736766 2.4332400955571125 0.6099590009017688
Ni 6.364529141638092 5.613918720941742 11.89796990162376 -0.7344708421346253 -0.660175730965476 0.1334541380278089
Ni 5.602821048223101 2.1497197580802 0.5682275956889484 1.6116870177909983 2.481662195614242 0.4129011699803856
Ni 8.419203744256809 2.266046984166709 12.759230484573656 0.5237406559324721 -1.2367708116948184 0.8025508256319985
Ni 5.2225850763885475 2.589872092597694 5.214728145503703 -0.3303846993427085 -1.261293222316215 1.187996984725225
Ni 7.8245419165019685 4.272032046794577 0.7715963688822491 2.1892871427460876 -0.24371949664398027 -0.6549463642457366
Ni 5.1152337734568505 4.979866151284493 5.585417166800832 2.6676532271985027 0.6676962077122371 -0.3678886098254374
Ni 4.040438469403475 0.4100917556970735 4.076073714577906 1.3419068195042243 -0.9582928285237301 0.3919991297203959
Ni 0.573397284626211 2.166988954530156 3.439076525525984 0.18814047382709534 -0.04064708409740096 1.3253113770393885
Ni 1.801651354632931 5.655182137459185 3.3831924095141317 0.35671228149364376 1.2253828815728507 0.3551608778461238
Ni 9.03209416826438 7.987667557968085 8.613568919300986 -0.210131890496522 1.2645618657651574 -2.8453532224185643
Ni 2.8735776842760834 2.2846630303397917 4.467069724200509 -1.3074432385097159 -1.039038837524546 0.40168113289485013
Ni 1.0079048428041062 1.47740189628918 5.780638421669025 -0.33090457640192045 0.03778107540351558 0.4689514760067343
Ni 1.1938439045804483 8.316916965283992 12.320154707334854 -2.088471102468274 -0.5990642083661359 -0.587361318106911
Ni 7.748943057042894 1.0058476682270014 8.602240621629756 0.637403984486599 -0.6827245628002693 0.4384720764709545
Ni 4.270362322137824 7.603391036964151 9.660033331678369 -0.10846558640327127 -1.3334193508585035 -0.13614556881704296
Ni 4.616345876013678 9.169620439992983 1.7232785382441005 -0.5394809494858644 0.8029940838170042 -0.8133422598205475
P 0.6739442289566864 4.661843566660678 9.272195961406442 0.23501476978113076 0.16547491390877955 0.9683448134430936
Ni 7.483115511689298 2.421995577108218 2.7553362710830753 -1.0519712293154981 0.8481287713721136 -0.8895952660470163
P 5.009423045208456 3.793669770131936 12.69234371332363 -0.024504412899267476 0.627312661688868 -0.19367580182302774
Ni 6.867143938315121 7.390782505670276 6.532995134506388 0.1242202781343667 -1.1606455892954657 -0.8567170272617569
P 6.862531439263317 6.539730305621833 8.467534431821427 -0.46242267374928103 0.2984942783920149 1.8113120952189259
P 6.935694899223039 2.3316643956776795 7.205056541350127 0.980604090426421 0.31434410094007803 -3.6474425350331114
P 1.032941487657301 3.7401186561404858 0.2067912474897396 -0.9956617560904917 -0.2990144125615431 -1.3589825440395884
Ni 4.358378029044358 6.729387041633929 1.1202496372092872 -0.6656490953752213 0.1985858375301354 1.2994861884461684
