# total energy = -340856.12549818814 ev
CRYSTAL
PRIMVEC
9.44579609189674 0.00000000000000 0.00000000000000
0.00000000000000 9.44579609189674 0.00000000000000
0.00000000000000 0.00000000000000 13.82487737618769
PRIMCOORD
 96 1
Ni 0.7257923128202481 1.4852097710794157 0.6777698847592709 -0.07497748194815475 -0.3235828459295266 -0.09869873682449454
Ni 9.154431204761662 3.2372916231987188 8.850686513537111 0.024036215013597314 1.9611978964401966 -0.006849675931981753
Ni 6.160519967365292 7.927025550336111 8.62748423765291 0.7652070948762177 0.2332139691269661 -0.42019487542832146
Ni 7.418444989427549 4.561837846109535 3.188376567393493 -1.337012724636717 -0.8324494129636436 1.5604192207549576
Ni 5.855260170424575 7.375145459484291 13.660693764140362 -2.7750883154547306 -0.39042227215157926 -1.6898596096376834
Ni 0.4979398714493397 2.065559491784852 11.174261707811501 -0.03546219746235183 -0.5453543775475059 -0.2425969530037628
Ni 0.45710663890315595 6.115114024861532 9.999534314411376 0.17853046154115704 1.273200515276762 -0.7397616582199195
Ni 5.607345802429216 1.0557283078464277 11.723178652384263 0.10320176690117064 -0.31095024476718064 0.2360928333366579
Ni 0.5026750491021659 9.095300520327807 9.70406886358719 -1.0806467428733197 -0.1279280660032571 -0.9173053303677751
Ni 4.35855486532663 0.9849698482467462 9.631957765966593 0.32059136740137045 -0.5751380365678418 -0.8663494081451981
Ni 2.8313113009995057 1.8748016368101401 6.2667615605234035 0.08017933786406836 -0.7962670495058157 -0.423097136676781
Ni 6.030432461610811 6.2964733125819805 10.659021860556953 0.9513313096042327 1.55778049758053 1.1731126114142247
Ni 1.0487762018171438 2.8570983247222568 2.9400673651154916 3.9516235793972583 -3.213610785547646 -0.09494672598123004
Ni 3.106977418334588 7.521715879669615 5.741375038952745 0.7184744667063692 0.12814249600690833 1.2056877171367686
Ni 7.66103192834612 3.672355552006852 11.420800767874981 -0.5438669943687021 -1.6080548203550498 1.7392057641709788
Ni 0.6931655880434147 7.184680424192878 5.5955366679756695 -1.2290407900404123 0.08330245687408235 -0.19655646580493244
Ni 7.522424314387273 0.9862922597197078 2.1047822160728935 2.017412238848235 -2.4481560934369964 2.0823274514643817
Ni 1.5764183795288247 4.988296654547182 13.719283204449924 0.8262990770915317 -0.601957213643215 0.8673508528265191
Ni 5.28062515644158 4.463091492264245 11.794390510203247 0.5578841345834005 -2.0575877826258564 -4.23417444708614
Ni 1.2494521428390675 5.789696898754387 2.6262015032246664 -1.7202814164626503 -0.35307674162358543 -0.21178819515302233
Ni 5.078088393561275 2.0639820438135335 7.4140328580059744 -0.19922758487919237 -0.720861735991623 0.07377266300677618
Ni 0.05868862117003609 4.27430780870274 4.162006737259593 -1.121175299114985 2.1805531053071996 2.4295145670764096
Ni 4.434943019482633 7.3606083790779495 3.761071414829728 -0.43866336654615423 1.2331856654467213 0.1694323558946308
Ni 3.4209273478119084 7.872438293891504 1.365385122934741 -0.22159104017605707 -1.0208729652487967 1.142481002571297
P 0.5023057184693601 8.446374318953076 1.7796210710437286 0.4824546526994917 0.18550560730740956 -0.057652103295829746
P 2.451420268002578 3.496880995341082 4.700085575231812 1.259364123614302 -3.8475291254784896 -1.4359737139836624
P 6.6724160027524935 4.3764357576003174 13.35293744325462 1.1974432177397893 -0.5168439288126389 0.9879551314748534
P 8.399872664086006 6.308781185076758 3.7844497605124423 0.5954623499474907 1.023986571177114 0.6064946965022523
P 5.0541433001044345 6.267710863045066 2.029464270630365 1.3321492258968284 1.1668077522421196 0.15429858557698586
P 9.316322706440868 3.5253884083796403 1.5096904411828054 -0.0531452165644117 0.07272570979950055 -2.0671144911693693
P 2.712077015119546 6.625300371130119 9.651063778012016 -1.2528605181678294 -1.0991100917848298 0.6105377562233744
P 2.784743525558786 2.8750925665507703 0.6726512077792859 -0.5905389445039442 0.29018781540884864 1.8636481856184808
Ni 4.6895922401938614 5.754133475927954 8.936995587479197 -0.7815425988114476 -0.6752601361024242 -0.784040939753269
Ni 4.463478769909898 5.054029950549609 4.126615227924646 -0.17266860344374135 -0.039585732712422154 -1.927126151567468
Ni 1.9647634001564713 8.787735949105643 13.64819603114125 -0.21519233573856486 0.516080311173737 1.8002211275120867
Ni 5.52887012730518 8.64226124128363 1.6911696905154443 0.43652240894375144 -0.9452326529056626 -0.03347267783614881
Ni 1.3839130522505565 8.927250359503093 7.201890664933851 0.6001584698715793 0.4066001674630223 0.15024832676701222
Ni 4.498409324388555 4.6425143917564275 13.705002105121565 -2.7151759553698143 3.895418235850284 0.7635957845250398
Ni 8.726432731537638 8.01962269083213 7.702033296065294 -0.09719412725451003 0.5073830405100552 1.250238764274266
Ni 5.684140125823343 4.258079930770253 1.7633771352576426 0.08097020919647992 -0.5637017697064421 0.9826288341659335
Ni 6.524126447652321 2.2928253492095396 9.355045748108056 0.2777434189979087 0.4097065743024879 0.35152996596175584
Ni 4.927947462398955 2.6073609180534576 0.14468031635861164 1.7566041621530846 -2.9470964024963373 0.836279071122379
Ni 4.196153290650709 0.36266284524310866 -0.002659936219899917 -0.4420554229468387 -0.2737615515320253 -0.22457737649789067
Ni 1.7428816465859847 2.0607988104821904 9.064848217844371 1.0056852017647648 -2.208416407376371 -1.037486662546078
Ni 7.307863052899252 0.5944249016758657 4.7776431189617625 1.5729569482106522 0.042678255594816826 -0.020257721807771564
Ni 6.68392098256726 7.7921490258902635 4.015836818834653 -0.818391392208681 -0.09773663002154136 2.991964723763938
Ni 7.79573842845973 0.28058454343487593 10.347575067082024 -1.3161878174715655 0.35070464184698313 -0.5482892918061137
Ni 1.2681075904040617 0.3615652437205505 4.827591544875146 0.5640990051448608 0.14206656228716824 -0.5492891938255379
Ni 6.41496138055934 2.6018540188481962 3.8946481977135803 1.078680620285884 1.7228278370335877 0.30280447573159464
Ni 6.75325312693539 0.48762978485835695 7.120295987892872 1.0356580939777713 -1.0362746445158475 0.6904720679561721
Ni 0.5077634995341973 2.579760301453502 5.864790034246511 -0.44779592497504167 0.3736625361947371 -0.22861529401269015
Ni 2.1951747077275603 0.20082329544319666 2.3517916767888973 -0.09227097892127979 1.4008627292131424 -0.23964198414049698
Ni 3.6515653544926483 3.8522318497183368 7.473548930926235 -1.4152696486670915 -0.3642780096560436 1.5316920280235944
Ni 4.683301339901059 3.1197481348449028 5.269628360464281 -0.43151621397841167 -0.914325936024477 0.42879110173776475
Ni 2.1887799036761675 4.102819378048326 10.017313192085721 0.5277487486506008 1.0191523830132643 0.2573905663731696
Ni 4.9542067759334785 0.23061439219015098 5.271259649474142 1.9354647533401508 -1.1348458546235423 3.570620543677051
P 9.010788981409325 9.113077508842906 5.928259172891303 -1.0209351859452998 0.36008171218650886 -1.0259843183334332
P 5.990826237995611 4.148461465457972 7.946027658622946 -1.0631750684511174 -0.4176597677112936 -0.3983654382580558
P 6.326274799704794 0.7414260501695249 0.325427516483004 -0.3087748343824166 0.5795220245681503 -1.3164690961574101
P 4.01844008027714 2.845385537390311 10.518215265234495 0.42644265611024623 0.777624494703964 -0.6774766841377686
P 3.509084964077271 0.5341021577570985 4.027781028174366 -2.7045346736058846 0.5487582610227323 -1.835516460379271
P 5.545390824920965 8.321463109535618 10.983726773627946 0.6057935566701695 2.069181658111043 -0.6747191759972896
P 3.182676029365404 0.39972342677285766 7.795281251921935 0.5362634709898313 1.5775972751961411 0.6362806695154332
P 0.4681449963838912 0.0860700952973297 12.413426433970551 -1.0065701754728793 0.5178451163836436 -1.6406360967251807
Ni 7.45602036685213 2.6701754630191337 0.8808365568083846 -0.8731378918219416 2.9537100511581134 -2.0295614726162596
Ni 8.465435935756194 5.41465155922624 1.4936817057229816 1.0303600788036256 1.1749080127517506 -0.9788912215003721
Ni 8.191318929003724 7.929632590097094 11.899791427496405 0.011274287362238648 0.018226807420671835 0.3838199363437132
Ni 7.317979500667409 4.77500112975471 9.551455967550055 0.3655090538496673 0.4840261109516697 -1.7715327584384588
Ni 0.0033589251413224806 3.438307612885118 13.180790640602595 -0.6768058833229892 -1.1119164995208786 -0.6150181605922312
Ni 2.4296477076798886 9.394174959013366 10.630252798962674 0.8928574817380559 0.12903903967924873 1.293924892308307
Ni 7.677921012015087 7.984692136353473 2.178178886561133 3.5215124732964904 -0.5736704508833798 -2.112692951130116
Ni 7.440595381599656 2.8383484191949084 6.886876194220795 1.2628291993447671 -0.9549773909972522 0.7052643957739982
Ni 3.8022352502441525 7.930577169720637 12.139403885180435 0.4166840340615856 2.1166604204182966 0.7253118013431766
Ni 3.4047372530643645 5.849460451536015 11.592132398311888 -0.41645289188738605 -1.9420969139446878 -0.9422673996297515
Ni 5.565075864275622 0.8171596106464125 3.087178084845482 -2.690455569804999 -0.1843234140738503 0.4782966646670601
Ni 7.958961787408135 1.2190272331647152 12.591284165026524 0.3193425825959339 -0.3603833025873277 0.6577920612246477
Ni 4.481038505111581 5.488357107251378 6.345591453006269 0.49588146762835883 2.1703383695577267 0.09740675748594838
Ni 6.65527188258517 4.59167711641729 5.77214944308781 -0.4454557068776393 0.4524125978114466 -1.1707417971892031
Ni 1.9985321216981693 7.555210673120485 3.7198320130454205 0.08652019248043163 1.078162285888569 -0.8997331258119665
Ni 7.8135248627710645 6.564715034076007 6.165508292357227 -0.14747102113219118 -0.09049614640904413 -0.9138973331274906
Ni 1.9921845466279537 5.190823971631252 5.413241301848288 -0.2254412671600827 3.564812678746022 1.6447048674779159
Ni 1.719730000012921 6.387918065937275 7.666184610192552 0.159365458576932 -0.291456140598311 0.38959591959554196
Ni 3.5785965785738743 2.697908320766386 2.9020357557327396 0.41198919968907755 -0.10277110712165526 -0.44090999648848583
Ni 9.09073820074609 5.71240194815978 12.668011423267378 -1.1392349848301735 0.7527238748075424 -0.3347290923543332
Ni 3.9057422853921047 8.111690866738964 8.75576476258755 -0.7013151813182632 0.08258100532702552 -0.10745745685373105
Ni 1.390109494581005 7.401924291811764 11.963399419345858 -0.5663713461188052 -0.5126450602399429 -1.1152987857295502
Ni 3.182931065863761 2.6961797400553005 12.43249088451254 -0.9738186920734713 -0.2066976680039924 -0.8506762203843156
Ni 3.257770109437153 5.298713856232448 1.7557043149755944 -0.6839018709378222 -1.250168316047647 0.4940914656074717
P 0.15545419154475454 4.340560623498116 10.978418236143629 0.6522225375566704 -1.7072808904379244 0.41450322436018294
P 5.71766325666292 7.444657073980895 6.20020836940774 -0.43663887991695766 0.4958393015365138 0.09382623922354164
P 7.945794347455931 6.9545808278975585 9.332124578963136 -0.17039626246979683 -0.7612841056727275 1.6335599066046895
P 7.711642504575607 6.918308970353469 0.25309160891200416 2.252441921027702 0.44970548329292875 -1.7931829897183826
P 9.085287976318241 4.703827055120669 6.7156418554851145 0.1920135836292564 -0.442839866521347 -0.3251422199968465
P 8.70176031177067 1.276268758351482 8.492525534779814 -0.7269452231815416 -1.4040321280800594 0.2798604653409116
P 3.052106788002917 6.477870383487371 13.661315297532653 -0.3172137091783892 0.5984985656706532 -0.7951529905060306
P 8.655220873718656 2.1339565023256735 3.740583482795059 -0.959353922798393 -0.22422102159973645 1.322721247714709
