# total energy = -340889.2037727438 ev
CRYSTAL
PRIMVEC
9.11461750858424 0.00000000000000 0.00000000000000

0.00000000000000 9.11461750858424 0.00000000000000

0.00000000000000 0.00000000000000 13.34016404346861

PRIMCOORD
 96 1
Ni 6.714547348669718 1.7154530561421988 11.33424386238469 -0.7177221619213768 1.431088617977219 1.4042596707098334
Ni 4.755706659852327 0.4954250374137752 5.980888994810306 -0.21097701210563666 -1.2471896930352973 -0.3609124356179203
Ni 2.747856672420755 1.4891006436845833 4.864797694491238 -0.08993513169925156 -0.8327815994920817 -0.0015215788508489924
Ni 3.3693004122038217 4.74527953736495 4.960032687517115 0.5096728649854965 -0.418710320462995 -0.19898101608602506
Ni 5.02986524140635 4.635220530341285 2.5947948997542194 -0.47680645327477883 -0.2936546909115265 0.05735694065291412
Ni 7.185417606379828 6.123227419918801 2.636843364938673 0.13203514619309517 -0.6802370204917253 0.5122961615409564
Ni 5.0711453443305885 4.22877238953745 11.749896855461255 1.8261537882174486 1.3350885110308104 -0.8628449945363655
Ni 5.693928932894814 7.934329272724051 12.354286234329873 -0.03506290514140414 1.09522824023192 1.676600944855564
Ni 1.699001171448392 6.308646084919417 0.7053574663390402 0.018560279500690616 1.0153664336082706 -0.8092948292240514
Ni 2.8253035778186915 1.2114511636055028 0.1427248848929917 -1.121488716590346 -0.6987883011313514 1.0889084686614796
Ni 0.25076318120385 0.062397760346444 4.877497091136048 0.9422956817645256 -0.2806698486160844 0.17674277351311496
Ni 8.675657577259274 2.253069658236102 1.2570488608673902 0.8541916897367418 1.3322556695677055 0.9181571368451091
Ni 6.996198145857154 1.2068209378855836 4.947666885874962 -0.29224804037198704 -0.6653217939427897 -0.9017848661346727
Ni 0.5509458188120324 7.446077439329128 2.579693801382641 -0.025984596989219764 -0.7187673153564396 0.5186416441430101
Ni 7.507500847058525 3.7264658158667086 4.139639632967253 0.1339164223762081 0.28625788422682313 -0.6254259861891165
Ni 7.619401006829087 3.971958925198005 12.726356772086822 0.20622689901516097 -1.5942215140163836 -0.5351396417980333
Ni 7.67649497121801 8.78875175193005 6.91344653303994 0.841917243244763 0.18505232182007483 0.5691607359384844
Ni 7.313787880079315 0.5091498285339604 0.7027825868786522 -1.631115301718939 -1.5427233461370917 -1.0167275756218557
Ni 2.0822343813297204 6.559234265466135 9.433657428771472 0.025216094254311414 0.08913011929945296 -2.128747690600134
Ni 8.97215608645015 4.830072824515358 1.2663056664602048 0.3357397930070347 -0.18054029288233422 0.9125747576613251
Ni 6.724090353253882 1.9354343509261465 7.226513594029377 -0.7752963607914196 1.1034346873021126 -0.7071500428324853
Ni 3.0719451289624087 4.402569917150473 0.49655069268229884 0.6766400471690863 -0.2897525276436429 0.8770580528119539
Ni 5.820968472430702 5.899126317998233 4.804113482245866 0.8425754456540523 -0.8499982204806845 -0.07520502457792855
Ni 5.748297626633627 3.0700401738925995 9.184022637221412 -0.48134650723697747 -1.8463418331295491 -0.07885213441221257
P 0.2716566190341066 5.509139176505763 12.448974350302217 0.19643048175002945 0.4087979464452895 0.7285889294325516
P 4.131127491629 5.990108430471129 12.800167856540515 -0.21682447202534919 -0.03578127136466741 -0.6158730523933587
P 2.1219741138865054 8.469940658954998 1.4118825151873748 0.809130021511413 -1.1786708222282927 -1.6684358925462683
P 6.132223547449431 7.827323662582616 5.903409276789158 -0.7569618241482898 -0.4731326039676174 -0.753941035044095
P 4.833290284513647 1.1114182358966227 12.717898406992166 0.6560714789891153 0.3780367540030328 -1.8360509927265025
P 4.006867910448576 6.249966177075246 8.325943373450784 0.34444220587703905 0.3152370450679926 0.6120958447391136
P 4.663047457748593 1.1618403002324336 3.5808598003633496 -0.3517958180286328 0.3629245809519427 0.8724159260542524
P -0.13222940277392334 5.4369331762041915 3.7148355638615573 1.4117469802258138 0.5263451834348548 0.5289520249300826
Ni 1.4720654234670074 0.992199038226267 2.5363920762838394 -0.8080054209886666 0.21076026810914025 0.7521170944614789
Ni 1.5562753750936447 6.664918256061531 4.9006828552823665 -0.3118629863894371 -0.3164668037100356 -0.7084677332026443
Ni 5.876895765772087 5.400201267441842 9.341209685795105 0.4677399721971364 1.6581463376948022 0.5646607911856016
Ni 9.031966206871624 2.2033585340698854 9.96629015798417 -0.9153430644350817 0.7135407768501776 -0.06827898688205661
Ni 2.381868318960857 5.684604679132064 7.069859750582881 -0.7439489568283898 -0.6248084072097755 -0.383799624628739
Ni 0.7376478219649399 9.074103083846397 9.21505152977716 0.11832165326174462 0.6315511252502478 -0.3606167587543725
Ni 1.605612799939947 1.1752570172791281 11.308910694341497 0.13012301677204688 -0.4758921689906256 0.06138431664475234
Ni 4.023802869873004 7.276235655736665 1.4966593960261754 -0.3173240095040083 -1.7192061811206005 -0.2811213343312062
Ni 5.7207714816057615 7.768953651735448 8.347007254629393 -0.686080880867012 0.17372069885733954 -0.049101128402025115
Ni 5.162209488361516 2.9875802288372704 4.757515911437768 -0.000603695022269928 0.02207754862532972 0.05663934576059923
Ni 0.7432688066135109 7.730599341047615 7.078557830119335 0.00741686128936142 -0.14108105844544735 0.07521608032152208
Ni 5.04216997511086 4.86083465877663 7.0144848030655655 -0.5912691378017494 0.08069895781296424 -0.12541095600835822
Ni 8.295186096498291 7.38885587029438 9.063507340934182 -0.8541451527695225 -0.9189114985126304 0.5092494042948326
Ni 4.765021798997518 0.43823810392575185 10.405087899428038 -0.9504239672986148 -0.8765212064718775 1.0573584617693401
Ni 8.044506769775982 7.17558293403378 5.010445637235367 0.5025090002472056 -0.5884378390005414 -0.7735248707132937
Ni 7.178481382417509 6.222248625078644 7.113615383636116 0.5778901453916822 -0.9342568706204489 -0.030131786388373917
Ni 2.0034202832979493 4.88295583559207 2.8650269040638703 1.0248849146216672 2.957923575018828 -1.3257494930180715
Ni 2.3254670655064102 5.391232483763889 11.445727484132814 1.3301967301561477 -1.77240333396887 1.5610499123604213
Ni 0.9276402020566089 3.2238220013462877 3.6836599259631106 -1.4819789770691834 -1.2926743077306575 1.289310019244115
Ni 3.2221813701856865 2.8004753595882597 2.9800989507449285 1.634965528702965 0.46447955627830967 -0.3602364925968183
Ni 1.5132726094507747 3.6955581477244928 8.142796071145847 -0.6997522077065174 -0.1536306129756838 0.008777231971997788
Ni 4.332387361946976 2.623752039738831 7.038790753709873 -1.1380725890909562 0.035469910771835686 0.08457155339449306
Ni 3.9596541914934957 6.945803425374019 5.929315754276807 0.4007195403125292 1.7883382600315718 -0.12398245109194776
Ni 1.1036252378837668 7.369733402655816 11.434695151039525 -2.475162961043144 0.6410778337937605 0.6059496226320595
P 0.38936096726617375 5.725219414974503 8.012836208144089 -0.795359707200198 0.47849129717636957 0.21781897472813455
P 8.64984498033248 1.3642303831277123 7.938504679027782 1.2766555637048982 0.16005914220984693 0.5527933503240544
P 1.8395121157363281 3.3458029281369885 10.366214967001104 0.834183364935615 -0.45217219966586647 0.18240357134331814
P 4.042342001987797 6.349506915435946 3.6255232493254503 -1.0019851272053584 -0.15580756602234458 -0.2853050333952506
P 7.201823917985839 3.90167610920136 10.489104621162427 -0.22547829104560524 0.07883465091071584 1.3248742895019698
P 6.421986354264284 7.503116716012697 10.441413296247262 0.36960070742053763 1.0979183854695735 -1.7283120000766106
P 2.358990628888029 8.58250618580736 5.81663173739618 -0.13084806786352948 0.5579625532298197 0.016716027203100243
P 6.890605301437347 4.130626187663261 1.5461253369800583 0.4107596981573506 -1.4397894881853266 0.7618518052507396
Ni 5.334667167193381 2.97660622929636 0.49807101089112266 -0.33875286880174565 -0.45651247891243313 0.09961533510149295
Ni 1.7377656399263754 1.4451043847277938 7.217175668340289 0.042541472906636416 -0.8473193880969407 -0.5226960167180417
Ni 6.8728317971975 0.7247342318074965 9.303510716109756 1.3194307498888953 -1.131210828974116 -0.9269901617557067
Ni 3.2107425251492723 1.9711089640516641 9.124205225105891 -0.4149423687801305 -1.4550921799806682 0.5271545667100276
Ni 6.4295606014557265 1.8869172416601447 2.5527473460315218 0.9415243508161398 1.0631357305727498 0.1973807614784407
Ni 4.142876233662417 6.979299644902961 10.644249995402927 1.4710250491608408 -0.9550331839358519 -1.5949810178902275
Ni 8.23014418559801 7.136517683176352 0.36611504664396616 -0.12084287702170154 0.12209269026840264 0.09950863432029959
Ni 7.91057657936557 4.097230228927467 8.51502702617183 0.45680121379744554 -0.03942658142673855 -1.9223996926260765
Ni 3.137989647794167 7.876114210375384 12.465862825177094 -0.46221492861384916 1.8164545586518137 1.596958196221256
Ni 0.39699992824228425 5.061228640426511 10.141646285199764 -1.5813518571425669 -0.8812412376553662 0.3190664461164118
Ni 8.889085462018375 2.374130008653355 5.995149725442955 0.2967096756877664 -0.00474831331826279 -0.35066993195430574
Ni 3.3211934607279705 2.9236229574264994 12.008602514405927 -0.13083778345088434 -0.8512837720613274 -1.3005681086564376
Ni 0.9901938223633099 3.3390763403785235 12.580789037977212 -0.5961879152596055 -0.20359100405421068 0.30470709207094626
Ni 3.1843557073162696 8.502643906756315 8.02249496837125 0.21536485676068715 -0.09706017277980704 0.03385088711117396
Ni 5.425904488957927 8.242512721625431 3.6770427136153523 -0.234471495683151 -0.34464532302678064 0.2516937730987085
Ni 2.854989887208015 8.287320181544963 3.469482819640668 0.6654475208873765 -0.1435431468326947 1.1129487974401349
Ni 3.756279729901856 4.171806029794351 9.363847661426133 -1.1293778895304358 1.7803123044033016 0.32422665016111263
Ni 7.397496527740213 6.033211456907147 11.570924959460047 0.5271203710379826 -0.2694117592037618 -0.9951511350026602
Ni 0.5402315858715505 9.03883862851103 13.317912769432514 0.594657337547692 -0.46494158351639286 0.36049797378832105
Ni 4.791144292921314 0.4302409384795768 1.4031051384781583 0.47549570488315535 -0.16666019246613234 0.5560244556668424
Ni 6.173257555699579 5.742236405956961 0.2721296676854133 -1.3308194513418112 0.41677916487855315 0.6610452780546228
Ni 8.228129855117494 8.852417355578938 11.21451606905455 -0.1702283694333649 -0.3623075161932341 0.3156854454593208
Ni -0.006338305050456063 4.743347238442464 6.075270859632671 -0.05201624516629106 0.5319735853652258 -0.3795598755157785
Ni 7.664746229184594 8.569162385701135 2.8799147203845705 0.2176881055772251 1.1214529782564042 0.33603084188489224
P 8.635006382946598 1.5698379260212814 3.509677371613642 -1.5450365676513003 -0.12295452404806566 0.05602999431137447
P 1.8166982279864121 2.7628684475402556 1.4085611485489133 -0.8379472028534214 1.6525950688592699 -0.951605903421858
P 4.979251770101803 0.8069307644153737 8.204267786348305 -0.28666746096041595 1.1234818357609748 -0.10853552040925825
P 8.505633501315632 1.568470733387447 12.50221465438724 0.8588135047794694 0.7045105483271094 -0.6797400262506487
P 6.166376019442613 7.670670730597875 1.466404334501177 1.4489950659439947 1.2019449622648848 -0.6963447246868653
P 2.0625468074025055 3.3101556588641476 5.836508895368619 -1.104051752060821 -0.21708543899621965 1.1993872288400376
P 6.791119250782 3.930578561480618 6.226908017574751 0.999621512069188 0.21011414988470908 -0.1614565367780058
P 2.5047698221250068 8.518147871223997 10.236935054469239 1.2667922977575732 1.3432689899590737 0.883260324967924
