# total energy = -381177.88706636615 ev
CRYSTAL
PRIMVEC
9.11288797441399 0.00000000000000 0.00000000000000
0.00000000000000 9.11288797441399 0.00000000000000
0.00000000000000 0.00000000000000 13.33763269539796
PRIMCOORD
 96 1
Ni 7.465860811121847 6.408401324896919 7.953483229204907 0.9666093188092256 0.14529098276173688 -0.45433218343166265
Ni 8.544635341627023 0.20698557428791706 0.7514031535390935 -3.500031163494262 1.2013309828299696 0.7614933934700563
Ni 6.560677678006352 0.8390007863496511 11.27586073035824 0.15673881958736233 -0.10264769416991354 0.7282613708898039
Ni 3.74266296960167 8.323930314938972 12.114318388602246 -0.24430030884811474 0.14649297348963805 0.4567598190365489
Ni 8.241349326795484 4.12225119296614 9.629903715891972 -2.0670898085790204 1.81273237260522 -0.6015358098350801
Ni 6.457474225046189 0.09537730502177988 2.7929533559997592 -0.7657832790946618 0.8425366219963167 -0.8685818970201429
Ni 1.5089392804858859 8.264742109466455 6.712016314973655 -0.11933646767950416 -0.24607334158813748 1.2311740343333313
Ni 4.369839238306066 5.479770731784383 4.034233456033599 0.220493179126188 0.0027366822048727063 0.7161085375773537
Ni 0.0955987481923699 0.04406445708111009 9.91603654224608 -0.7307214023945222 -0.4756839096345614 -0.3300417141809929
Ni 0.7593997124770664 3.013704858414972 5.50982959179225 0.4482638657503957 1.4799892003326642 1.151682980785539
Ni 3.192754875524136 3.018124608939094 2.093234856218623 -0.2873197498324342 0.5494244338518215 -1.6951064598589196
Ni 4.028397562764223 1.020078420967304 3.1155641604425415 1.3196315530457918 -1.3894287763445878 0.3473616935166792
Ni 5.0284823081646755 1.142491841153959 5.483554402748538 -0.24556169205904158 0.8603312269755764 -1.5763063242988593
Ni 4.172317397872377 8.443828578126332 7.014007388466067 -0.3541185526245385 0.3513751855514464 0.8285495636886054
Ni 0.9690280241917779 1.9802669441108383 1.2265126655506655 -0.25331125409747346 -0.3968556864817488 0.5583564462341287
Ni 5.351916917653602 6.714421206032039 8.540606533984315 -0.6732317928184858 1.6881421127259444 2.6743334674321555
Ni 3.300733481627886 0.9794531676960981 0.8001844412826478 -1.2053827843018403 -1.8379096432017958 0.028880687590092196
Ni 8.218977187544517 7.639816724018673 3.0484495652671764 0.6314665359562416 -0.06418656198023784 0.8617054816152836
Ni 3.528318738513282 3.1679951597013756 4.3160841364675315 0.7690696631554174 -1.0298188615881747 -0.08293196090854105
Ni 6.032768094784963 8.749247008674665 13.470208543103555 -0.14502127404011797 0.48968176657555024 0.1345406862237683
Ni 1.4964455114785231 7.6758581947875415 11.175562465990016 0.015393708847250906 -0.7432678716009651 0.7022006692470101
Ni 1.2807161214629879 4.270545214160024 0.6897107265324964 0.2691369082758204 -0.4260654752764856 1.170359217038804
Ni 1.2176640516147434 0.1097018531637737 13.016755808660179 2.425096897624688 -0.20744740168582337 -2.3221427279579494
Ni 7.021762455880555 -0.09482141887338519 5.001318612572299 1.2597467037647014 0.8824596834434996 -0.1729470539161086
P 6.1417217798703225 2.176503867381845 3.7409388112528785 -2.4355198927302246 -2.258174966856737 0.8136507921999018
Ni 1.0243705910639254 3.537468077742598 2.955846223254763 -0.42772460814646335 1.472287460813032 0.5598227463670101
P 4.763670905112191 4.167861195797541 0.3842995862943073 -0.2832229540552412 0.11869703432329236 0.5812433781346313
Ni 3.128773291132674 6.278752271893454 8.295487169916521 -2.0004087623117033 0.6978081966062691 -1.1727475147653221
P 7.19585506209256 1.7844674394484046 13.2337983657902 -1.7019401949513009 -1.215701392619029 1.4930815147402479
P 6.399807871815998 5.152809434763836 10.451888918368137 -0.3622864331473115 0.35533031354445255 -0.6257082933162256
P 9.040622479310272 0.5813521130125487 3.6767448965785055 -1.3260857933115677 -0.7648276000496118 -2.1024759013877983
Ni 0.3543427906284404 4.366057389919447 11.73400842453363 -1.410775360341164 -1.320441450541597 1.746104548173341
Ni 5.70356502739548 2.659113285952906 10.050119015105183 -0.19257331278746834 0.19630655457765547 -1.027089892692786
Ni 5.190937756811105 2.1311034609670516 1.0944541650449786 1.9228506641205658 0.03137620031843629 -0.39786304470034056
Ni 8.426104011591454 6.70816065219684 10.081983138162183 0.21930764345851905 -0.837442495302861 -0.2951875826162852
Ni 1.3035712437609206 8.694952423885557 1.8300701519696627 -0.03521717133108128 0.5230518573955637 2.9012032395086487
Ni 7.7248581918353825 1.6681596540064128 9.023575000329911 -0.27933621740632536 0.7687603594451147 -0.08391155121299097
Ni 7.992348783865375 2.95865390394854 4.117207209636034 1.1616732592290315 1.2391341697206724 0.7897297626079302
Ni 4.876515793236315 6.437270953062729 13.361640333167 -0.9998349136315748 -0.05238519846993559 -0.14963871820747132
Ni 6.99710298182226 3.4613299011878818 11.896434711939492 -1.1044093925105558 -0.3803420050974417 -2.3502716249836815
Ni 8.317633309553058 7.94376797965075 11.98746334696104 -0.4817064616795575 0.873922592506766 0.22924624272846972
Ni 0.6754900653100387 2.6461638725616132 9.826300114697354 1.2755132225703387 -0.06985764422308614 0.30670766744074274
Ni 3.5641323870901864 5.41311907130309 1.7753855355879105 0.07330523645205439 -1.419499370477723 -0.24097124447488177
Ni 5.793618583435421 7.154974647966354 11.305576945789392 0.5559987446352296 0.1933122478360219 -0.8249255937827729
Ni 5.854301302487229 3.9710866121534973 5.156568500931259 -0.6529522166338432 -1.6012555380450295 0.2864365758965325
Ni 0.9559965948113777 1.208022616450783 7.993963587562023 -0.03979527762006695 0.5594702481235978 -0.25497630050472214
Ni 8.780650019615127 1.7675448070292414 11.922696231651685 1.7747754337454724 -0.11873534376039552 -0.6934586613883218
Ni 6.691474954857321 6.129701881022248 4.314630630882795 0.5224039393989197 -0.2888901796433476 0.25398488312573037
Ni 1.133278711710893 6.017932313644199 2.1854909972104815 -1.4256000840588223 0.6410019862505025 0.6469340354642213
Ni 8.36662419371322 7.224569771167834 5.793867365269047 0.7870499017829219 -0.46430652103555514 -0.28487385939510296
Ni 3.2886406796783816 1.490841085556183 8.593756540080989 -0.587875281628852 0.7148322419680915 1.1446067906650481
Ni 6.986422677462939 5.6124452634971425 12.705895161590185 0.536570974927921 0.19052465778855573 -0.3676286712958314
Ni 5.009737098209791 7.798973307325449 4.672426294652658 -0.1586720320543332 0.4818301317416153 0.028579354299589486
Ni 2.40428960779617 7.14567950253418 0.6705335657016473 0.6710517544480314 1.6830197038977146 -0.8674159017364997
Ni 2.2021019688710366 3.958283004965062 8.182197572873681 -0.2528201733936678 -1.0581745299127325 0.05198462059740725
Ni 0.2484145842523756 0.7954366268020964 5.697863093574979 0.7321823032107648 0.1318482269932697 -1.0342642989540383
P 4.256684512000871 8.174406053908477 1.46500513769858 0.6172629907623499 0.9388666014783186 -1.1929203901687715
Ni 6.911368934541977 8.498141388690797 9.577553821333478 -0.5625941384645602 -0.4591442601083254 -1.332486554631589
P 2.9347143480168536 8.859376256270565 5.0451060378679795 1.1219119201706937 1.2923320938998903 -0.01562999322777308
Ni 7.570540551885943 2.068133407107915 2.0984492505483185 0.7664335110841509 -0.18572569373801562 -1.2699316147175033
P 1.138992492285376 7.483767635410299 8.830459241088827 0.08541564656234321 -0.13357703675891833 0.4400576757905195
P 0.2653189908961815 5.968048366491534 -0.07031321875055409 -0.05015193826404266 0.32132156069917567 -0.7503795429450818
P 6.2622761709705435 7.8941847577914785 6.638926399347432 0.08252521238842561 -0.609037517528764 0.7260553643774205
Ni 4.431196311046091 4.603466339722376 9.088982751643075 0.6305730776076947 -1.111313575829557 0.45037654121802434
Ni 7.616323699583238 5.183465188914652 2.2056979143490127 0.5493724975679636 0.06249529032074399 0.41232704264447056
Ni 0.7257029877079013 5.924206263869781 7.348621688559102 0.21304469326794276 -0.4510226594424555 -0.024748667699589638
Ni 3.219027330701545 8.254991319650351 9.689416340165847 0.6707265098981288 1.4572470215401419 -1.046988431388926
Ni 2.4461542137916656 5.5641469588005545 12.528824463684815 0.23758972959715857 -1.2082385085830805 -0.9984442039316352
Ni 1.8861125886155268 1.0011782919218843 10.9611198157147 1.7897914475383305 0.013788569143660124 -0.08912214887965296
Ni 2.7521558691514283 1.7219256913101622 6.350753197442086 -0.08091261648566711 -0.21880293590795866 -1.0322102446384869
Ni 6.516525737203527 3.6285240514271853 7.713832509033043 -1.4915447663807473 1.5408055602890882 2.0634529831573816
Ni 7.937871941322694 7.179087348763934 0.8234250387293854 -0.5034438533566491 -0.6278901314588928 0.4831799609012904
Ni 8.100828598791448 3.7782396830989304 0.40345578748349575 1.2445900506289211 -0.2661017209939223 1.7534195937775157
Ni 1.306350674502894 7.674381906983608 4.165742449412266 -2.180872693430147 0.5466748961311424 1.381617507830285
Ni 8.063383743320074 0.051050396775526065 7.292617526041488 -1.4794492686687941 -1.3762935245142105 1.441415196714208
Ni 2.2786593382589686 2.6704588311127653 12.826773971491765 0.5463478518090268 0.306042265942602 -1.9097092416426014
Ni 7.772883109901613 4.82839063340562 6.14690154522684 1.3271952243256626 -0.35065399111470574 0.3790106878805279
Ni 4.546720388147723 4.165947489385035 11.523114332720361 -0.7900699195561683 -0.13068043193741366 0.8262417414910351
Ni 3.575878899307904 6.284365810703473 10.748130671024118 1.3572617046937399 -0.10822210293389749 -0.4217748183209317
Ni 1.847592412398078 1.5365968945904416 3.5969597423748128 -0.38809362401840264 -1.0888940704837764 0.9728234180397375
Ni -0.10140821408747842 5.181642611378931 4.259519531357683 0.7436851616440417 1.0919806798289 -0.3250463178489305
Ni 3.179103769781591 7.327964594769248 3.073070765197222 1.1148151612249122 1.2106376049428764 -0.3761403083112683
Ni 7.401040841063954 2.211752516922676 6.32894696851596 0.996301960777652 -1.2435726651080001 -1.0646935619781728
Ni 3.0297799922800253 6.712817337800605 5.719963668773124 0.255995742908172 0.8114463283494154 0.1062868335843976
Ni 5.521279935160412 1.3691020190577448 7.707830761207915 0.6777026841056458 0.26456085886936376 0.5543254706978646
Ni 4.273497789767891 1.5527904959953165 12.071837751399677 0.4705190776041703 0.31441197806353594 -1.2098637028913293
Ni 5.928143031346937 7.017843914178758 2.240562000029807 -0.8108066378828874 -0.8776758889016111 0.06310746998344616
Ni 1.376547248291162 5.455238838153586 10.258292909946391 1.4655318872567535 0.28966382458457857 -2.67340607052188
P 2.73558863935173 3.0088476892822773 10.439311310794132 0.8417267245005117 0.4631279273464217 0.1911052128823741
Ni 2.8031424757132037 4.54127088131592 5.8642097452601725 -0.40553161698919193 -1.1937418576288021 1.95982955533776
P 2.1669808997577062 5.514618414267355 4.010532657759092 -0.7695383752617199 -0.7198752037086377 0.0573116892372755
Ni 5.465545514118085 5.764411778425503 6.579307154287717 -0.8894787950738101 -0.16580427222374025 -1.353109373088263
P 4.385476953562547 3.400063957324644 7.173312511842004 -0.5916869420654584 -0.5417766874985767 -0.48107602718441017
P 8.860770528085391 3.3868502701906715 7.599729131120504 0.7874319677126891 -0.1591217179972421 0.07249019674992677
P 4.935375934752402 0.6162717873081821 9.661514500671505 0.5848496074286509 -1.0939835691915416 1.2794372402150933
Ni 5.591886588894217 3.9275999121512104 2.754461429734114 -0.1487905112745631 0.8401277554445079 -1.3539382967474618
