# total energy = -340862.5092527879 ev
CRYSTAL
PRIMVEC
9.30552438048764 0.00000000000000 0.00000000000000
0.00000000000000 9.30552438048764 0.00000000000000
0.00000000000000 0.00000000000000 13.61957554766201
PRIMCOORD
 96 1
Ni 3.4531312858184586 0.8688698584166108 6.381466345927173 0.8601785034477959 0.12959208396924135 1.2213382791898322
Ni 8.51559721579993 4.033088800174641 8.180625316691547 0.22134909936858008 -0.08340041590452733 1.0753960359973416
Ni 4.3847631853641165 5.168390716354561 6.913255673363999 1.7852488224729706 -0.667508002960831 0.2078811467891323
Ni 6.320852019872791 7.022832878137461 11.378978783739374 0.2635750979173267 0.9972661244631341 -1.166374521359443
Ni 2.3232637959973093 1.3037784388263913 8.520270450247489 1.466163093082849 -0.34111879793076094 -1.0693477729207326
Ni 1.7113790267833502 3.6307644446584746 7.751172565347086 0.13049685517169782 -0.49031142973974906 1.9612176939345385
Ni 4.631917918393129 5.39685065048842 10.811791240773843 -0.21314008119522646 -0.7500028763319535 -1.7943744389233227
Ni 4.8856981849280405 3.6873048120486964 3.967068894887708 1.8747538086133393 0.503477534808062 1.9579994441075568
Ni 2.9853611758823733 7.624230321141944 2.3821454333736036 -1.2211433895702066 -0.5928411102745597 1.067263122477562
Ni 1.0241381194643857 1.8998903438654942 10.177759323042977 -0.038765036583339685 -0.6801202924082028 1.3040825495675992
Ni 4.51733899415419 4.700592689844715 12.939264007804649 1.2324631854584 -2.237735468055462 1.7661846067526679
Ni 2.050016372026528 8.87001673074255 5.011037087246853 -0.821838984437649 -0.1611426050820128 -0.3099642267048275
Ni 6.367063254971514 0.7750227124049053 5.260901589035583 -0.04146572334395439 0.37164756264723736 0.05111610194952487
Ni 2.249712929662169 5.956429065999213 10.958556113454076 -0.6309628568469456 1.5576930800730464 -1.4084968487196323
Ni 0.7526736340044617 2.141415234519411 2.3185691588432 -1.1707772784128287 0.7905792550924191 1.190730581606304
Ni 4.907249779871384 7.648182741428716 1.337985547207967 1.198546478106297 -1.044145305513176 -1.418399709655641
Ni 0.7202476030288255 4.132378747517245 3.7317368308463967 -0.9983292756203258 0.49557679190374654 -2.751844514435441
Ni 2.2875678036818234 0.5322713536104303 2.3983119212384874 0.7113111161887105 -0.6947107886278681 0.8631028761834425
Ni 5.985052859628627 4.064448418032614 1.3233982068654866 -0.3518413265545876 0.6590452169054585 0.06335043923218767
Ni 2.717697066663754 5.885604718368045 8.444722618335993 -1.1320065854025343 -1.0177650157474343 2.051615109982189
Ni 6.127036553776093 0.6494427969992902 7.815376032234649 -0.5891592905475983 -0.6638117850561666 -1.924242145151454
Ni 9.14275235086105 5.829473794059649 10.773806089409971 -1.1911779535563678 -0.847743877228869 -0.41088182555751174
Ni 7.901637314603085 8.680118890496953 7.104774535992641 0.5127484185870267 0.04456544531520067 -2.7177658275841776
Ni 0.7250129621697953 6.219561384743995 2.218166270759998 2.321606910059137 -1.3528252661889413 -0.5829315644703316
P 3.995578230564703 8.838275586376513 8.377346898116743 -0.44406422584675137 0.9836176804417641 -0.3212806801589112
P 1.2587396998256224 1.1760415028215245 12.356442252980607 -0.8855645476210683 -0.2832396662257896 -0.19186780208001147
P 0.7807912070963468 7.992040485965165 1.1894163333103271 -0.3026160138698724 0.6841150153898927 0.15744047364007724
P 8.203452699055758 1.7955102745738363 1.3581859799812872 -0.3234946570910945 -0.06037181621983796 -0.9924753879427101
P 0.7490900764860329 3.9852397927486174 9.984333758426473 0.3379226595909664 0.6674007879590055 -1.1474424603416304
P 1.985910613147128 5.270072183516008 6.169721925608826 1.0432976128009002 1.7274162277352187 0.8354056673784902
P 7.601273591985973 3.7742649393136105 4.193808237525443 -0.12866134462485584 0.22250738134273937 -0.9164440108087444
P 3.8972932798774877 7.863428830649126 4.543245574604219 0.3612124833568424 -0.41082474706733113 -0.021580297273937028
Ni 6.648201763792015 5.282057699183981 9.49318444851817 0.7656927762633845 0.4997910870954102 0.018186441101039647
Ni 7.376433506916432 3.1589092094287246 13.28770751485754 -0.18996647129224056 -0.4619130811027141 -0.7126609453483855
Ni 6.164956566467856 6.118922136336285 4.559574909149374 -1.644499693445645 0.35302249134688235 0.5204948953016648
Ni 4.0279149285043045 1.3352683340285818 4.101140101478902 -0.16507047938150926 -0.2956935757184262 0.21400242919552176
Ni 3.6382740030001317 5.52482022460796 4.699503012915585 0.3687406734130875 1.0909200997748696 -0.15393528870029619
Ni 0.2767490928728447 6.570770493704123 6.2064136090551125 -0.2867561640194803 0.5530679441416797 0.05929400977462691
Ni 1.6141735169482196 6.509577364020434 4.106397722870521 0.3048595584884105 0.5860125173885006 2.6245617953256675
Ni 5.491692557078468 1.4395832646481315 11.727421360239807 1.0736363729937572 0.17075030337510594 0.5851342285486052
Ni 3.208377378132875 0.9430870003121755 11.388076795128022 -1.6378258809698951 1.2350908528892341 -0.6702603688949876
Ni 3.191692572548499 7.139896377441113 6.715390442967068 -0.7571271460815606 1.956948120024907 -1.7052553753674633
Ni 2.00567554736978 8.659293126471391 9.988229051018564 1.3205941740693772 0.6631132163272452 -0.7163116547270955
Ni 4.821182982966815 1.6377723273006886 9.338643879493093 -1.9272590776009064 0.39025592177704405 1.6475217681014205
Ni 4.362718397617665 8.301681816595451 10.688915510813192 -2.4346544594061363 -0.44584497189625794 1.7590081436088867
Ni 5.3471777602433574 7.9687487579240655 6.335772497995483 1.0785993734259876 -0.20091988497995075 0.029935354106851674
Ni 2.187021610519983 2.041911260111307 0.6275748142199913 0.992559205905768 0.9420079753207777 -2.5818776261935796
Ni 9.386761816579678 8.355765525494721 11.123870618845908 -0.12827979291572103 -0.6396477862154533 -2.356179505827684
Ni 7.5376331093359195 2.4360374484663834 6.700613269923013 0.6827731566500177 -0.8235114870440656 -0.9111861048439146
Ni 6.3558221812704945 0.4497834614619972 0.8453380478411677 0.6831516230353589 0.7656444395239523 -1.0236497566629852
Ni 6.51083360983967 5.929443044697099 13.344283243241192 -1.1435107293873918 0.2703846646399924 1.194191543571711
Ni 8.822418972480376 1.9497214280285349 4.5771986421645705 -1.1699226437220174 -0.5030486748007594 -1.0783471482058655
Ni 8.856756358206168 8.78328924159231 13.10690768600059 -0.533703680682455 1.649749628990675 2.854944208541109
Ni 5.6383848466669235 8.887520422490578 3.2864172295287526 -2.2224476886584563 -1.0517223465294856 1.3825541607119416
Ni 8.372552691849554 6.052117775326674 0.9682398332706628 -1.3012581927449267 1.5386705162239565 -1.9948703489919775
Ni 7.7440296446741534 4.820280347081882 6.044735702671858 -0.37400834956993007 0.8680183112071889 0.13560666559443743
P 0.8217038764952684 7.065433569696452 9.27785926233877 0.2396774653641227 0.21986223041040842 -0.975451599691204
P 6.499136565433892 6.28049395973925 1.9289403305209902 -0.8370313759073714 -0.6585402522445819 1.6186086846114962
P 6.784620754236493 8.845617645275606 12.503206195108381 -0.5649839788529754 -0.0031295467679171908 -1.1873716924364002
P 7.607936347590218 8.3831330733049 4.827908085585794 0.41730212726155874 -1.3784715060021355 -0.5480442656748432
P 3.8023676235661563 6.647345655530017 12.393977016954471 0.2648855891986341 2.3159985627334243 -0.5345819695223503
P 2.3734019624717186 4.628260847230464 2.61555776769263 1.4353376230615604 0.47686944530223035 -0.4493262455766391
P 7.230960241048866 5.047605007216135 11.627072444199209 1.0551357430864086 -1.4466535622950119 -0.15110501834035267
P 4.074228524373484 3.0949244223689547 11.117945791341405 0.37663601700076427 0.5316815080461036 -0.06854946693462388
Ni 4.4619152897144 9.202586873955047 13.036780322160983 1.2230138671200421 -0.9204999260456728 0.791560902279398
Ni 2.3328577918464397 4.2618837331936295 12.363823395082965 -0.7737837808016351 -2.4338193650993505 -0.43525665485745035
Ni 0.22472748822203917 8.507222243671688 3.243910523768089 1.4290553895972744 -0.8774671153249146 0.813746437237502
Ni 4.328315873219764 5.407989363418982 2.4875612075517872 0.5836095643739626 0.8740046106976109 -1.4836733340524706
Ni 6.466204313920726 3.2817049118779282 10.564691410339893 -0.3966764805914071 -0.5888309606739021 0.5800928094699557
Ni 8.159521317480834 6.069798272041852 3.601465069944049 0.730922976882367 -0.04966959931098543 -0.05797349119099048
Ni 0.09889260144274208 3.120924058064853 11.917496936005014 -0.294899361951905 0.6919869619388018 1.2837140132135763
Ni 2.3273023936680395 8.74375006762242 13.601312068409403 -0.7723529618923795 -0.014624691891710296 -0.26369259733179745
Ni 2.6918556248858336 5.8561527330503935 0.38393291672254654 -0.9165080312774604 0.8225714917282994 2.277386506788181
Ni 8.53518534505543 4.0406914137621674 1.7645117110698358 -0.38049395729427377 -2.154556681243438 0.9778021022012515
Ni 6.655004102265066 2.2023291984654922 2.7865384070054455 -0.7840962184712367 1.0528495181553932 1.293721003827617
Ni 7.6228810200768375 0.12011105860587294 2.683846359873858 2.116044126990537 0.23941161329724572 0.2636350046209847
Ni 0.6262124854204639 3.808397603498491 5.740378979454492 -3.215817820501294 -0.9471568665115688 3.185412211626243
Ni 1.3257860044744942 8.585062956841405 7.511986153021866 -0.28106682694418694 -0.49867188588930245 -0.07162219232267665
Ni 0.5569728686264512 6.6720052956853975 12.850424164573173 1.0753597834427675 -0.7098610140057452 0.7088716535092824
Ni 2.8656828241697925 3.3541018931642883 5.509145998993726 1.74096362740235 -1.458550313732598 -0.30474205907393964
Ni 5.045399597889031 7.02462884438274 8.963710335598572 0.23775068065505506 -1.1915409933227414 -2.044276410228931
Ni 0.5342292359835216 1.5221977119309469 6.638549143137988 1.2129474840229755 -0.5222401601275457 0.6412300431009086
Ni 6.252484330732574 8.873534219036413 9.89415857241677 2.159127588443572 1.6440970586905876 0.18206572838792515
Ni 7.922946965907167 7.525098567717317 8.997404709575408 0.4633356724818537 -1.6585471726776468 0.5540727312571103
Ni 7.893597341359972 0.9804672925778963 11.080614818355995 0.26120274103040825 0.94090471495427 0.1530135482169752
Ni 5.804190683756945 3.3068949669347636 7.962984915994917 1.0261514400389165 1.1625883148441332 -0.6400344801309107
Ni 9.06319011564275 0.49961733728241414 8.839948719697245 -0.5079900779664348 0.12044049937696032 0.16802981912014933
Ni 4.171080424274311 2.718971923532164 2.1736160718000432 -1.4464306476509283 -1.1105427591018036 -2.1191533620434795
P 4.7031796256798835 2.3799437462563344 0.04252624736229629 0.27176431859633843 0.7876859927050242 -0.2776184633842703
P 5.224577473810479 2.587466250069588 5.781972813253177 -0.47256773260308294 -0.4054961357655662 0.642110645933649
P 6.624761147357525 5.983926891153609 7.535902281762749 -0.3331262666435876 0.8013053832606716 -1.2620594110582781
P 4.382650831282882 0.4422376115744511 1.6876155086456923 -1.3072637755090584 0.252152715012998 0.5184243859258814
P 3.8096445437931403 3.5463819477041416 8.2920747930119 -1.9390987505483122 -0.22822628610438758 0.9512786019894262
P 1.6881803539881193 1.7204612187801993 4.4501689260283115 0.32359030212869433 -0.2836325307888341 0.12336564344355527
P 0.8051977369829617 4.346163869377507 0.3293364734185359 0.2175274116296447 0.2509044444281937 -0.9867140599789007
P 7.282987429014423 1.9725757964140491 9.003588230663427 1.172665239464161 -0.21061242967736635 0.3837921684295713
