# total energy = -381171.8456379143 ev
CRYSTAL
PRIMVEC
9.24150814868722 0.00000000000000 0.00000000000000

0.00000000000000 9.24150814868722 0.00000000000000

0.00000000000000 0.00000000000000 13.52588132156423

PRIMCOORD
 96 1
Ni 5.471822897499869 2.7872665081687527 1.6128261109879845 0.3866455787179664 -0.48159821823646737 0.8003054812412476
Ni 4.767019297252227 4.147514814952341 10.14722373370004 -1.4483612890147377 -1.4368322053292155 0.752053331103079
Ni 8.509746824530707 0.5480010873502221 1.5772934372504617 -1.6318490945611703 -2.6523852452958385 -0.19885837446523172
Ni 4.992595263664667 6.217584860775081 11.40714623068505 -1.24402826458818 -0.4886134732120359 0.023899432325416903
Ni 2.918209433651069 5.510138189267086 5.348796247687547 -0.06201243714705449 0.6142913097285356 0.35326828880910127
Ni 1.3301209910187246 8.779866859037208 10.251170366295142 1.2496597518423447 0.21997510183918886 -0.08410618372230032
Ni 0.28647011028907743 7.911497810408485 2.5629649456961823 1.3748380230146067 0.32045921269888034 0.7749885997430137
Ni 7.989597793699547 5.525451367862907 10.706249015828146 -0.052719184770586625 -0.7330011995676343 1.3905873154290633
Ni 3.3197806765745703 2.771324907035504 0.1831232515569019 0.5881701871614515 0.32115263922147913 -1.4074308693489632
Ni 8.704077252721978 3.2460149604901716 7.272771915820458 0.6517718231724968 2.5195828819194155 -0.5451193787185644
Ni 7.484207450990009 1.7503138723674407 8.482364236613131 -2.0524481474064458 -1.0050264851348434 0.31054298202643293
Ni 4.812792485897432 1.2779619204123167 7.630422892433373 1.2697266977955488 0.19053494220120087 -0.37810077447174884
Ni 1.3952089311818945 1.4209280476768684 0.8511853888332664 -0.5505328364246518 0.3832362959261013 0.6431802248487439
Ni 2.3673693550729427 4.67406821076051 3.1509623551012367 -0.6257610009310319 0.24704110481804553 -0.19153458711030885
Ni 4.967328981056956 7.573739179557493 1.2980289306736126 0.9736366579696524 0.9621661954362075 -1.6834380223820558
Ni 4.765522172971886 8.269301271901805 7.209984186974428 -1.8662532273414956 0.07638927469401684 0.8101312090824176
Ni 2.348997237361118 2.4961220431821696 10.666387619788702 -0.587715101901904 -0.593763364978513 1.2633807009728628
Ni 3.8272226340386473 0.6526787232204776 5.528568528478702 -0.6759594761622939 -0.1548932817381913 0.0616833359424099
Ni 1.961195841213582 4.688540412137128 9.96976460233709 -0.907006262434612 0.8232587476033112 0.6560905051525088
Ni 1.3093645642678402 3.990732633372307 0.9481288067392231 0.7223627460171818 0.019425712824779447 -0.36166474040291263
Ni 8.563107291164547 4.756382321655491 13.446808943053458 -1.2473742982422773 0.10314494552130622 0.11202836405386514
Ni 6.254486201833087 0.10600748885754493 5.10656153912856 0.28429536118381366 0.3191402367771407 -0.28183301568625013
Ni 6.52114067087584 5.563840591693349 1.5223378863525054 -1.4792839467355232 -1.7715363579828844 0.22806224972269754
Ni 6.704593844264891 6.373720136801881 12.702533938399892 1.4193001099827234 0.33759587237916694 0.8461603347918331
P 6.092159115511055 4.590432564235352 6.222635344844252 0.1830165223369687 0.7184580116461369 -1.4515335160951324
Ni 3.1386933292087726 2.436542041729386 8.498283658127413 -1.1256032529793518 -0.10271248596957794 0.223044484793132
P 3.8134712702784888 8.396335039541011 12.695757140654377 -0.40591419713959126 -0.14376477592519754 -0.259658793582056
Ni 4.750513964136874 1.9092770498126608 3.7301535316252057 -1.024530873716358 0.2499847608274017 -0.11852194219800877
P 5.8891139453669386 0.17500643516540507 9.168572074657689 0.37908859230631486 -0.4104727630445511 0.6791802970924368
P 6.051588895815426 3.150882878133268 11.807783157159525 0.8105045332614365 0.6714592742990952 -1.1057563934567538
P 4.115132571259064 5.988247600645986 9.41198415132356 -0.18957926315615092 0.5609674014944145 -0.04256255595255895
Ni 7.22363389414765 7.553574209312422 3.6277493066991697 0.09170687888769367 -0.07769796620311134 -1.2291395204018059
Ni 9.169119171925567 4.753766974918848 2.8143709266984365 -0.36525271486448707 0.03616796528012481 -0.9436347122909232
Ni 5.702685006433015 8.696767219970443 11.700603845099838 -0.015529977314799062 -0.9395911383491689 -0.1472704750856109
Ni 0.5744382690092851 1.5391638997921029 8.32442224579123 1.3954161042762743 -0.8441792998060622 0.8340884912289636
Ni 9.028980946079434 0.7206296825320999 11.869569106548836 0.17201682879235536 0.5427143688214976 0.2208845010273357
Ni 3.8975227846592966 3.1531378060616815 6.180043083219374 -1.725286068766093 -0.2836911519409114 -0.2873747714400857
Ni 6.206642915417536 1.350350651819119 13.269348887539717 -0.01737705782586685 0.4065106930730095 0.1832684904467747
Ni 7.019830920355461 3.7435038139423598 9.784203440995288 -0.9284289510847623 -0.9989391412901828 -0.45186032485240246
Ni 1.057838443662843 5.924998720555578 12.354337024372086 -1.8538620527659944 1.7814711005980932 0.21000564933130286
Ni 4.514513576809476 1.7144013726550913 11.597983368888865 -1.052260992641775 1.0985205378299467 0.9484393327684182
Ni 5.050326963536784 6.483694080851537 3.1473239734396943 -0.2027602806227992 -0.47433665157804766 2.7324835934103264
Ni 2.1052617079186304 0.5944378162628866 2.9375509855419533 -0.21262920299707896 -0.36119474274502955 0.8201004044799877
Ni 5.3189498737629455 4.24773896816398 13.358471217307084 0.13909282437082496 1.39599948758357 -1.203870975643004
Ni 6.821175466465429 1.3787220810823493 10.915873215448645 1.0790626862156514 -0.17576061210550376 -1.106184482133108
Ni 2.4930908285898763 4.7294895336567935 7.83616473458368 0.2484773230439398 -0.8897225356535 -1.9204705939241633
Ni 1.009930466691968 6.337391769233882 6.728381485608068 -0.7528645141504646 -0.13509450184470925 -0.3024838591673823
Ni 6.094053624631237 2.4949298886626394 5.6000118536269925 0.7470476503583714 0.357444531673978 0.6623148887956658
Ni 7.143057186738495 1.8718119767725514 3.506422170190271 -0.7496506351988573 -0.2713866235419455 -1.2019686164139687
Ni 7.049764164454355 8.524967588047494 7.433472496751505 1.0056787740068613 0.7018270879576752 1.1406742883798615
Ni 0.3896959052677193 8.537249552051023 7.531561861637474 0.9291156927391417 0.6588801520825041 -0.6354064944405959
Ni 6.978364274393209 4.845960257762491 3.8497358714419554 -0.45201099149765384 -0.0771886306668606 -0.40653820387683537
Ni 3.795625918517154 0.029438823426065262 10.426249809372981 -0.9774593741498521 -0.7571032348221607 -1.7706650111215247
Ni 1.286528798238706 1.7149373801134846 6.18599369015833 0.9532113002357648 -0.0829090780904056 -0.704380193396832
Ni 2.5648234129355423 7.1063221928227485 2.915747495945621 0.5020737124819998 -1.0489686950437482 0.9872272521698933
Ni 2.755743724710486 7.038036690925026 11.035117316076132 0.24342381978043237 -0.1644906956186393 0.17480133351602797
P 0.6214627578246015 3.281336003696708 12.216846490540258 0.5438132583126313 -0.14458855737807358 -0.023237116151069655
Ni 4.163863042433335 0.6604683902321965 1.0539071062007654 0.6494696574018815 0.8912068335085104 -0.17540271454545275
P 3.892744925073274 7.471019819211954 5.261878941705916 0.2473424381085482 1.0070766827956525 -0.7588323016981253
Ni 6.118164718751032 7.111340331614258 9.594083443804774 0.3875212964547003 1.108298443152317 -0.7553625979819701
P 6.276693545324796 0.143757200341077 1.659923607715737 0.17867367198724068 0.09865682784296557 0.4172370783515782
P 2.4115992118982916 0.1480397151034812 8.254669192438458 0.1586450354711397 0.3149004876641803 0.32727417873818476
P 8.899867839161978 4.655825474159331 8.900219016462305 0.5656000151704195 -0.021680827407543304 0.16239421810092677
Ni 8.115947689753908 5.330973075545181 5.8452907148893365 1.3332609709037684 -0.04054346864000114 -1.1461995890734646
Ni 4.154427462864033 4.776177631584428 1.7112130524284415 -0.6649852365389773 0.3566480039146116 0.39062384663942407
Ni 2.2584951504637845 2.610957020388978 4.233208545287571 0.14748670486147503 0.20716278056586904 0.5815102586427726
Ni 3.6120433640174565 6.250364489308201 13.35771341365901 -0.13552927538928272 1.3356199580542483 0.9936670942579662
Ni 8.468899359597977 9.016966985805103 9.634512268429482 -2.4574917690156255 0.7978138251676453 0.29674772801455346
Ni 6.086115169342275 7.096821922698123 5.773440763393299 0.06379292608624498 -1.6264276664352828 -1.5961747810880123
Ni 1.7754415323566015 8.379709566822916 5.049670816475647 0.22840883442883889 0.269068259821414 0.08305794496344406
Ni 5.333181795934077 3.6120433640174565 7.900994836676348 0.4682927593768129 -0.449156295657678 1.0432371918766097
Ni 0.7010256718167609 6.377915781389995 4.285445244560367 -0.44363665139102954 -0.6211191312836464 0.8053235032811291
Ni 7.503707032666041 8.62044160619682 13.214880364108266 -0.06750148528608374 -0.13335155101167356 -0.44148258116250416
Ni 2.4869637088499674 7.013398830854741 8.508266334964592 -0.5469129802838775 1.4447404044326988 0.21443720274009523
Ni 4.673282682588726 4.457872374869952 4.313782480244355 0.5272697521316533 -0.851458607076295 -0.42601379610294365
Ni 0.1251170789000556 2.130666613144891 2.716862852659586 1.3846071865862284 2.8202944796777234 0.6617492461001828
Ni 8.966203382892099 6.833235634279277 8.953376169922272 0.8999789232741855 -0.5321576763515738 -0.032274800873305705
Ni 2.740125576353854 4.619691178257302 12.246156857006467 1.1353603323661157 -3.3362729751662736 -0.9646118287632225
Ni 4.270417628558757 8.818764365802334 3.3123255521489523 0.7665882914944605 -0.4691746477611339 0.6355029108091442
Ni 0.5992193724520708 8.276149229258174 13.47507779157896 -0.5880665717040517 -0.6352267743296222 -0.33172424408973833
Ni 8.349757839708216 2.3419459668308753 0.271903645531845 0.599815998930496 0.910109069729652 -0.8338509212968607
Ni 8.230634802834262 1.2859465832407957 6.303317405443505 -0.8199260836856525 -1.8751628711262998 -0.8922643282387472
Ni 8.395068952958255 7.88899473866387 5.608857824992063 0.5658846362903739 -0.43350187694987274 0.4601163942136076
Ni 9.022936999910655 2.565692114678456 10.157936489661582 0.7469625468437329 0.8510091782437021 1.3402335455668597
Ni 4.589952005824378 5.901053973578045 7.2493178929125905 -0.4989241111094246 -0.2543960025212199 -0.006819851135310836
Ni 2.1703219235580904 0.7330983249952758 12.508342132827167 1.6433182715430346 -0.9628691350405031 -2.035762973441281
Ni 7.080686249898904 6.043816787668723 7.682687316229878 -0.22870811083681258 -0.5631844637503913 1.28629257257403
Ni 8.017414732488577 6.99717074297649 1.242152001437694 1.1806605989648118 0.4737075026344809 -0.7303506493186648
P 1.1407902186031542 6.284327030852948 1.2237577041069014 -0.20446157958462208 -0.04375580492971174 -0.07937998189122458
Ni 8.87488804329927 0.36012123167547505 4.124636537986851 0.42507045835306795 -0.05258214497209009 0.33187285385246074
P 7.476148856098304 3.622227505726929 1.8454173060498438 0.46942738720188837 -0.17879142851202756 0.602459350090614
Ni 8.671621076965476 3.1995763832759265 4.737913168110681 1.0334387177289492 -0.009261113586951792 0.8358013601550123
P 1.2737385513004937 4.210523415837261 5.745577617064752 -0.9523304402927081 -0.8399593481874437 0.15044553037948283
P 8.507556587157616 7.408630399356557 11.199050576471764 0.7424502607956762 2.189605702427771 1.2828629780671905
P 3.0887799450228743 2.530897837422409 2.2089930133795845 -0.1379707949512398 0.33013350256385077 1.0561215040384457
Ni 2.585515149131104 8.32377996099195 1.0671973187165478 -0.6637302810859537 -0.4123756364942188 -1.1507319297261793
