# total energy = -340869.7958343008 ev
CRYSTAL
PRIMVEC
9.21542351550112 0.00000000000000 0.00000000000000

0.00000000000000 9.21542351550112 0.00000000000000

0.00000000000000 0.00000000000000 13.48770382421763

PRIMCOORD
 96 1
Ni 2.1958419439024186 4.9315971315625955 5.069987913898285 1.3789330190195865 -0.2554630103331536 0.1189006656936662
Ni 8.236874719329846 2.4646927149372524 5.890485006146199 -1.115376175934705 0.8335133354517837 -0.4544021174376497
Ni 0.9192762973498976 4.502296618480477 6.980399617986519 -0.17246034408767716 -1.7415722075206264 1.1933104265183385
Ni 6.112304862326153 6.393771548406804 5.904039972867086 -0.1326928343817521 0.7375749349812459 1.718063325765409
Ni 2.897707043770624 4.384744673758452 9.699966070832243 -0.4141090742455578 0.17253387763808997 -0.4231786406469938
Ni 8.379041060755581 7.439823508060435 2.0919159246637733 0.6188637595905664 0.9210884515592911 0.20105923877129245
Ni 4.624327259120885 0.4135246292494413 11.84264884311903 -0.17811214305681583 -0.7607007223654318 -1.6330328304566264
Ni 1.8851255029967666 1.7662373218381875 8.7900719963517 -0.3185576248007933 -0.011884667252727918 -1.1012513064975484
Ni 3.3300117849790656 3.488065516864252 3.528828100518135 -0.7432835553302489 -1.6354941475129254 -0.3992280433686673
Ni 1.665033538760634 8.008848275287688 8.893495774998675 -0.5146034695178945 0.5340911459288609 0.9826792277878946
Ni 4.924344593110399 5.186228503827746 2.5798062585481567 -0.07512377771803191 0.3341475088192503 1.0804004311904682
Ni 7.745701851523388 9.172009839325725 7.007523374563843 -1.523793599112124 -0.37114542619983826 0.35261420016487016
Ni 1.6727007712793487 1.2041333378099184 13.233204673133377 -0.43775113914452995 -0.09665445270095613 -0.2307847908601832
Ni 7.2113086465621565 9.26500267988624 11.287063849816407 0.4318399158664175 -1.3678381946580056 -1.8109958495300873
Ni 0.45993350300454594 6.260332213225328 4.750221005376492 -2.0330129214999695 1.7561313362817237 -0.19830275907207784
Ni 2.435046696893136 5.172350075734976 2.4450104129979846 -0.660135878866476 1.9536974742980935 -0.36096565745335896
Ni 8.819040680753838 0.4609425918997374 4.75383529455178 -0.4316511968943792 -0.2983991475750474 -0.9924334789611811
Ni 3.9800216956852426 2.2911017786932284 13.147597994668715 -1.1051107894529548 -1.5808291518698776 1.5853638065154376
Ni 3.7579484153535287 6.9007396524357105 9.076186020604451 -0.18783014167552814 -0.8923309198106244 0.7982097750544833
Ni 9.120209942705898 6.253623384771452 0.10380068947632004 0.1874496184076578 0.24015980431717995 -0.5293135220345594
Ni 1.2701894948942294 8.307741327585754 1.122472703773757 -0.5655149116557809 0.5733716886960383 -1.4881311127135082
Ni 2.2952763656294994 7.906050223909969 4.837419187514211 -0.24842950052513987 0.7475220188916287 -0.8066409365409721
Ni 8.510287125096367 6.865085178138947 8.430597670189716 0.6396845529906596 1.0262193171623744 -0.0683687183823855
Ni 8.715947735817707 2.6786011298704313 0.6812557263046791 -0.20586051681467774 -0.147754613810881 0.005653855851667682
P 9.227311596951694 4.134564351140584 4.762940133167754 0.101303007216561 -0.5865917869307381 1.8158421218787952
P 8.297189667448821 6.982526537776567 6.3857403066519245 -0.8258884719166745 0.4517273988189639 -2.3670748125839496
P 6.5519174345289946 3.504063492408109 8.548438979215932 -0.06109943841448187 1.4577926096309668 -0.9011693440378609
P 5.089438908702674 2.538775506064593 11.313270671735543 1.1216761500108037 0.2420372238455509 -1.0277465524401783
P 6.728328290425335 8.470697664879543 9.040255083596676 1.3119789215965405 -1.1944609951830139 1.0847471381949383
P 0.3589232438247004 1.294398412955123 7.085266531984974 1.5019009128040908 0.009386840531538673 -0.13405706171913043
P 3.3311913592127143 3.260601213667817 7.874741743430304 -0.30753299155551556 -0.6650430863601063 0.13442241547834916
P 1.3629795961333375 7.294293536984062 2.8964168844525706 -0.5300763683425129 -1.4766593646284827 1.4790180946686462
Ni 8.977822431111354 0.10519129691270711 9.341894332157457 -1.7265361391231104 0.7401622360924478 -1.9634761509514118
Ni 3.3842998459979934 8.256964342996671 13.38968901836239 -0.09499531983097834 0.159151542793913 -0.6771264998872016
Ni 6.250950911898342 7.79521632306552 13.45545488960014 -0.8575855459096392 0.026753613944760373 0.29114657977769215
Ni 5.336716372854922 7.4752291659172885 10.871521042776584 1.4889986029201259 -0.2913625524432401 0.07592904722814665
Ni 7.1487359196365885 5.554274095573451 1.5112972328790744 -0.5413079753922742 -0.169922665267488 -0.4224934416545111
Ni 7.076597582910028 5.012351889449009 4.2459023356614445 1.2604586422300614 0.2894193126739403 -0.5570372132020728
Ni 1.1945032200430232 0.7585500925916013 10.91745992992297 0.21512471572542305 -2.3354998659911455 0.24597101168231833
Ni 2.4636237257880085 0.979323076639192 1.9849184047057922 1.0348024308456951 -0.6327757416859683 0.4588393272733969
Ni 8.80884842214122 7.421162275067169 10.677918813967189 -0.6089377587261061 -0.3892907296502973 1.1049328691141937
Ni 7.865216681493593 4.726904140329795 6.922065064420755 -0.32416777189871915 0.5404384283031273 0.3203275722170225
Ni 4.4284257820982456 1.6761381243195896 9.05688523720638 -1.6865344019191921 0.9413196910045014 -0.6946375121877714
Ni 6.999252531792754 0.6543752569130459 2.769781296589083 2.4929441962859644 -0.3075008527659995 -1.1713866298620537
Ni 4.0785990830081875 5.229485702677321 7.268564074012606 -0.6129373668038025 0.7302796868714132 0.07664689923077767
Ni 4.577687999773271 2.252424645422741 1.9087391046866156 0.20895406813833692 0.8100054821378309 -0.6619312802040019
Ni 0.7735915071553586 8.597501894996746 6.626697833230454 0.9795998175316227 -2.3594671754400203 -0.18382899093593505
Ni 6.033706513585627 1.82623894555135 7.183753608155655 -0.7906512459809352 -0.16789329354228505 -1.7196682083586834
Ni 6.028527445466015 3.628038587449297 13.352719503103582 0.6140252005513425 1.091736682138894 -2.822854784205732
Ni 1.497709090632867 5.942077555732766 11.184422460641596 -0.6976184491929663 -0.06463007727555967 -1.0429769962366877
Ni 9.256340181607886 4.634482656038703 2.7171520118362236 0.31495962303688985 2.081978295655079 -1.2935166011262949
Ni 2.9921927829706014 0.9719323068314888 6.474138336955432 0.25133844664181876 -1.8199995956905946 1.0581277358351973
Ni 6.284412115354416 6.053897506913156 8.482740380571197 -1.3491341904905991 1.1150177641540218 -0.8255948519356555
Ni 6.530021587816896 1.4307682528733197 12.815759802641796 0.3035351832500321 0.2860732790198428 1.6184114809990255
Ni 5.771159092361851 3.991126281244198 6.211843418341048 1.6840432600662223 0.31646860348224853 -0.091263620702688
Ni 8.126271204077907 2.8448750196963553 3.4172578873200266 -3.523288077139674 -1.3645425546258696 -0.40452811542534206
P 9.21259456530219 2.0978635591199977 11.917303912058163 -2.0708742153221174 0.6426328369857062 1.3985142835856237
P 6.930616056072337 5.969272271072582 12.238445761796052 -0.1738978478651521 -0.10612382564397206 0.2679829971770352
P 6.479880467463138 1.2948776149875425 4.760997521851714 1.4369113953065833 0.9397425763253686 0.21927756155153202
P 5.760137445616199 7.259855498615749 2.2774795393793292 1.0899140271078585 0.1265728375269433 -0.8678889847181763
P 0.7021572287995069 5.356446594997432 9.145944934931576 1.1007075181789368 0.1027947612707391 -0.2333875185903529
P 4.825435450534239 0.4795430030965807 0.6653701789299672 0.4078666928802718 -0.5262387397639776 0.26338097962864965
P 1.0439969201684463 4.454662093373222 0.8300212326422546 -2.646032049384301 0.16837640382629065 -1.1385415583075746
P 6.472397543418431 3.4558852573025316 1.7670648668864815 1.3487348981696512 -0.2894339679619596 2.7588327728278164
Ni 4.896329705061248 5.578538306176546 0.2955340303592789 -0.3012898388592811 1.4569222912108717 -0.6770984748627437
Ni 7.2021853770987825 7.568157498511901 4.055388195334046 -0.1715116070211627 0.5845505881309933 0.9209125881030591
Ni 5.583956975312369 3.2329641579903825 3.79550771772916 1.3365283288011305 -1.4539755498777218 1.2841937810634723
Ni 1.5694603795640114 2.5186950978214684 5.626476940265914 -2.1050403196808647 0.9764445597320924 0.7827872698518261
Ni 4.883769082557633 0.4718647120694256 3.320646149872371 -2.4138190107180235 -0.8865397670501441 0.2113631918004618
Ni 8.451243905448043 2.4176018998283197 8.360084012661533 0.1412597501151567 1.300873041491366 0.9318402907591565
Ni 1.6149753572201797 3.6440642092642546 12.161350448661059 -0.12805327872721173 0.24080103744560463 2.508786048414228
Ni 2.9647400357671745 2.137996729335145 10.969442291932062 0.5605825073511701 0.383995542689629 -0.3728770641789643
Ni 3.845135538982807 4.20706208939146 12.042307448384314 0.3273243152498298 2.5883740325512004 -1.2531708503193966
Ni 0.5314921895803528 3.366726033001372 10.219471758805513 0.07627640326523638 -0.23980653474281927 -1.5549008620398899
Ni 5.522904793297363 4.540199656160133 10.183419178204893 -1.3965360768133304 0.5846274641155157 0.32894153913827867
Ni 8.334862319535969 8.813059870772294 13.386398190558985 0.759904965937014 0.8356496650684963 0.6150544131468052
Ni 1.0183227497391927 2.2157933362137374 3.4303004764831715 1.1883080882077406 0.04276927264672634 -0.5729464282331617
Ni 7.8969453852939955 5.023502552126468 9.85344250176545 0.5629466367079725 0.47816990928120867 0.25937597223431463
Ni 8.498933723097501 4.379786775807649 12.199021257663464 -0.44032198519549975 0.2975296004859005 0.7756388317325029
Ni 7.216616730613574 3.036316231648012 10.725058470821732 0.7443857872554921 -1.426479144229666 1.8592251168501204
Ni 1.9129560825719087 6.4502252339953206 7.264328665279912 0.8620127284430574 0.893103793420907 -0.6092246938389057
Ni 3.400675653913566 7.495005465178299 2.1733277422600246 0.6573218064564487 0.1442867098669386 -0.11455113047571885
Ni 5.085457845664111 9.209562690904766 5.601497612783669 0.5726538366934073 -0.20285721121197967 0.8597956661870806
Ni 4.889206182540856 8.62172924390504 7.96601314284359 -0.020412759328397104 0.46360795230663376 -0.24439184012065648
Ni 2.546037259940491 6.006788260956823 13.258696378173365 -0.7446848065531498 -0.18172402877779026 1.74668638881874
Ni 6.538435269655341 1.4041264629555261 9.371553251794753 1.548416796977443 -2.184455782795715 0.8313410103908134
Ni 3.761109305682758 3.1301015986467613 5.783095830680951 0.13171838628362476 -0.5415740845694673 0.4165565073447858
Ni 4.718352227135844 7.19335700119382 4.202229521202982 -0.4986281771355606 -0.0007422774826632378 -0.36016373037735394
P 3.066349297487545 3.897801685430468 0.7791861908838582 2.833021697436405 -0.44337645575110735 -0.2454429070929902
P 4.3461320484538675 5.162996420679092 4.894835884879417 0.906780005356419 -0.9565501348010107 -0.6035785512967217
P 0.8094266037566494 7.92287758758686 12.364987352337796 0.9245090472050658 0.4423048199534834 0.364280837869521
P 2.8804096934850136 1.3178240200014841 4.29039808745635 0.7667124757771505 -0.10055430197599456 -0.7209419544102552
P 3.8378000617173056 7.58053381254151 6.228878129051197 -0.30944434964561546 -0.8038505182800284 2.216579145692821
P 9.29836251368161 0.9203010524653797 2.003449700224883 -0.23715855559701093 -0.5884131564101931 -0.8022649189604635
P 3.2289923103755194 9.241964120635295 9.6343752926448 0.05350439967604334 -0.2783995645246689 0.451127560451436
P 3.4482548864786184 6.818104948114419 11.501059811274741 0.7786904740746331 -0.6171274936257501 -0.242321330744873
