# total energy = -340858.952089803 ev
CRYSTAL
PRIMVEC
9.37578630520492 0.00000000000000 0.00000000000000
0.00000000000000 9.37578630520492 0.00000000000000
0.00000000000000 0.00000000000000 13.72241097666994
PRIMCOORD
 96 1
Ni 4.300654328266252 7.6815440410274896 3.9188048129900457 -1.0570825824001342 0.1496708569969874 -0.7451188087667748
Ni 8.589176389331042 8.456124608916856 1.4474947993034148 -2.4570456826171427 3.0236281163054897 1.44671012656456
Ni 1.134076333967947 1.6215703317577863 5.086417396226085 0.7142897392010602 -0.42247595815301436 -1.5951771930614334
Ni 6.743271623779285 1.3700648698727504 3.4918043246364947 -2.3682073835264954 0.9895790402315215 1.151750343688365
Ni 2.474269949355489 9.089280819412973 12.612281197109304 1.3983898421926173 0.7768274527239654 1.7679183016143232
Ni 1.3463722584213624 3.0522309071352147 6.840511651641147 -0.19778571022634323 1.2733205857943943 1.4961611821068361
Ni 1.1516840602464222 8.611818912740263 7.596740055836431 1.8465642335530004 0.17486021177842143 1.333522194984955
Ni 2.195321561582755 5.304913528021331 8.874392490105459 1.8154428295578475 2.984570488182395 -0.10082426780792958
Ni 9.499827740755824 3.5390685998987 10.969680977149908 0.3511926372269951 0.4531109094300519 0.5455595515797766
Ni 2.5217301785469908 6.104021152324163 0.2414536816171162 0.45976209619798236 0.45962994149549224 0.6185559985421605
Ni 3.886994645941265 3.8945140263860667 10.846700666154433 0.44142730244453654 0.6029972248719551 0.22631749911744894
Ni 4.3798797207333 6.849686795909579 12.745677068873022 -1.4214819481253904 2.254708091354059 -2.149931009545968
Ni 2.9046185309220554 7.671399440477271 10.356207354394154 -1.888448532491612 -0.8152867851414282 1.9574859948062482
Ni 8.345434078329168 8.808626038571719 10.646175103559377 0.10786291982226584 -0.6915627299171896 0.8490016608953701
Ni 0.22620677827629812 6.238798077379053 10.42303514491337 -0.1046194731843037 -1.6239550365250743 -1.0425504502222303
Ni 0.5419016844746061 7.253361266047891 0.5501739405424967 4.698133354974289 -0.8359674534192313 -0.5257219480285591
Ni 2.590060907576558 5.971372530711881 5.239559611075585 0.1406930789784093 -0.5756005780265571 0.6342353569506303
Ni 7.859102678014584 8.376008516771185 8.339616403059841 0.9124973674561704 -1.3965047093547625 -0.12111387129490107
Ni 7.92124538822424 6.465232687257356 0.12248058159683754 0.5259093814490169 -0.18611058788126011 -2.3341927171439476
Ni 7.2275122237956255 3.8728090815859226 9.457828906962199 1.8052674316867425 0.596478964137463 -0.21449222434774673
Ni 1.0508474808401385 0.8782036309218282 0.856713391623163 -0.33195975713931214 -1.9306326220588301 0.1822469911607958
Ni 5.78877909659404 2.191018075767089 10.04861969042854 -0.3243472348993769 0.8230520309091438 0.9428700662107568
Ni 8.84820123166088 7.938853114502716 6.307739170083129 -0.36513290145717114 -2.0193063705471546 -0.8664247414678241
Ni 8.16348757345159 4.805906064912019 6.77925495321707 0.44251410775081207 -2.757390126844019 -1.3859012228073035
P 4.689468177450686 2.3382272931783454 2.3851334134118827 -0.6099268621122529 -0.3824317977469349 -0.07653531335357786
P 3.229930180913671 0.8593189225777893 4.608246680124912 -1.0215231972382859 -0.3961157229919307 0.5492920220390153
P 6.4362146293064075 6.89881591502524 11.924047868801537 0.6198240666213068 -0.20196478130469733 -0.506320917794128
P 2.920247966335377 7.2612275505780515 7.1105136643260645 -2.460673252067401 1.3369749294202458 -0.429613340528744
P 8.440438918786988 1.2052573019691097 2.452469371537219 2.9941406483693336 -2.345182383386232 -1.201641572091853
P 3.8917012905588337 4.798667958049942 6.973208089762493 -0.1476736240613005 -2.168339336849827 -0.41091370723671167
P 6.229394163930005 1.3953701165317518 5.9194916183785775 -0.7633541008278788 -0.6217025145909422 -1.058353735803074
P 8.731163293889736 0.3444616930820234 12.75019150987573 0.5537341169707689 -0.8874576508787233 0.9140384866910453
Ni 7.667217839880786 1.9839163368079629 11.797540387078712 -0.04911578369004444 0.7980357113704644 -2.1954619040982317
Ni 5.635438115079417 3.700744655248022 5.718842295407122 0.27513991993679066 0.29840223289884094 -1.3484626183448714
Ni 6.011153991095038 5.345801331163199 3.0018463702619997 0.13061049793142665 -2.2667323695084445 1.4360595888292493
Ni 0.8862208656080497 5.822728818028736 7.170454002382996 -0.2835620825622149 0.8305095156284535 -1.1379679451922917
Ni 6.028799220517876 8.79304348208885 4.771666631687118 1.201793010068053 0.9634360632875664 0.4582019507997141
Ni 1.2465388881267914 2.795221858814894 2.5477854880932544 -0.6118634170133334 0.010553350035814084 -0.5905739115069377
Ni 3.2364744796050315 4.4588144638315335 1.7562760008383853 0.3973531949434576 -0.07042354402888516 1.588580256570206
Ni 5.831992094686421 5.6554272910249495 0.05795735929873395 -0.45270673201309775 -1.6826864889280118 0.478466357475705
Ni 7.321560734072188 1.506145029194257 0.22580455705300384 0.20146110219540142 0.2056903097854006 3.184014817058084
Ni 0.7484024355453135 4.163036540025859 4.959292987778487 -0.4993871667887722 1.034550205625573 -1.4081340660635748
Ni 3.9119904916592705 4.183569511564656 13.217755399172407 0.36545840311739 0.302397212990847 -0.5152380177780997
Ni 4.1960580586375675 1.5166459096159246 11.885610896143797 1.2700077193710773 4.03494403399347 1.5569883406965377
Ni 0.7617741816679767 7.855436745653091 11.926105853848462 -0.7658946078615454 -1.30516369844692 2.3628360919122535
Ni 5.331681397310493 6.185974898543626 5.283882702241113 0.866348893924566 -0.7710113602628206 0.5235719915650919
Ni 8.443336036689038 9.281681325781765 4.649907048040662 -0.11148303307335637 1.4099096699067588 -0.960811481180526
Ni 4.472503111524064 7.393998057409514 1.3235994115854792 -0.2921842770135871 -0.11937246312376215 0.6356445785933311
Ni 7.561177699194122 4.797964774093133 11.588246589331563 -0.40650323687384177 2.109589372504128 -1.4644826200566328
Ni 4.802212005192254 0.716512574314761 0.1677056233842992 -0.32176636154607813 -0.3375007415621994 2.1103702165342106
Ni 1.0084595519237451 9.259076305516906 3.2426606232677253 -0.25073706561239395 0.6834089904618037 -2.4765289881527344
Ni 3.4384289120003224 1.2755663218638305 9.712434003728843 -0.4787741185241109 0.49391920169566544 -0.21485963498949448
Ni 0.02650628485722964 2.031142171347196 9.194701220639036 -0.7275265496063084 -0.35991047671596726 -0.6370157479092449
Ni 1.8790950483130997 8.389500272955809 5.0198915060189915 0.5700986743717215 -0.7963971473257768 2.3064088621624603
Ni 3.883478726157224 2.404814125995028 6.837190748207795 -0.3184344689593677 -0.17409890813236467 -0.2664534479063863
Ni 8.143554652222603 3.2679489935117627 2.446857025983281 -0.5318779403276258 0.9340918057974944 0.36347248303561275
P 4.0662784275690615 5.187191157865561 3.680885802729152 -2.173528337249934 0.23632011885611562 0.5234411224141824
P 2.0905846551627087 1.4542031742513641 8.030986151680933 -0.17501704907125987 -0.6167035187144541 -0.23772779783691964
P 7.609538003850338 4.414382613547351 4.4663150927041535 -0.41170637834133605 1.6784235998865997 -0.567752542737048
P 9.16776552477885 4.4821976743419265 0.8757218603436 2.3136439464583187 -0.5141406709488628 2.4798030309183163
P 4.248187429302276 9.028694489694386 11.370842736615895 1.3411439731962709 -3.081005625783694 -1.0710444438968652
P 7.5332191050714306 0.8891142331956627 8.75263384403761 -0.0969367598280653 3.5533537861768028 0.6967802695623871
P 0.9375645453983511 8.252116879367685 9.837239780276192 -0.7845970693670552 -0.0856223632565106 -2.0359617197156483
P 2.587529445332049 5.831560808526246 11.793286592929327 0.03780498666291554 -0.4901417369311043 -0.3314342236531453
Ni 6.358311222678159 8.85473615456615 2.036899841585541 -0.9769441250763304 0.30512926721002936 0.2884579772019355
Ni 8.218476558873984 2.644093562817694 5.274331588950441 -0.09378741556580622 -1.5922988430723737 0.27807971929140496
Ni 7.174248383013934 6.503213996711085 9.670841141472948 -0.5280778498552453 -0.08333228167075327 0.7209807780679905
Ni 3.8895823629023187 0.2865465248206979 2.561384128239314 0.47579318151891603 0.5643805409410215 0.10475419898995508
Ni 2.0570568441020978 3.352406074617463 9.513678589547725 -0.6049600050252807 -3.332664431879409 -0.05930069464284626
Ni 6.850811890240473 2.6930257904254478 7.427309287811429 1.1394617561289988 -0.03169347444853897 1.0113313443069485
Ni 9.228773764871521 1.0981483216680976 6.985187531650676 -1.2641111513809842 -0.7863513330540005 0.22025072409807875
Ni 2.27730343516049 6.769355060683821 2.98883746706105 0.8352118062001292 -0.21220599941673132 -1.960381056965856
Ni 4.732990576484063 6.384675933165418 10.302347213617091 0.8122004329066205 -0.49089944103273525 0.05401476365355859
Ni 7.490840551941129 6.953758021517181 4.008672660248732 0.03653023371554999 1.274529518500831 1.570793107790114
Ni 5.903951252933118 3.5936544265191914 1.217142048417776 -1.2621301163952134 -0.7814199571906542 0.5561170153806487
Ni 0.8282231904291253 0.6689473363190419 11.096407852267259 1.2411838531608492 2.689848532348619 0.33853098259892667
Ni 6.481462172980487 9.020893835666861 12.892712834241598 0.9346394507708484 -2.0355539427542686 -1.5519163254902693
Ni 4.2017772881529405 9.09806593098003 6.249460221321481 -0.5327557149468889 -0.10893378428894143 -0.01203224857418573
Ni 3.092443653678548 2.3646857615265118 0.7061898338288178 0.10155471821605092 -1.0963682673736344 0.4871350888942965
Ni 4.793258129475563 6.6341374736826655 7.483859341617937 2.6303467774385605 0.2834396980517377 1.8599437401837
Ni 3.157502233362435 3.008933526968016 3.9844803193987057 0.5282853378803611 0.389715990113174 0.2917245637683492
Ni 5.415932211122196 0.9809978744638657 8.163571955526407 -0.11835584893378971 -0.35338630244420427 -1.5140874275679537
Ni 7.580866849984749 3.9447588640465288 13.536375550631039 0.36735150637504477 -1.710801501996673 0.1360401535874302
Ni 8.51717035215389 5.75356364403709 2.442026620989314 1.520544496047207 -1.045988786479818 -0.22963447930582384
Ni 0.9193548936528481 2.8606835973006843 13.554887102688664 -0.1618694559457083 0.9534882080462352 -1.2040293555977395
Ni 6.258918514329855 9.17358788794122 10.202996696306194 -2.740598766318293 -0.6827788130769724 0.09958962406988009
Ni 0.5643191890176488 5.24659613853671 12.908205383177995 0.23647489926642498 0.7231047663895289 -2.829244232671843
Ni 4.057980856878726 8.674439788040548 8.769073347369176 0.18940262836897057 -1.2728840124776077 -1.410869462716867
P 0.4911261773214057 6.574019933268617 3.968836820306248 -0.8550578943917791 0.49722512614044684 1.904074154844011
P 2.4817987055863813 8.433228939283183 1.4919144610656787 -1.2150102800892753 -0.2846308901463614 -1.0967822149826014
P 9.461762049227277 4.193235947024244 8.617194050906104 0.06949229046386741 0.8536296465856847 0.45713879964252235
P 5.864085410475143 3.463874795450686 12.224431178735001 -1.0669839006742463 -0.6969551045773545 -0.5141897790192436
P 7.412102700350801 6.512777298523675 7.444366655446376 -1.5428632141490652 1.5199500569963178 -0.06797636803997326
P 6.699514830093639 6.71671939757021 1.746204531419675 -0.34014486405326577 3.5971921235179924 -0.3431371139123704
P 2.331786128133983 2.3875251764436394 11.521377545353547 -1.9430839604483054 0.6087397837826871 0.37809588937574234
P 5.19723262476878 4.583371782047478 9.263038512718868 0.5926166529685795 -0.20927134226843958 -1.0590402203471374
