# total energy = -381177.58281765186 ev
CRYSTAL
PRIMVEC
9.15764245363116 0.00000000000000 0.00000000000000
0.00000000000000 9.15764245363116 0.00000000000000
0.00000000000000 0.00000000000000 13.40313539957467
PRIMCOORD
 96 1
Ni 5.5796049383154696 9.060552988030949 4.673137545608342 1.248738782689972 0.26668253319805685 0.6378202460884113
Ni 0.33837763071447485 1.5297383599781178 10.208283046264151 -1.1034853380343899 -2.465596400400631 -0.7011817410641925
Ni 7.436344389964087 1.837609136859224 11.801393206804303 0.909535456614369 0.32039930599522237 -0.08838527071362842
Ni 0.7288888033459148 3.230367483137125 4.93803700170546 0.38525975411403324 0.11087779538918968 0.7550255263575255
Ni 6.753742889683271 1.5646472924707793 7.4482960289452445 -0.1392864284388698 0.015186735042767394 -0.7447938213271883
Ni 5.42913571748994 6.242499192341247 2.3837480302304415 -0.7491479845308259 -0.8413976232958671 -0.8043647389122858
Ni 6.090766216876687 3.616829146338278 8.462015896879954 0.535361270890536 0.5720010336007568 -0.5685328725464982
Ni 8.240092340387982 1.2903575899471202 5.785530093688692 0.6819354912400708 0.2845398730944519 -0.9150386458207853
Ni 7.267440835164863 3.408794985940643 4.534535713454702 -0.6891677473224518 -0.28083414210809055 -2.4783418729917575
Ni 0.3487971961368646 7.037116973380256 7.403408929389624 0.3372436312460708 -0.7097234599866165 1.8872192880702015
Ni 2.8698952088169203 4.639279910453078 2.4548113345701714 -0.23083492737182826 0.05039233640962289 -0.6964660807560779
Ni 3.459198649224905 6.697240236619336 0.8397319901239634 0.43231017063461674 -0.7656112722931718 0.12612803668004086
Ni 2.2049588005556062 5.710540908089884 8.7820022345396 -0.6923679994273043 0.5465337425675878 0.48630976477952376
Ni 1.2603022078797241 3.567158094438961 9.328555053343313 0.5686411159895883 0.2719725779524026 0.7053844662916303
Ni 2.84545346148667 1.7082391239201304 6.050966187625282 -0.9767461501329114 -1.4201601439901734 0.6785704314225798
Ni 8.398730178155654 7.302688600423061 13.558209044367487 1.207125992245192 1.8589934604552887 -0.45770598499990206
Ni 4.943048063578488 1.5983016279667208 8.784709233606973 -2.8271968632245112 -0.575040334647713 0.19827601959920046
Ni 4.019536467000601 4.061853932123525 9.624362468007057 -0.8261226994146676 0.22736522365567294 0.13252494134532014
Ni 8.02006166856186 7.124609088027393 9.547254203977294 1.11205919574633 -0.471264183300311 0.13607537770073985
Ni 5.194571867314961 5.11596266571029 11.869575516872734 -1.7212376097283324 0.13587508876447568 -0.47545945232858117
Ni 1.3048449800844208 8.363757142166811 9.908374839373174 -0.8492682842931956 -1.3726430722458167 -0.23308052887289535
Ni 9.223577336465985 6.994680458907278 2.9373238449230885 -2.6842810655631704 -1.3069912385739622 0.8019792693992447
Ni 7.931031070006339 -0.09384202382615323 3.9134873059727906 -0.17196849205292317 -0.24657342115300762 0.48714665885852226
Ni 3.820888889972583 8.57559172412385 9.8413189193091 -0.48947839231549256 -0.9773935539089231 -0.688298457343621
P 2.4384878371493506 4.280913893864592 0.1087149507047815 0.10816605288498145 0.5459282477731049 1.1624232500211786
Ni 4.8279364997189 7.470026198386964 6.216400827516789 0.06979388086468626 -1.4045967423342778 -0.49379578874392377
P 0.8857262486350838 0.41119737084961205 6.692694382975748 0.7183405122316661 -1.864952249141885 -0.6692972336507699
Ni 5.3904996245763686 4.63591905572464 5.916063127201387 0.4887865084547905 0.796729333854215 0.0837634556709009
P 4.668914040974131 0.3261329471793391 6.873181439535196 -0.09313255559062669 0.7666268580418797 0.39773628931448923
P 7.398523327216267 5.383997698534976 2.9954931888877745 0.360243948795986 -0.6824563967405473 0.9651635875016344
P 1.890457890640742 8.271951777990806 0.9086038706584747 -0.4265192749844525 0.5723612451536529 -1.2850183338472965
Ni 2.256617060836588 0.41132740937043993 11.801540644845522 -0.7986427488268439 0.662545259638917 -0.5470091395421095
Ni 4.439203741224416 5.818527826230876 8.003668573059471 -0.21450070898817897 0.5437659500144635 -0.13793119996255598
Ni 3.7698991375803637 1.1323882600682103 3.891948531255388 -0.6011730271790227 2.4039955968696987 -0.9404146626917288
Ni 1.000087801589334 7.568241912181243 5.345612525020748 -0.2973905038048749 1.391468432482436 -0.6134924679763241
Ni 7.797128024122895 7.966663456241634 6.087637050498738 -0.8800870694462649 0.22962676599634 0.6038999391918826
Ni 5.089039197313537 2.1703703855438587 5.649434708235797 1.131010540037852 0.7338537773759168 0.1068067106436096
Ni 8.366788321772024 0.07990867104871777 8.275055302970282 2.2837875252185187 -0.45315770350758733 -0.5397411451257865
Ni 1.1003090390499015 5.79335346751568 1.0947732442724059 0.2522013088627463 0.340998984523445 -0.009598442321712503
Ni 8.793058256102661 2.8931189897196976 0.552976904885454 -0.3366854447497557 0.1905118022727493 0.5614589964188524
Ni 6.182653999833497 5.638241322038058 9.638904803998226 0.12207520676690588 -0.30330738350994213 0.337929858679818
Ni 2.642556738425967 5.9372566588036335 6.240245496568308 0.6755586411794495 0.7804000005665722 0.6977269497463725
Ni 5.82377515527555 7.028627838957198 0.0764049571002151 -1.0031516367096336 1.398597330217733 -0.3128320351709257
Ni 0.03668368357269206 9.024535980818557 1.941162840357063 2.0039540564608007 -0.08763785102464261 -0.9016300857243633
Ni 0.8626068648546608 2.6506520942296166 11.894398222123154 1.0710007351431232 1.2262786539142427 1.8310694803515108
Ni 3.968143778346662 2.4343485828244074 1.7124250822208638 0.21408367605541842 0.24371049778291576 1.004420219009412
Ni 5.020741500951977 4.119025093076223 3.345436006077848 1.3064050270531886 -0.8717245564141826 0.35420648435265445
Ni 9.00377560569766 0.7236964201551123 12.97230492078565 1.543572324400948 -0.7467542874876688 1.3586884098379375
Ni 4.685297063069979 8.558576824708489 2.634533727996581 -0.124564805957979 -0.8117772293262729 -1.7838450001469084
Ni 0.12169041409640051 4.884750512621436 12.652050264206268 0.7781222602759889 -0.06930357149182903 -0.5973148297751971
Ni 8.366907371122078 4.76567368964083 8.488822147455117 0.8648581683116525 1.874462245514849 -0.7375453672948912
Ni 8.54193738862791 5.722601523014553 5.264698344846192 -0.8701196738209079 -0.48008615246731506 0.24335105756096798
Ni 8.183434007404745 8.60294560170926 11.333811316476579 0.5279683208605747 -0.44784169061131257 -0.10906722454301217
Ni 6.494142045427773 6.736352526933123 4.503145147138243 -0.07975793405593361 0.12651241660265308 -0.17814376762569964
Ni 7.908475796992325 3.782307742912881 6.574425264047044 -0.20723297168217214 -0.8631278158841071 0.4337471601914594
Ni 7.347615993604855 1.0462697917678467 1.547431840688787 -0.37237492773156516 0.4587148858803906 0.4168712103717272
P 3.415196177916606 2.126432017731742 10.457166701722128 -0.7716618493626259 -0.26676892226427606 -0.277144094851013
Ni 7.340940072359537 5.50236022541526 0.8294836726128046 0.4867635644874907 -2.0638486759339036 1.6173159339420016
P 5.99562747089918 9.221654231580503 0.3396230700688825 -1.0255176631096594 -1.5271512027304472 -0.3991933334759899
Ni 2.032731021597191 1.1059226737870478 8.7268750593509 2.1667519377580486 -0.36377073100232193 0.1283227303385145
P 0.7360995309022426 5.906679291124464 10.555759710379654 -1.470593618050377 0.40363671395932416 -0.9762283299562285
P 0.9908752134236423 4.6854069547777195 6.840410816522344 -0.5089305875028332 -0.24107100327753964 0.2902122408888808
P 2.1404706833957636 2.545485729920666 3.2065255613782995 -0.5455628940138864 -0.040893138669936026 -0.012368548867681925
Ni 1.3256053552053189 7.2668730613415295 12.198287256127081 -0.6493565288627848 0.19498346489085774 0.6724712605033772
Ni 3.7692764179031597 0.3665245601240875 0.38072165300010335 0.9753513266679138 -1.2198110439120282 0.44717731755443635
Ni 8.065080638166773 4.124006850493854 10.5768827281361 0.18591107027594433 -1.0245609556233453 1.505956056710071
Ni 4.789043992820597 0.5909051120483225 11.374369598511402 1.1450572479389054 1.263270914867876 1.9273881469796033
Ni 0.25777755767121463 4.21561990418131 2.7422550745105294 -0.8181360816647651 0.709930690901416 -0.40175698043810804
Ni 8.991815724838421 1.9360080034997393 3.140931201027189 -0.14509275070800173 0.25137109965196713 -0.6410863184341927
Ni 4.875089199982466 4.457006197878596 0.6706892391615996 -1.0285127411822415 0.696795953291671 0.4284476023554169
Ni 2.305125092162303 4.741305203449074 11.429188161154194 1.3037177100290127 -0.05312516195975367 -0.6288494100483686
Ni 5.5988909330241645 2.846021235310003 10.922697280172002 -0.2673649039770621 0.6557441775566835 -0.5138254537012893
Ni 6.754438870498969 0.6230887301889858 9.820129050763775 0.044950853679077425 -0.12534230755395187 1.00815140391707
Ni 6.004519541583958 7.531977648626432 11.044732937383559 -0.5555683419660302 1.6405630773954003 -0.1503802243591862
Ni 7.03336234003241 7.813593464999548 2.1638025244778207 0.08533799924687238 0.4874953004471927 -0.6441677855729938
Ni 0.7527728502593748 2.383303884578318 7.361886347619365 -1.2526928822417136 1.9769024516596467 -0.19377118975031143
Ni 7.325710913194979 5.88795191259679 11.945892560606755 0.9404995090960512 1.4349334456446061 -1.1423727591282067
Ni 4.012457609493564 6.200456456487678 4.165239135002827 -0.4112330382493433 -0.5328966114001275 0.6856353086891611
Ni 1.8675088390073191 1.4738492689490752 1.0773087046195324 -1.8228818023343962 0.21662109776529145 0.5835861673351949
Ni 1.3242866547124166 0.49977741340339304 4.331370671474263 -0.8627136111648239 1.317446372469015 -0.2679161484948418
Ni 3.2659449235185494 2.4210242132607083 12.72344873825461 0.124634739963966 1.4625571208991455 -0.9395636275453432
Ni 5.610649345752543 2.1741250188917056 13.328439219942744 -0.34890204142060555 -0.7667857522172472 -0.4980499360345874
Ni 3.093561464640833 8.289680973506492 4.494741178788685 1.3605133788618182 -0.8330387098082105 2.2453883566150297
Ni 2.1993360081761484 7.281452027901949 2.7706959642383513 1.304765948787869 -0.1285358747905851 0.05525197849476936
Ni 3.652489005500508 7.734727849410147 12.19944020329414 1.0958836144277322 -1.1944386265855107 -1.2057270550151362
Ni 6.61392400686639 3.2439940548971147 1.715252962166754 1.0072764575112847 0.7626552749886413 1.6481267486752713
Ni 3.241878639523084 3.8912378982119904 4.768379772943973 -0.7003106513131488 -0.5796264113564985 -0.4233853573411611
Ni 1.4013940029779484 5.583762507925036 4.338862538649564 1.8554718204552751 -0.960020095627482 -1.0500166766922885
P 7.948796896091271 2.4311250927306465 9.174660874293162 -0.9766065392312536 0.4933671858469374 -0.9830342971344683
Ni 6.14705824416745 8.15794828885095 8.169411825496885 -0.40717660879178263 -0.36819585665321103 -0.10567645369390832
P 6.045271049871561 1.7747877106001326 3.437957497882637 0.03227042999793152 0.27442566747858543 0.10494291796199347
Ni 3.047699991943234 8.050355149329365 7.775078252964492 -0.9128678634217117 0.16777836523097556 -1.095211785171688
P 6.930989056628564 3.889269005114949 12.74366057060103 0.299032153173356 -0.8410759782903903 0.021552786470111267
P 6.551349836949718 5.966084916801246 7.467771586849794 0.7502934109891788 -0.005237337139539367 -0.6901337107801468
P 4.214594248242386 6.442877563766199 10.357714706215752 -0.8932578025002681 -0.592999747339611 -0.8749631179561383
Ni 3.3729886045014235 3.7700731327842885 7.026941917007592 -0.27175917639001584 -0.10924051689608283 1.8614984862653297
