# total energy = -381175.87882433133 ev
CRYSTAL
PRIMVEC
9.18880126136620 0.00000000000000 0.00000000000000
0.00000000000000 9.18880126136620 0.00000000000000
0.00000000000000 0.00000000000000 13.44873946427067
PRIMCOORD
 96 1
Ni 9.068915033326268 0.2592666237630539 4.005760535992326 -0.28977823867525576 0.8065121242725917 -0.17581074861714882
Ni 1.9403716092280061 6.220625531657722 5.177751714168611 -0.9298052626069988 -0.911078889842089 1.0805408134230745
Ni 2.0615718986942455 6.0034114571548844 9.515063498420968 -0.34733932491917596 -0.10837868311641981 -0.5212934799435602
Ni 4.592167783379793 8.883466645001201 12.437299878746039 -1.210761017894618 -0.14766848185497794 -0.511075658870294
Ni 8.01736698738711 5.372002974162265 7.617756125478971 -0.0892231932338915 -0.008741750748372041 -0.18454452894572088
Ni 8.198220975050075 1.7502828762342157 12.721028010514253 1.4426313285094963 -2.097868227412458 -1.2168856427351171
Ni 7.2400035841608466 3.9132531975410427 4.439509632580143 -2.5960397766265744 0.9220952955572507 -2.317781108555144
Ni 1.9956698155970605 5.482682086112292 0.5354544251646279 -0.9823645247609534 -1.0327859146362988 -1.127797432417193
Ni 7.986823411785458 0.722971212667774 6.500555931838645 0.07778641215185958 1.2636419250540496 -0.35994055862295427
Ni 4.920116102640603 8.48212736956398 8.187901951162996 0.2501318279282273 0.20006550739945542 0.9707464809060509
Ni 1.0265361287346788 6.112905213734089 11.757439765251027 0.07855671465898084 0.9217065447592643 -0.10843961826134228
Ni 1.1248379253010041 1.7775644273657747 6.741852935732087 0.9564233794151594 -0.6426778312910287 1.0612361995571917
Ni 8.058110132458626 1.6966294653021934 1.632246291063899 -0.9837495780339381 -1.3342230777067214 0.8200165865169298
Ni 5.414170383439034 6.817070625611749 11.954772949208822 -0.22257808667967474 -1.283575687863499 0.430555135616723
Ni 4.864597365039767 5.057562192848033 2.738876606540995 1.8047498686203756 -0.6629779763009614 -1.0642094232529027
Ni 0.00715440071102457 3.64281758576842 0.860925443588433 1.5151022419857132 0.47713221204531375 -0.6607228617181976
Ni 0.9921792005834833 1.1755692974119296 0.6525289428363001 0.39204412402571837 1.600328912465702 -0.4507745479873914
Ni 2.249106144919908 0.5799805997413191 2.4531177496801306 0.7056911988987717 -1.2977779475058102 -0.2098758086216579
Ni 7.568052980236224 7.036287858803264 11.203418448130716 0.46380592725005276 0.46082473313454175 0.7603783060290066
Ni 3.569628783221142 5.33130577309737 11.457061525483358 -0.03173178388564212 0.24011198179838006 0.8120271405535499
Ni 0.4828393487822407 8.628082289797623 12.825942068513474 -0.7604886063546258 -1.3995218989145317 -1.0809025676378676
Ni 1.650703836283826 7.585043073884676 1.3927916418359598 -0.6019245606330667 0.6455623519276752 -0.9660405907899493
Ni 5.283900747065806 7.463649819590628 3.170822860309004 0.5298046027383649 0.7023500503406807 1.2519665455986504
Ni 6.48016322505984 8.30386462387444 5.388506061340534 0.3301463580796572 -1.4135873758686623 -2.4029180475348033
P 6.210995667869957 5.893375561297551 4.774410198922847 0.09182232141963541 1.071468161697845 -0.7983833245178701
Ni 6.394670617539455 8.164626717408789 0.864888573599562 -0.3703406709103557 -0.9077446832625334 0.9776858883383613
P 7.659159945365698 4.9439518532755855 12.167921898005831 -0.06355021394781958 0.49771954927836215 0.3556812691259681
Ni 8.832468797651874 2.4856442686075453 5.001976376997531 0.8195224204893305 -1.1292225948994938 0.12017953240608978
P 2.2107888433979808 3.270110615257416 12.901026520773936 -1.2456868832375256 0.14783046135413896 0.1230537686300913
P 5.072539939006485 2.4217820994043335 9.587700972888792 -0.8330651921707717 -0.27762180581838 0.4584732021832298
P 0.7180607172401198 2.2552075089991788 2.5831668548215783 0.25475492852253545 -0.016832755286622623 1.2444928629294243
Ni 3.2932847721970564 0.9706590278821996 10.45671807492332 1.3554488198547172 0.3814691767233495 0.5386016322047047
Ni 8.35919958544879 0.45512316734804675 10.223839850803111 0.5606038475074088 -1.6790121254002182 0.785518295629744
Ni 7.144008176726897 3.733667264460817 1.9037900722762209 -1.8362337981612697 1.094742301734437 1.3611792945805912
Ni 3.008698406385161 3.0929229593228067 1.81486728522151 -1.976992183159976 -1.266996186238263 -0.013753345030350509
Ni 0.7146617796302971 4.185958443240744 6.502371638980307 0.45180093236937674 0.5473135581564058 -0.6029296048588132
Ni 1.1776275889085512 8.222341578526109 10.557906073985578 0.869734008346715 0.21634624683735 -0.5017099013846779
Ni 2.269349074237127 3.7644956929035183 10.382211598266151 0.4077867315719558 -1.6245921558884409 1.4948388637509868
Ni 4.071282202714689 3.0482837624898282 3.9062935994180914 0.18911286504269367 -0.21255232701255652 1.4770244612773853
Ni 0.9515922651344779 6.630234728286726 7.520037817796733 0.5501140037196783 -0.8974862387593189 -1.4986829200874254
Ni 3.178360434035248 2.8090165648089025 8.266509389851155 -0.9815183747105741 -2.4800220889076576 0.5143203910598368
Ni 8.802586815745565 7.91582154395334 5.765339722526238 0.6292813553794647 -0.7780302147828149 0.25964593806624964
Ni 4.606061250981988 0.37255627416928694 1.9867153287066246 -0.3503171766005773 -0.6670328630966254 1.131386178209716
Ni 4.145233675771876 0.32722699835686037 4.380859351488019 -0.35706323707515925 -0.22878601526259953 -0.23258533440403167
Ni 8.236023703697848 2.845110176410372 7.596628314594231 -0.8966786552563589 -0.3113312822556832 -0.08355596764578513
Ni 0.5991208728996342 7.206069340870565 3.687307924019947 -1.3018014668429063 -0.39873567711328106 -1.4185228654970665
Ni 3.4505786732647663 1.3789542259218421 0.21325645777250393 -1.5253180061764504 -0.9078639824492171 0.46386377707118176
Ni 3.6943759499985243 7.523377028197948 10.25763626207353 0.3307371975861207 0.7441932116287119 0.2337004218450814
Ni 2.893094096925361 7.336412487654386 3.2449525961118804 1.0464261311275527 1.7370198122632536 1.6589143262090782
Ni 2.5832385274719067 5.115571095607728 2.7867943676864493 -1.4241294130505666 0.06255802523787936 1.1994764461197343
Ni 0.6728968398515289 3.786365040055122 8.864938346011078 0.4170175061416044 -0.28465994361208397 -0.2505360053451814
Ni 6.2372848284585025 6.232488274167269 9.08778423684552 -0.729327607370789 0.6984838825170551 0.36635134724530455
Ni 6.195659558459863 3.867070282085598 8.433610498572188 1.006957383608969 -0.768442828204696 -0.31457498600396144
Ni 8.6710123695843 6.961638036845438 9.308585619385328 0.2925192917555027 -0.3108142334099486 -0.29378633139338434
Ni 4.07876188699259 5.622048635796481 4.811420852896471 -0.3831439933226111 -0.6349012726694033 -0.017304295606402457
Ni 1.2684772676009477 1.3516818635916072 11.592423595550459 -0.19145925378768316 1.1671556224998414 -0.18337519122796805
P 5.0877749716020135 2.632058628907398 2.032063901001832 1.3220383627150716 0.0657338518626997 -0.679802504057468
Ni 0.34337264116361776 8.721422133648879 8.177035274716992 -0.1519108020710997 1.686260579432515 -0.7440870250681508
P 3.924996485633374 6.625383041187547 8.130274383658255 -0.5144934263025913 -0.3058278359389507 0.860394476113344
Ni 8.699304688861522 8.625867788678491 1.6732788833771284 1.1616084674293672 -1.0891622365434983 -0.8866107294973957
P 3.0172899356232907 7.111727917674971 12.692301979814529 -0.2689016523365627 0.2306346384355641 -0.4369255579194411
P 9.369085606184013 5.674397236940467 1.8582255631498947 0.126722218620614 1.0145063996008208 0.011447836825625446
P 6.768562943421281 2.6883859810247634 5.976996409988198 -0.4252360373966548 -1.7997552436192616 1.4268982340449556
Ni 6.120835149276877 1.5324807184466285 11.3343018964324 -0.5976521585099578 0.0004406870818444023 -0.4694325294082109
Ni 8.070175028597305 4.753789609871202 9.942142444127546 -0.3517091718520975 2.3004711565217866 0.2544955042135617
Ni 4.244674883702402 7.745497922607911 6.09847879565509 -0.8254264446785913 -0.7394132737415653 -0.846654243709116
Ni 7.233681688849796 8.014674668599119 7.517159885221992 -0.28575831888258524 -1.081891671024014 1.7438946850062158
Ni 0.2507991433428007 3.8752850704694355 11.674299490869638 0.8884272138808441 -1.3285262844322603 0.8241429499804775
Ni 5.46345911374206 0.8136242510118326 6.465024674878216 0.7135063240678164 0.69876978918859 0.031078980792991633
Ni 0.20627113100584465 4.26089311803962 3.54805990987284 0.8562768544005447 0.35706297996484315 -0.7242831029683462
Ni 1.9790564628029015 1.5425148894926581 4.429597672591726 -0.014910598563245288 1.3981520151501985 1.3193129933641086
Ni 7.254944575114001 6.285020651337739 2.7286687671499377 1.937957437855017 -0.14791582197909364 0.9033259853695474
Ni 7.833627716108343 2.6302300574438817 10.222104086232969 0.21412095705125705 -0.3690810874716418 -0.4557169795943313
Ni 5.806697598406344 1.2022903316627123 0.2895483185269654 0.48266162650397515 1.3841184198752678 0.2468194757255427
Ni 5.3403199871964135 5.5752776370562875 6.78289839236717 1.6030285707850522 -0.11010415044795875 0.9217692796763997
Ni 6.2394901407763115 5.771669887758481 0.7697063750828036 -1.2056031278427624 -1.254769305154768 -1.4694672177554176
Ni 4.077346811588662 2.7715170666048294 12.056767725027342 1.3298923115418515 0.7847315380623905 -1.9459813366007583
Ni 5.9118542407605235 4.376359595479557 11.080766328055253 -1.0309285497125857 -0.09161637605641641 -0.969709555001104
Ni 6.196376284963151 1.4840924906733746 3.7060154046358917 0.5650356580265171 0.3283815528697506 0.27444212253881767
Ni 6.66502353010016 3.2039053017165324 13.041484700055442 -1.255620854521786 2.787887009881296 0.8139284713413208
Ni 2.712515773302121 0.2187917916902039 8.422999270802999 -0.922225907597844 -0.7318943396567008 -0.8403910364082237
Ni 8.318732104417 5.672504343867681 5.297499254145493 0.7066196242503121 1.1119774346658011 0.15158478619024862
Ni 4.673984870370497 3.0169223835703227 6.470981774776697 -0.06697569468960078 1.092472531863654 -0.7737269594217707
Ni 4.130173230401507 4.586011286492576 9.192656945238785 0.9097375453228461 1.5806774567833617 0.8691668229893355
Ni 3.0898814660844955 4.845392770272182 7.110133660645222 -1.4807317349256433 0.5484253031633459 -0.9222493046366116
Ni 6.6656483685902055 0.9535311022138848 8.671209009932639 -0.3288939737297949 1.4076517271105178 -0.45857398942715216
Ni 4.033360019649702 6.96350336351425 1.2565777698861047 0.16065769502579427 -0.11955064057283928 -1.5495275135431186
Ni 4.037173372199247 4.476866704363691 0.36650636737743153 1.8688862940889686 0.5075540188702807 -0.6538731857862158
P 2.3998208642394876 3.7606731515526497 5.1833192088909446 0.2252810874331346 0.5300048916746292 -0.019122579762063843
Ni 6.017047638320002 8.57772765854099 10.251449442141944 0.08851048343758305 -0.6585250827359305 0.587918990382594
P 0.9990340463713389 1.3756554462464534 9.282440722977572 0.2502315867308852 0.8277676912172582 0.30336034823506464
Ni 1.8555222178003141 8.558385231753542 5.8981197394212375 -1.2513073147480966 -1.0402050899185054 -0.53361369207181
P 7.148547444581053 8.810103255228762 2.982177688003246 -1.5001888152089904 -0.07096039036896166 1.2687131689293698
P 6.980511834765351 9.007588973288538 12.501316419811495 1.149563106229059 -0.5693466266970453 -1.9050740568634354
P 3.353646008095747 0.6176684683725383 6.4094140492641385 0.3924549863108918 1.9652532974564927 0.42195273865969274
Ni 8.258012505266665 6.575965667665983 -0.04397852201776868 1.2171540659051554 0.41652385433463757 1.6670325844408385
