# total energy = -340892.51111413597 ev
CRYSTAL
PRIMVEC
9.06258327689098 0.00000000000000 0.00000000000000

0.00000000000000 9.06258327689098 0.00000000000000

0.00000000000000 0.00000000000000 13.26400668568727

PRIMCOORD
 96 1
Ni 6.392791385677963 2.0403590070426527 11.745861620036615 0.9234404967312355 0.06972780351344121 -1.0880484346540293
Ni 4.497279643280856 0.5590489972188288 6.057221154806306 -0.1179796965412936 -0.7248975966238934 -0.556119843594126
Ni 2.517322752165286 1.52283114025616 4.65988413312483 -0.05577956886346523 -0.06175892637535169 0.21732917957590958
Ni 3.3708458849677703 4.255653054406456 4.5607884126722755 -0.3639324533911668 0.2237577088100727 0.646553512196351
Ni 5.06614704295961 4.598336506702146 2.7662347515413783 0.41175008709507793 -0.2590977788722635 -0.4715207793958073
Ni 7.39989811317156 6.34765065958152 2.617598420928974 0.10267726185626831 -1.132338000600024 -0.21276290036146583
Ni 5.086383790876366 4.627907715144768 11.542643164322092 0.026793980264392562 -1.467162480881641 -0.5973670231693712
Ni 5.588305889676897 7.891742619637371 12.362955555335171 -0.06871735997105585 0.18532871540991308 0.8484169920364937
Ni 2.126181668382408 6.514329686757949 0.33746702950084645 -1.1341845668904598 -1.0184430156510653 -1.5172928218791288
Ni 2.845034817287451 1.524009276050687 0.43533567621048624 0.3636570882425931 -0.4521431462001439 -1.2371881017378952
Ni 0.45221020582132315 -0.2426896298643841 4.717317346849705 0.3127101648810808 0.7626149086690093 -0.46241058956442294
Ni 8.354405608731057 2.34365647346901 1.6712780628831363 0.9060603535815751 1.0075759910295745 -0.41957343979423867
Ni 6.715573405629185 0.5846063876353278 4.661343208993436 0.9207061285192077 0.8416213092708988 1.0684257753270954
Ni 0.7787459476655684 7.312407936553398 2.3205912933870865 -0.3607463423537013 -0.05595337543716815 0.3094448638662477
Ni 7.425028655927119 3.7035876836742605 4.096708035591944 0.3830110672891726 0.4526103156445495 -1.5421368775060023
Ni 7.699914924539312 4.094076261478632 12.756141157850704 0.6679805717218754 -0.6993953385877311 -0.46794077535403283
Ni 8.064837955602453 8.868462506215211 6.706347696099738 0.15642411656042093 -0.2839099528199368 0.667847902798753
Ni 6.933718841860364 0.7263868741818895 0.4110379848358275 -0.3229611531851277 -0.35461066176960865 -0.06262050304469861
Ni 1.805774045186309 6.473747439928021 9.366523944642909 1.2495759338792867 -0.20335703366653363 -1.484269829985889
Ni 0.184218750382022 4.868437731471953 1.2650559346720127 -0.21952952966133807 -0.07173352108956033 0.19153201600714756
Ni 6.572574907922744 1.6132032182793958 7.009854508194199 -1.277990737576554 0.5093846443211162 0.7745458557786402
Ni 3.4114553195468034 4.072815441678941 0.5362493508198259 -0.20077101810691228 1.3749375247069482 -0.9575646921084541
Ni 5.996711194141108 5.951470779631281 4.754960598001441 -0.6478650319189229 -1.8536100846561883 0.7221107779073758
Ni 5.440123594474537 2.7970484401180733 9.503886421959995 -0.9469560633546723 -0.5732554748331483 -0.29603938909361915
P 0.29938514933022475 5.73019875225309 12.323906697554735 -0.24029967232915395 -0.7795047424458124 1.6510716902362081
P 4.121218697667921 6.093988960436877 12.574729089434566 -0.6477675871091102 1.2190001179749586 1.095727548465842
P 2.4672972938130737 8.421532161269976 1.1587645232898103 -0.1866911429750785 0.5810086364160058 0.8881433640918381
P 6.2005196240112 7.895712031006622 5.870900791418508 0.5547214205847028 -0.4400103674923519 0.052106233776936066
P 4.768187437940763 0.965110717710236 12.659234051201057 0.01829545587507817 0.4188609871082464 0.037304392877413176
P 4.245947027976163 6.191928295294189 8.230448504239076 -0.8689914737537355 -0.04472716770404555 -0.40326313266998937
P 4.506088473990703 0.9476924331173099 3.837661349608011 -0.06325530841522009 0.6793610456446751 -0.3161911814511458
P 0.21062530482888367 5.506352951293009 3.689198114331572 0.7048627894602054 0.07769719487216296 -1.6267559963089793
Ni 1.4032412945286612 0.9065845564713615 2.2332868997211377 -0.42375713885828314 1.5345114997502605 1.8394458773406643
Ni 1.9184310148921697 6.4084424665791 4.825723965112235 0.04796675768726578 0.6458505725920555 -0.9164383543817894
Ni 6.2800256649756845 5.5153339710805165 9.10376431838961 -1.1364738771452685 0.8621086305909733 1.6527382793053538
Ni 8.66012278482771 2.3319657413540904 10.31994030520501 0.1250533155586233 1.0409615084685557 0.5682248543877763
Ni 2.3775686591853105 5.420475914455045 7.07464925811826 0.979356848282881 -0.7584592346294228 0.4342012170097425
Ni 0.6470593661031903 8.959378339220537 8.907390831641285 -0.6773514714138141 -0.1404269698012162 0.6388972812026739
Ni 1.2599618567481399 0.8518057733173855 11.258156901501112 -0.04173928872031522 0.8405388748399976 0.7215281659310284
Ni 4.236404128040497 6.970231988907658 1.3562980206665913 0.2518405830892179 0.19739310277361488 1.1471269859837405
Ni 5.752547082016959 7.926579188823222 8.034380426539027 -0.8342908370477566 0.5480044135758433 0.2646277075515572
Ni 5.216350294178735 2.831812508639647 5.163531747735191 -0.33871893024001665 -0.22969387178884956 -0.22239322436237827
Ni 0.8498509741567747 7.328639022768762 6.976867612205755 -0.42642877215317526 0.1776434309505134 -0.17366336325684284
Ni 5.130409819259526 4.343487609179943 7.43780508548961 0.1582046054996114 0.16508667733142535 -0.988832134763168
Ni 8.213192439882475 7.202342865595496 9.334796747696304 0.4358022429482753 -0.19283453686865498 -0.5922926939702574
Ni 4.676175032388224 0.337035650548389 10.435085860212235 0.3341976453308954 0.4255893069710155 -0.47519025782759455
Ni 8.090186000350847 6.861136614334482 4.865449797845373 0.9441759295063739 1.3115027532910704 0.48368903932722507
Ni 7.281277963828788 6.097550555569562 7.070311905877794 0.6048617888845196 -0.21625034468943402 -0.45300575131075527
Ni 2.326501003784094 5.3504130850128435 2.4144334344543554 0.6426161248151577 -0.18490088384387512 1.1194757999253753
Ni 2.542562045917263 5.204587061399537 11.356045485893429 -0.6594478516605159 -0.20169275859023328 0.8580820259300835
Ni 1.1442054836443702 3.4186691356425207 3.5768121158584525 -0.8145861595299777 -0.2665946014699409 0.33335946570031627
Ni 3.56406921785319 2.651992736062727 2.482809717193777 0.40697863384836364 -0.15741039173309018 1.2560258032696885
Ni 1.0219059255894598 3.540869005284048 8.243738782259642 -0.00953287919109971 0.08514902316451786 -0.05162929414051753
Ni 3.413965655047449 2.873364451854302 7.35897692573613 1.2843367343992396 -0.2684493952904925 0.9034326861507409
Ni 3.99664443127127 7.053480876665525 5.844970022580975 0.7642763555318322 0.14837013590769285 0.8575719190628844
Ni 0.8183729982436271 7.4440782054663135 11.239773451814978 0.22230092175888813 0.0398721536045894 0.9705863011791026
P 0.15876467341212006 5.629105638499661 8.19333632045318 -0.2078842321129258 -0.7233618767056574 -1.0229000229811545
P 8.594953750224311 1.765101172526032 8.11028952829699 -0.1431482253871212 -1.5365889511045794 -0.2119576308513511
P 1.875111867985725 3.0345878040437686 10.300097779650272 -0.4280408538353015 1.023754914782282 0.15880058721239745
P 4.061015958567604 6.322148550921533 3.7272519004947857 -1.373269392975906 -0.7782359030357178 -0.49656975194463504
P 6.9089054895110245 3.8812596240719284 10.663027948704055 1.1693143207140573 1.008259133139528 -1.1207065870086828
P 6.381617220796029 7.84335748881446 10.186346049913805 -0.9247558731085492 0.8100561328701081 0.30960890024793775
P 2.34591305664468 8.566587865325323 5.763807341437723 -0.4976580999128074 0.012875056190455246 -0.2869572242866929
P 6.965356319234925 4.040407644746421 1.6812523417712604 -0.2929062427812762 0.25431604121290396 0.6848554931003431
Ni 5.3728792283561635 2.9175445441490546 0.5303577655888888 0.4599238185868273 -0.2659227722138969 0.21636321611821446
Ni 1.5271177420316304 1.2326291063151193 7.244601690286867 -0.7554217333546797 0.27822370106843697 -2.2935631165480435
Ni 7.024661862614794 0.8647852047398562 9.429103799273259 -0.562708038334605 -0.8621739366112698 -0.6359893635272594
Ni 2.6755463893702274 1.346255772405706 9.268211231364562 1.1221137517688544 0.5961496058225023 0.09051362991054089
Ni 6.119808259503083 1.8711062062843342 2.758289584994751 0.8375257990452866 1.5689640250011754 -0.23390071078134553
Ni 4.144600161897759 7.007370454184355 10.399617628988855 0.5627710303620567 -0.7990811219158431 -0.4418849588072455
Ni 8.128511664005106 7.361644950181581 0.34378818116763415 -0.5553742236773532 -1.9718106389590364 -0.7054034924550239
Ni 7.503111871355138 3.6753668001038284 8.288783444975916 0.8424983125592136 0.0691863291876744 -0.21440789216405653
Ni 3.0627180617838534 8.599910983144358 12.311982150797515 0.48308817251843245 -0.8068281128511137 -0.3003349311451795
Ni 0.24352066872867723 4.837081194171473 10.318256477277142 -0.7726236990552628 -0.4621313677611073 0.16784495680285288
Ni 8.4631022296507 2.439121723157815 5.9358287613131795 1.212634323657931 0.2111572464372428 -0.21837279034907553
Ni 3.6254410301649984 2.6210802653309524 11.52043983588678 0.6002296894291469 -0.2290796352436184 -0.1630670757982353
Ni 1.3118451446224906 3.2443050380525635 12.433998050003437 -1.1209097041584244 0.4684552530966061 0.22439585661470385
Ni 3.044783209957943 8.454338711856028 7.816240427857668 0.8715808317474668 -0.9348603085324029 0.9760210990414286
Ni 5.649469262578904 7.933539252593965 3.528743269183458 -1.1939408610134858 0.1072995911196281 -0.45216525768733096
Ni 2.782394243350768 8.379934905140146 3.4027742712577482 1.3168223657317708 -0.6698600481327754 0.4488364504244141
Ni 3.5684192577099045 4.33374533241751 9.366643570738969 -0.39641937027527857 0.4645217223701548 -0.08985851282504526
Ni 7.042297649200556 6.163154594158632 11.322022736664104 1.131648430732167 -0.8129666216486838 1.1347165281345297
Ni 0.42567224392045655 9.059284254596404 0.31077953497990535 1.2306832107398418 0.7700011738307513 -0.7842962502971847
Ni 4.739676551713215 0.3445494381425592 1.6549762885201003 -0.9792771440848812 -0.13851406904921953 -0.6352437436104866
Ni 6.095638350549215 5.68207643633819 0.5397638205207296 -0.07776250089245963 0.25109059229707076 -0.6932447456053029
Ni 8.003864896944176 8.720851153744047 11.37819625134714 -0.6477585882480457 1.1386611146045744 0.6706478341413934
Ni 9.385029739200013 4.910080300516956 5.771978166301919 -0.4098590407199522 -1.1593057874381196 0.9860116345952374
Ni 8.153687519675838 9.075905031882266 2.513515561032358 -0.9223572909693857 -0.8876638533522584 0.12192711122481582
P 8.583136141946905 1.711613807454518 3.7862765038005755 0.12415548633470229 -0.451003633279062 0.6423680133600936
P 1.689827357838808 3.0611230471697253 1.4184265586618074 -0.7267050821462775 0.8104669951552816 0.5843173890742647
P 4.64449224209849 1.2352753805612873 8.081812173626671 0.7334187467210272 -0.54898554654219 1.536642172940018
P 8.630877829374342 1.775985334750852 12.643953629946047 -0.6000579397379731 -0.40073316715928403 -0.8368498560241846
P 6.386157574896474 7.945402173786546 1.4612427322098194 -0.026772125887521633 -0.8903357437574667 -0.2653105925511947
P 1.88827980113532 3.118389509366759 6.1225723473287035 -2.0820816540021627 1.6477205143757883 -2.7132885085391143
P 6.755666272975235 4.067241953112526 6.108830752673005 0.9331034737422963 0.1556360734414868 -0.09943201544609326
P 2.4536037308474588 8.418278693960474 10.108512055519242 0.2482909180647466 0.34920028938731473 0.33477202977712667
