# total energy = -381180.630789385 ev
CRYSTAL
PRIMVEC
9.11633153047082 0.00000000000000 0.00000000000000

0.00000000000000 9.11633153047082 0.00000000000000

0.00000000000000 0.00000000000000 13.34267268776613

PRIMCOORD
 96 1
Ni 6.522890211588109 4.24107242115056 9.722085358931409 -0.8760748629630783 -0.7924936985063126 -0.2848458343706449
Ni 2.4481817251466773 0.9626116824925357 1.9143931630871893 0.7872681884413152 0.3303250497493666 0.3146482624440581
Ni 3.344235070891372 6.8092524186725045 4.946982792934919 0.25152562295196035 1.8835454387630401 0.8439723260015788
Ni 3.9200863867865725 4.275532154462002 12.59771090354552 -0.5150886366844291 1.1339775930859761 -0.18556320001822235
Ni 4.030330184388495 1.4293496258997336 7.887320617155186 -0.09792586321421198 -0.7426461788565663 -0.07328801006087379
Ni 7.483523650131284 2.514448339284474 6.816264700911437 0.904604594971655 -1.8712753631464354 0.08730463605493996
Ni 4.07722459395306 1.6815529386142953 3.7211115108071557 -0.48102177690770703 1.494131296161001 -1.0452704202565546
Ni 6.297406866687261 0.4686715173318955 7.639160397489203 0.2392275223108977 0.9087440710613253 0.26539543895551715
Ni 0.5329425664903603 1.4271981716506594 11.00444963612734 -0.6697224941136466 -0.7553196605591765 0.7651880687128241
Ni 2.311254425057297 8.808536861282485 4.106860876234057 1.1688237542308837 1.5799642327664207 0.14535988832645932
Ni 5.592905879762678 3.8231068516100857 4.424843990980905 -0.6703506146159487 -0.3438097144993627 -0.5052387404735428
Ni 6.014107747008327 4.006126324086411 13.334280410012344 1.1997240433541663 0.22563949921381782 0.38110073764033725
Ni 4.988219607130945 7.862115783647389 6.469768435932261 1.012623580755811 -0.16562429500245024 0.04923739686957327
Ni 6.9935664102309 2.7512359353245257 11.422755244835148 0.97883491434114 -0.6759353077925778 0.3941915093860244
Ni 7.79631410241935 5.209263298560186 12.0026815609394 -0.37960358426952046 0.44543668071424575 0.21070781760465002
Ni 5.034585269464805 5.935670830232758 10.002748035522071 0.0342226686282959 0.24145049810414546 1.8703389673750952
Ni 8.897922492266265 4.228063416008912 7.72666168273873 0.2243845437607942 1.7468437403322108 1.4092722934330761
Ni 2.0325590528181183 5.334539926910937 6.457800515855208 -0.6884720068070079 0.3454079122244181 0.8375245134937062
Ni 7.851568188027987 1.986585392741504 9.163934312400627 0.0044212689961472245 -0.43348105101426637 0.16408471842947225
Ni 4.336784786239669 2.5694745166040147 0.8451559549904324 -0.6155205541499464 -0.6077313971228309 1.659637577528348
Ni 6.158893324905766 0.19805959629040393 10.20493003694566 -0.26675966629289544 2.02566033778964 0.2994085626761682
Ni 4.9917385111146 9.05940918958872 1.7735613381890016 0.8237631980435555 0.26605364136480636 0.48973524552130493
Ni 0.6845963885880224 8.642027065268335 2.4749326884877076 -0.21501467251012005 -0.32053094647708025 -1.1172276273211468
Ni 6.582675113983992 6.606970137601715 0.6053608811674591 1.4731346393046758 -0.16880783493675441 0.9336418627442695
P 7.82135666522531 0.8219457748288105 12.28092932129879 0.6987165673531515 -0.7338794884075296 -0.09968012690115736
Ni 7.961137377094183 2.8295543397897633 4.291590572511765 -0.7237732532114632 0.5388332885995365 -0.7749446338789556
P 4.2191749927341355 5.1458045145440625 5.783140928671808 1.5343616044359576 -1.2093160579179754 1.4311210138770516
Ni 6.830219981269415 1.8650829256581973 0.7549462076332781 -0.0040466592655478695 -0.8053898377426904 -0.8052743952107486
P 6.416247364953916 3.2595625833261144 2.2989027074214046 0.25262759776688753 0.7896248615989497 0.7609963992289797
P 0.12011678468559786 5.410287525875162 5.312678963820768 0.4956415837034109 0.9399235819879233 -0.9475664432451616
P 0.6508294964754348 5.329680922187392 13.084785559405407 0.44727270548172005 0.63814574774863 0.23649366831950241
Ni 4.28894227819246 5.992401761554743 7.9613197037254615 -2.322562074883555 -0.47303284516495947 -2.074046442402512
Ni 3.4675972696137087 0.9991043577427214 10.18751784365866 1.0694092222862874 0.2390640001498399 0.7645391222749156
Ni 2.143714483576429 8.111128380314595 0.5406267223655493 -0.6299076761095538 -0.6445346819941092 0.8817888826287201
Ni 8.21264784860989 3.947654173435726 0.964636419732872 -0.4831115695572002 1.1816103644725908 1.713518900927836
Ni 2.1335588902142733 5.326818394076335 8.791807481229622 -0.43122902175529604 0.7361544004846354 1.7416277433489102
Ni 4.8990801170993885 8.79134345995302 4.138803590400713 1.4740466095959839 -1.776076154834767 0.7079933646693872
Ni 7.011461769090784 0.9549813129735735 3.068441426988975 -1.3281244210081513 0.6483422286656576 0.9592526213338383
Ni 1.6813979609777092 0.9487001605260647 6.028620035224857 -0.665274485644622 0.22497795437041898 1.388419361243467
Ni 8.511991711841242 8.641489201706067 10.152199351913904 0.6907744296879393 0.08827291350548024 -0.04060568933650426
Ni 4.625845427466971 8.258758253659963 8.784295624020988 -1.6233459421861656 -0.42918653740397056 0.9866868062853912
Ni 7.307979569537335 5.26985043813369 3.0010872344956083 -0.06133495146405566 -0.43878600816694757 -0.4136933268643779
Ni 0.7339759101368999 7.879391231960929 5.435578052899659 -0.6595679221781479 -1.1538686755829481 1.6924391974394013
Ni 1.6691182623611718 2.3906850219733267 3.9908601152495486 0.18744499042196752 -0.22578990874875304 -1.6961135609671951
Ni 2.6815324641871485 6.457644626585466 12.400373320714976 0.5982347704863052 -1.0974252478832391 -0.03994620137563443
Ni 2.1006853985949454 4.441923438165822 11.191060031606677 -0.3019724667486025 0.0003113605928317218 0.14273967709479288
Ni 4.280792277774357 6.994286600424446 0.7462893391802239 0.35691694130528206 0.01642523543555881 -2.566583161928354
Ni 7.749966672748616 7.05746277816209 6.517935485383144 0.4347110667666255 0.3388508278321906 -1.2605473452891258
Ni 5.139249872149638 1.655471114010053 12.134747121405766 -1.5519888305994176 0.09339995031940043 -0.45672459492323925
Ni 5.469726007671618 1.8412072532924126 5.8821570523196645 0.21336530983215513 -2.107783686753957 -2.4344942796791877
Ni 1.8619104422739696 8.519038636140117 11.533726525695867 0.2302803404199389 0.6180780304644775 -1.1853050397153588
Ni 2.232790159287037 5.611275287863882 1.318141320418353 -0.06948020627900937 -0.5493007637897637 0.5354080649680714
Ni 8.71977114084505 4.024258707566956 10.102698583155224 1.336777211587143 1.0405709578983562 0.8125727286443749
Ni 9.082792580050057 0.7695943291901102 4.181953922591997 -0.2693251130272265 -0.28969416360188177 1.6385007955497328
Ni 3.4227904999772703 7.328919783139553 2.736809340624696 0.3701987460158528 0.2842333975976266 -0.4552708931958482
Ni 1.5252990156095025 2.8635126748651922 9.684552510249786 1.3999422742814018 -0.49274909264696426 -1.07063435294264
P 5.595558732247764 2.274096257602948 9.212915450260162 0.4021961248580557 -0.5247778389477349 0.10407697041727236
Ni 6.407769176599514 5.5581270748464995 7.862957221050735 1.9374200772943082 -0.014340584992388206 -0.7617384196013268
P 5.4666993855924115 5.83894655234006 12.293457895767022 -0.7257715145884146 0.7488047422587942 -1.0384688239536888
Ni 0.9116331563873548 6.294726665207482 10.963247463991259 -2.080651092203223 1.0884330716869577 -1.7637510576105107
P 3.721277428041618 0.4523104370742116 5.887213881438145 0.3309829950483396 -0.3945573773658753 -0.4872456463302319
P 3.2280747741044955 3.5703109773438726 2.7465091174086576 0.17541891249536887 -1.414540740920867 -2.5675552960336363
P 2.410421879809113 7.576273207462133 9.415924302956594 0.722953071303013 -0.9660454758859556 1.1692076199328636
Ni 8.867884179763301 7.663306824902435 12.648332981086554 -0.45406556003383736 0.5316100313782199 -0.06906960110415201
Ni 9.012706222986997 6.637555429998511 1.4895228840202372 0.023449489272191874 -1.1901320287903567 0.01394437799523405
Ni 9.117790176923767 1.9818449003282899 2.0850062199382395 -0.18682381189820083 -0.3076283794827992 0.20967346280286472
Ni 2.6816600928290426 4.70379006233809 4.3353681083146425 -0.8863878148533121 -0.3071378129996259 -0.9699648655450198
Ni 4.86152083105623 5.222053511744301 2.19490997837283 -0.030651149226953663 -0.9993137510207821 0.40927231497854677
Ni 6.025548743120988 8.715860234604147 12.847352527090635 0.22806250683301366 0.04834136741786513 -0.013231668198925598
Ni 0.07967582623509842 3.302436690671012 12.496360087384158 1.2964294038977155 -1.1027425463310945 -1.3594265735555426
Ni 0.8209338620252205 0.9044148450550796 13.373627408675178 -1.094298015108167 0.18332042673063267 -0.26038718710764835
Ni 2.688050641255318 2.402791510290151 12.010020207848319 -0.4171977404732105 -1.815771673652176 0.32951180981945183
Ni 2.6879503616081157 7.739874893707408 7.20923328930377 -0.00037538106154774063 0.7181744189674469 -0.5519173754770043
Ni 1.6282315152971987 0.3708204608579023 8.908889439137605 -0.7643468037584513 0.6833621963842683 -0.4075203652844465
Ni 4.333639651850132 7.861769363047961 11.249087305277042 -0.43743309368347894 0.4692324975822629 0.34221100255367515
Ni 6.8621362580745355 7.627889876776786 8.570198577243419 0.769874675555216 0.1944013671351426 0.988300430629414
Ni 7.923696603361354 7.556399604652889 3.985309180960306 0.2995330040691745 0.6496370362176812 -0.26960793437496794
Ni 6.806362541566758 7.269526883000916 11.030694643066576 0.1837156052865223 -1.4380210834309946 0.5400244806941602
Ni 2.8410500338918077 3.343186692761527 7.722885698204974 -0.885121803656695 1.2346817903762737 1.2867936805801645
Ni 1.3963667383016392 6.602813090408589 3.564988862976883 -1.3282177520529062 -0.6609966842048746 -0.047495988698434334
Ni 0.43674703582836666 4.359849105096269 2.9663166342778378 0.6371432746260446 0.09863394502483012 0.5272666668078597
Ni 4.101665478875806 3.60537238853853 10.0836983249098 -0.44968208625416106 -0.290588393281377 -0.3201684209313389
Ni 0.5533549444950296 7.308125430842358 8.108222093812032 -0.9613971784806667 -0.867520288524848 0.7044694106765287
Ni 0.5901657797167946 3.219879192028573 5.843636904929673 1.0010068224524888 0.20499482638027278 -0.6322538077442272
Ni 6.073145110215972 6.234969111806291 4.9098237138474135 -1.371412028052193 0.2964595073501733 0.19089669641599383
Ni 8.73979972129088 0.2502205105994192 7.358550595621612 -0.3695945367729505 0.194016215881582 -0.30445512396114016
Ni 3.2361700765332153 2.7770533863134155 5.676479849374488 0.8712722993681125 0.22489722173115465 -0.8669885843910939
Ni 7.393736900558693 4.535976630910306 5.901183747926625 0.16951720229895323 1.3766197975053773 -0.8285557343361923
P 6.095872124804709 7.180451207290308 2.890556272449423 -0.9121772651125902 0.33480339723569436 -1.2125960142208279
Ni 7.730530653854438 8.800332162874998 1.3389238214845154 0.3195773243145593 -0.7917336804118364 -0.7058017563347071
P 0.6869657231614732 2.200645974192819 7.782167379098531 -0.05158070029076923 -0.3119534892207143 -0.01737140139891202
Ni 5.42442695613073 3.686206900515397 7.090949798895666 -1.6401774119212074 0.48595495254326637 0.8607433748123305
P 3.70629017895061 0.3639093698993298 13.447413173086858 0.3455999736305661 0.7532764048769026 -1.0484992116064975
P 8.150693259301805 5.997543372556768 9.275519122375595 0.5038997099471451 -0.14335442786065636 0.4001739522217044
P 7.2916157543801825 0.3976817318108558 5.564374496867222 0.37999002107466173 -0.011088653713993805 -0.22108633262549665
Ni 1.8428846583001655 3.0220274480978255 0.8814143405194267 0.15663880367438832 1.2930584305429538 0.6666076026337487
