# total energy = -340890.1963656584 ev
CRYSTAL
PRIMVEC
9.08101284128383 0.00000000000000 0.00000000000000

0.00000000000000 9.08101284128383 0.00000000000000

0.00000000000000 0.00000000000000 13.29098021606333

PRIMCOORD
 96 1
Ni 6.163246988283306 1.9406124117368344 11.632424911901307 0.5381830566100474 0.6379110060300046 -0.06755110757709655
Ni 4.502493225610139 0.6193168925095065 5.999641647467522 0.7253958764165508 -1.0745007778765818 0.7875147572344824
Ni 2.497124112384791 1.2893312626617102 4.8263003436857 1.0561325597820392 1.1331630676044808 -0.9657870800182464
Ni 3.366240593854596 4.651567129920255 4.992158683749739 -0.512685169449259 -0.5851157166058439 -0.8616594588686968
Ni 5.240488964856882 4.7132544491197335 2.518015890178155 -0.6346071384677522 -0.4300493996248981 0.315375884638702
Ni 7.15281402206606 6.33374300152785 2.67350734615591 -0.8691190004705356 0.12509908119489424 -1.7257321551645763
Ni 5.092740888399427 4.578628435998542 11.416725433691186 -0.01783240019573058 -0.7734603360239454 -0.15647296752048537
Ni 5.439871679466587 7.675644246648824 12.318093131727597 -0.08158573129329175 0.5042419237779122 1.2823055629018238
Ni 2.078625642591193 6.32788574834315 0.5460966871944195 -0.4199701610120251 0.4807225004997333 -0.606198248307756
Ni 2.543909489760871 1.2379418118520764 0.30208624382365007 1.0648002627593662 -0.3011800527542942 0.8964701387899786
Ni 0.6692034357190353 8.946786240893552 4.634657376191219 -1.1478862327472683 0.15183649718973852 0.18207678413151868
Ni 8.753732992128398 2.4244033627676247 1.4180546175347548 0.12582258962448006 0.6639102583072438 -0.23043820615404184
Ni 6.99529477595475 0.8277079717071522 4.896131515065083 -0.8532555510757175 -0.8124446877069428 -0.08040996581763571
Ni 0.7916608918363549 7.501070858706713 2.4814257657485284 -0.5406603145059462 -1.0255762842617369 0.2699516908676319
Ni 7.472819828229815 3.9420312844422685 3.833119066852542 1.2840677970085692 0.19871387846756744 -0.17553924012331704
Ni 7.566163557664737 3.9701824237795833 12.67991427702249 1.6319167145743119 -1.5343412927209834 -0.5137120680518766
Ni 7.975281341350128 8.718852822388197 7.481147116866046 0.0405169862774399 0.7182165850592921 -1.3665328455830208
Ni 6.995140398739029 0.9321931956107686 0.540140450971405 -0.9248687445373296 0.4450361028417174 -0.1701754047082424
Ni 2.1634786251614737 6.5537396149426215 8.921836158529272 -0.957550293930751 0.8093148838287094 1.2642721024388806
Ni 8.887396417904508 5.0273303539972725 1.5110650738039741 0.31891603658147655 -0.9528485175797073 0.003740955099670977
Ni 6.658343800112469 1.9483585155609406 7.037826606987088 -0.2225374632497264 0.06924649300164848 0.34065702780299395
Ni 3.606796619998296 4.235556857603568 0.47444931327714635 -0.0285299891188928 0.817487906557805 -0.09197221673393838
Ni 5.987801823123008 5.623081110476371 4.778306283520654 -0.3513147646271562 0.6852198184182974 -0.020487064209758266
Ni 5.5593778064598345 2.9235139822055274 9.36390712106216 -0.35731109141990725 -0.11267782471240595 -0.2676382122431068
P 0.23899227575857585 5.586448305287104 12.450764002816749 0.8199880472718394 0.0025083682441505183 0.08813510237603531
P 4.008204623910338 6.000161081393359 12.635096755096216 -0.1764990329334251 1.0175996938141636 0.017026359354667453
P 2.471497494575145 8.414893165646712 1.4399053502681247 0.09559875774293214 -0.6152986679471274 -0.8974736403538286
P 6.291361915306157 8.020486622518241 5.750980817498481 0.7199209693449085 -1.3624183091940147 -0.17066957073584157
P 4.662191914766919 0.7543106866446208 12.726379094650632 -0.37979898810977814 -0.3304690315263986 -0.6621490526417628
P 4.1793726320939015 6.339945333194749 8.076915127269254 -1.65414313007268 0.3613078712841261 0.654955105996485
P 4.775759059461262 1.0626873479582573 3.8994540483464832 -0.16859906136005803 0.38699164920347545 -0.5440778248279275
P 0.40001770086928584 5.5200842645525565 3.6182169015565564 -1.594110699470132 -0.07281184175540363 -0.2758631712560604
Ni 1.3142041564181313 0.9915103704982979 2.479152788272357 0.5114883209276804 1.1205263526770766 0.7739660720157703
Ni 1.864958495020973 6.660287136828013 4.725620972200235 0.4303522755772975 -0.681088312748427 -0.3459355025931139
Ni 6.00396602571024 5.648635080184501 9.158283026430993 0.8467933403901416 -0.8630491401273718 0.09977680038002172
Ni 8.55861835348274 2.4688912439332715 10.331915830720146 0.8626087101558434 0.46711570834957616 -0.03987112516332489
Ni 2.3633698764817876 5.181344329210453 7.006061224599369 -0.2749103204244878 0.06946555099099004 -0.3581808956193703
Ni 0.738636858742619 0.23374254232280112 9.219793265883027 -0.8859214167398548 -0.507954596742809 0.31342955954560864
Ni 1.3668558679915996 1.1180996873893203 11.61969242400942 -0.47776470342299004 -0.6905669416628235 -1.6774509515606855
Ni 4.561737752396152 6.875761405923435 1.4686794470759366 -1.1729300630897737 -0.17244388902744495 -0.5466113898830586
Ni 5.892351298744132 7.6712217934690585 7.915947820639757 -0.9988224132066607 1.6927994089922973 0.4814907461243256
Ni 4.978992123451296 3.035555516768041 5.16378528307412 0.6398683868666916 -1.4731379817387855 -0.6965277872319489
Ni 0.6258988105068245 7.301679063084319 6.667314024447114 0.2113001997730103 0.6268002408288238 0.35966930723943863
Ni 4.825277821656868 4.778764874661471 6.912227120479216 1.273424201251794 -0.8624426168916244 -0.019692593332920925
Ni 8.46385798606826 7.199553994378693 9.228618194014638 -0.694018904767166 -0.19015287627143382 -0.16896698622243805
Ni 4.574442089148702 0.2929852529062768 10.531586413432105 -0.00944957544867405 -0.043925497738356606 -0.5371314754170814
Ni 8.177896896477279 7.1890926677604385 4.422786452930974 0.007096501835465197 0.34633453780374546 1.8659770908619733
Ni 7.347692554381795 6.130736962855052 6.9046771665292015 -0.2032989267350886 -0.004269573909631357 -0.3832751195838367
Ni 2.1900224252527547 4.838472533094647 2.4854931513321357 1.1871757743755103 2.3409747730627877 -1.0707654792038657
Ni 2.2471147520313672 5.630255110501041 11.339983611655128 -0.2588401543355026 -0.779783964249128 0.030269854628134966
Ni 1.2912201133011172 3.4257847940593615 3.864099849743892 -1.786977375128303 -2.113330070493483 1.3797025501957594
Ni 3.717793838101522 2.874104192162195 3.041813242612345 0.1572206443197873 -0.5706920849813462 0.10148864086480586
Ni 1.233256009304317 3.4123539762916555 8.229017549311305 -0.6422152898323134 -0.5749513744783324 -0.04413349998410464
Ni 3.623451197270759 2.6560236724248996 7.204854581485528 0.7007418253132964 0.008826340042378348 0.19099491255675494
Ni 4.130416892685042 7.030474619113703 5.64263253079677 0.08371948980684292 0.18825488791777256 1.821633788859908
Ni 0.5503765684749603 7.641962770583629 11.320738221462365 1.083590655992992 -0.6321211388211049 0.018151731208362287
P 0.2474793902181418 5.571927765996663 7.8944566960088896 0.4943604029981422 -0.039729200268821895 1.3940799019633539
P 8.746695207294069 1.6424373600785331 7.978176368195526 -0.9716705353822168 0.7904987795634708 0.5124684254527626
P 1.8937180622084815 3.350884601396725 10.415768993793316 0.02069378090392565 0.3428581492193708 0.19535781751114098
P 3.7981880434412796 6.068686403147996 3.4953943887291206 0.165973707922069 0.8464596111998067 0.13044543310847212
P 7.0615952496004715 4.114997333138345 10.49942237458732 -0.6931038491520644 -0.42523835138949995 -0.7226949325456199
P 6.357326391482369 7.748183376012202 10.250655296769814 0.758227835344907 0.6040210381507791 -0.5914113198065686
P 2.452509097041492 8.460616064538126 5.959528998215655 -0.1292429281599387 -0.6615427865163317 -0.17105729309256346
P 6.795267309444093 3.7664499040916293 1.470155111637973 0.9008338150753132 0.043406906230725247 -0.5711759665963002
Ni 4.924769396682552 2.4106274665177194 0.6632335779769866 0.9039461354520496 0.7261749206744205 0.9654849753967951
Ni 1.6943989146876028 0.9677271982646115 7.126982173369633 -1.146082089658994 1.2278938209201626 -0.16940870174554695
Ni 7.066408186325882 0.7824663664882803 9.54015868014928 -0.7186217909175108 -1.0413888258139612 -0.6038698572848954
Ni 2.838760890774831 1.6806230184376976 9.295006753483449 0.2745861043158497 -0.07589922243147575 0.9327625454631098
Ni 6.4799563868407875 2.0085837917174154 2.724278380001392 -0.8997950893981536 -0.2799224289270985 -0.021932538407033197
Ni 4.328927830076559 6.805238261377116 10.411887768969843 -1.3601084301139157 0.1191775735041367 -0.6812063263835301
Ni 8.191981547158626 6.985796036681578 0.4218221204379396 0.6723244505128679 0.9546403193728075 -0.09888539891400389
Ni 7.78847582931532 3.9457908236957038 8.17541505570925 -0.1129668167077345 -0.439208697526663 -0.3281313845321575
Ni 2.8662581971985053 8.298910471576974 12.344250080678307 0.9858257438366764 -0.9797790234219642 0.5882041257231805
Ni -0.01874230208976908 4.996881718449525 10.170975767128716 1.3234172453404691 -0.5956176445784322 -0.20322410763309517
Ni 8.74352593386545 2.421270413389762 5.811042635426546 0.7426135258464178 0.36337092446074193 0.3054036039173385
Ni 3.502292325968032 2.607367606434792 11.885897770494491 0.4916478891629855 0.32310770606532097 -1.28354174930177
Ni 1.1703972394678996 3.2653777859128033 12.565784109541402 -0.567452752108442 1.230017809241701 0.6077365393291533
Ni 3.370644885008982 8.650427391773142 8.117266607154853 0.741260354252633 -0.9727537411440668 0.15033702982607658
Ni 5.127185169530535 7.7567830950291174 3.6629408890521296 2.625563240006988 0.7080345023199677 0.10296651096191298
Ni 2.9363726961737977 8.497248869727391 3.5425911359800324 0.41676836624527575 -0.4066513324159319 -0.2856171653190307
Ni 3.5094118399165657 4.2473894171379305 9.078537205397263 -0.028149980071654746 0.6803128680349833 0.8835331190133364
Ni 7.367634458247841 6.166933879435225 11.368133842891176 -0.27465886653531413 -0.12113701122335266 0.4525848617232528
Ni 0.4447743800105407 8.990556722056732 0.4873334540809471 -0.08233803607828401 0.1284965369122174 -1.1526286325282602
Ni 4.712155646584309 0.2115458230059628 1.8110817548356972 -0.357906558912061 0.6490647086539789 -0.4035107299044212
Ni 6.26807819877039 5.613482480063616 0.26366629533709784 -1.3793387390984375 0.007428431253587208 0.59247781339787
Ni 7.634934066761991 8.639575581609243 11.918327883011077 -0.40998322500264234 0.28725007293676336 -0.4554655257051575
Ni 0.061655535655064285 4.9339412194989025 5.820811080776594 -0.007507621230954812 -0.721147642663158 -1.0978114275780642
Ni 8.091254954407175 0.0604541176762492 2.4849610039885333 -0.5787805184164355 -1.0043744533731414 0.5283753264910062
P 8.520114859679444 1.8166202644749965 3.6960084886595155 0.8855774031368748 -0.07302807153126778 -0.4127731290429536
P 2.2046700987208476 2.910255703678921 1.5081809441738028 -1.6953226896347837 0.1462687732939739 0.1413152859434405
P 5.055535979410724 1.0147759250086852 8.251731886351442 -0.19076994103014244 0.3357570193982153 0.6904299018643271
P 8.40573950485574 1.5314583040006864 12.341684694593535 0.7450079942205234 0.952679853212327 0.2153535439067775
P 6.421674447399856 8.032600693445977 1.0729289140694263 0.3091766978065256 -1.292345206526013 1.2005390830562936
P 1.9865169308820365 2.980297554552698 5.9134228805887465 -1.0291627160614145 1.7761103505068119 0.7387311600728761
P 6.724362762364818 3.94000621861252 5.9498404657772745 1.6166834425643253 0.42987276483771775 1.0238094221693013
P 2.405569342449692 8.565074953504942 10.295485532113853 0.4398489022138231 -0.469662643141146 -0.8980009736122084
