# total energy = -340872.4373368037 ev
CRYSTAL
PRIMVEC
9.23152988896352 0.00000000000000 0.00000000000000

0.00000000000000 9.23152988896352 0.00000000000000

0.00000000000000 0.00000000000000 13.51127712983865

PRIMCOORD
 96 1
Ni 3.655907332918805 7.915159754916995 6.9801821146865635 0.02699092676654706 0.47377872219204853 -0.6359525967520531
Ni -0.0804924772435987 7.968194893261182 2.334113826223133 1.2747889428098045 -1.714576395658073 0.24849634920733332
Ni 1.8651013421246785 5.751113785290171 5.927519087051542 0.1699082670897848 -0.5359251138138059 -0.12538010277042277
Ni 8.694503958449284 1.0110740630128456 6.0967884163255235 0.3255906203881747 -0.18678730223331055 1.1243932918316506
Ni 1.579957851580681 1.407337477011845 7.493880741634257 0.06336252341704572 0.2849211676932706 0.24755429700903817
Ni 2.4528636090065024 4.63213237117111 9.78870425413995 0.07228965070334646 0.4667758085116542 0.9651167934240992
Ni 4.7900930765161736 1.9304328780797377 5.043475488996955 -1.1286926905379528 -2.271133326789618 -2.4642072333625884
Ni 2.6069747664508656 1.8541619793852768 9.730984114453783 0.8440350609187142 0.4899411908845239 -0.2684427104222732
Ni 2.345445528976395 8.57704197406435 2.3164142142566733 0.6127180517041447 -0.3305747038663275 -1.1585583677491336
Ni 1.4494240210868932 4.372006326216798 3.3724689059173962 -0.1892339640015902 0.3602575756427408 0.7521795722682981
Ni 6.364622788610974 2.2045446905869546 8.680441569199553 -0.3180038091798523 -0.648303147897606 1.0367222735762274
Ni 3.835672911504769 8.673142198635803 4.38523326202525 -3.2298951245299663 1.3284740910380863 -0.4846755716102104
Ni 8.581150004797713 7.677567874052877 10.517623995937928 -0.6881732446196664 -0.49126505190227004 0.2275968800505048
Ni 7.789546329773503 1.8062411085158814 0.3795995796691311 -1.5391690531269298 1.3857132751662136 0.9628233694042321
Ni 1.466816223113081 5.631879347195563 11.899800015496174 -0.41490920154934996 0.16482751013276772 1.247277367653097
Ni 7.004940154290615 8.637083843479598 9.079037790763318 -0.4537063769222057 1.0721816428251019 -0.17300413240628917
Ni 4.0538047276814115 6.137056349042207 4.6651064722418845 0.0075377031379418565 -0.5273160319885563 0.37175966274506944
Ni 6.392151210289367 4.286125405065192 3.655070956324552 -0.7085163270523926 -0.044360014172613926 0.23833946327898947
Ni 4.603874658643424 4.545032888094102 1.6371610256015265 0.4326158748004937 -0.5994956394765999 0.10807246472991065
Ni 4.041166763470238 6.599500599732153 9.006171480236192 -0.10484110227680656 -0.4676363567397365 0.6897249053775025
Ni 5.7375249735159946 7.849228169528972 13.155336063804077 -0.7959562031336163 -1.419359245355433 -0.4844781108874237
Ni 2.3603359864436144 1.1941076031260234 0.2609827309139874 -0.12679369528849777 0.4299802369498595 -1.7124202685470185
Ni 9.201130310464778 8.89492970058865 8.016172999614954 -0.05183909615847846 -1.257408542549828 0.6497100555474616
Ni 0.622072170305672 4.635289554341468 0.934666537678264 1.1389027983017352 1.6173848395067245 0.6675676525541729
P 2.771739109212756 2.3721892706270675 11.83901316163108 0.9193354734239263 -1.0335014526460846 -0.37474111397089654
P 3.695492132434884 8.869644540636564 0.1964497222812558 0.17526413208505948 -2.4132507969193795 -0.26484805109247933
P 5.763040921711527 9.309074587689945 11.295602856221983 -0.8703032505866238 0.10336271795906715 -2.4229711095309368
P 8.136476448853209 4.638954471647411 11.415880457176973 -0.4687663565791217 -1.3168714738021512 -0.2796730319204538
P -0.12981192486828488 1.3935917292321245 12.257051907975818 1.6158272652116172 1.4180960623722934 -1.8288349345940376
P 4.047074942502488 3.9641665739264833 3.7520407909973135 -0.12306790969747838 -0.005032420217584882 0.5584078682973544
P 4.217147414863666 3.3116081998143976 9.204868156855651 1.1569619697962914 0.15744664428766433 0.16928297480096005
P 0.7369880987888948 4.446550928850273 7.329881692687638 0.25351437124721504 0.1561621211482859 0.9657551983390465
Ni 8.284577880438206 3.603952283553951 8.83576667280445 0.8324288441383535 0.32204121247401957 1.1977694907309564
Ni 8.399658130150764 5.537468492566145 2.6218495303175304 0.14668117824104418 1.4166457030790118 -1.2400322560549095
Ni 3.6528424650458247 4.340499115221374 12.860316682746483 -1.3476352373475693 -1.1952698642375543 -0.4431759097045271
Ni 0.9675474002986865 2.074020091622905 1.7416305550333513 -1.821444298556921 -0.8681820904785629 -0.2957804790052777
Ni 0.12980453964449457 5.521645650595398 9.859381768966221 -0.6175794935615041 -0.2311141491751439 -1.24280827613815
Ni 0.4344117874878628 2.351150614354412 4.4290368706315455 -0.10581529326461776 0.8746160190293647 0.2201890176222079
Ni 5.741328363768005 4.593636892164102 10.243736509603341 0.5753280410914607 0.5135901977620316 -0.029269695498394754
Ni 5.508813824259729 0.8178950717177248 13.257575255651226 0.46218844625128785 2.8441841418111276 -0.10479430819927113
Ni 3.276989963297304 -0.07912713399536453 11.11101195704202 -0.39229660635615665 0.04839124681919408 1.9920714460906015
Ni 2.6099473190264666 1.9702576973690025 3.21826451002268 1.5253493736350183 0.015416077444754097 1.6671961066018965
Ni 0.1432290301893366 0.1893368286182103 0.4566930076632381 1.1617051409082313 -1.108095840223208 1.4309495212961936
Ni 0.7964354576890219 0.32004698132999204 10.299984220296315 -0.5616939952477938 1.684428668430099 -0.5472629074241285
Ni 4.746797202045462 3.9879839206502434 5.954933037761186 0.11622209042023855 2.412536287350858 0.5713142919463773
Ni 1.5011944398569896 6.9410025793259775 8.069894040618665 0.6575709463527772 -0.860560569377563 -0.8256213342982167
Ni 3.0774135218938246 6.069509245950053 2.5125168310197843 -1.5611447860670726 0.3533973581877978 0.49221841695447494
Ni 5.641193960701095 5.406657716180219 12.817850722799207 0.8737806676122629 0.1630997288083836 -0.2967004197163858
Ni 7.326806670131947 2.5162011345381767 11.267310987034264 0.3970726875885613 0.148784340626976 0.07616481738803656
Ni 3.3644679390935655 6.64167022757484 0.13480525930351048 -0.5283570716585609 0.5088262007144849 -0.7658020481477391
Ni 6.0520524232157005 2.40260716111342 2.425327802104319 -0.16209648435484986 -1.0880785165610165 -1.3108694905824456
Ni 7.1665473138821465 2.0090301222681473 4.535776433225918 0.26917367505102674 0.6129458514442347 -0.02665256959052184
Ni 7.758242212432313 8.900496313020598 4.353698356440612 -0.886169528194919 -0.7175799799165578 -1.4694805874918564
Ni 1.5737727266562935 7.30616496963802 10.202648817045933 2.435744607146521 0.3353019341386677 0.5424999388178463
Ni 5.63583044192338 7.86938059894679 5.18435786432692 2.2054843213312405 -0.5643615147776281 2.2108810668667798
Ni 8.487643840082608 6.12951418924635 7.204929245073379 -0.019214368144921747 0.6153390342667596 0.8248122081333601
P 6.148180342376366 2.4906021025750036 6.558130422364764 1.3372142991245615 -0.6736501113028269 0.07583160241833392
P 7.7350803043199425 8.21354125910513 6.393252531787098 0.03748308454712254 -0.5132562114613806 0.7031838590958858
P 8.348903179651835 1.1631912100338244 2.727035426457016 -0.001988491184938511 -1.0920575558134225 -0.35335056411026244
P 5.652677983695032 9.20370590726165 3.3452838971452525 0.40474100276709646 0.8638459249970541 -0.22183478075574697
P 5.729918193011971 3.129331645139727 0.16664018960462984 -0.25117132493633515 -0.35714834058979783 -0.00634882503616326
P 2.447537016347739 3.545710562437592 1.6009918920884674 1.3407570221704974 1.0815682262463244 -1.1286101581264758
P 8.480387857708626 4.326476421549517 4.475259140029169 0.13334358059187357 -0.6315565245668865 0.4027874785851515
P 1.7175814969131697 7.214791288292369 4.252404473238622 0.9127261956375249 -1.0605353168354252 -1.8842314090864714
Ni 1.2399513798043935 3.3315575355779816 12.74495764083584 -0.6001430432526116 -0.901927562360124 1.5506932517164453
Ni 4.2429495404810735 1.0412334706665378 1.6751820039800072 0.29671044701871485 -0.16509207664806405 2.0768376319944037
Ni 0.9069285602748209 0.05450387472548612 4.035845709729316 0.43852966918176733 0.982867689649617 -0.016815786005758136
Ni 6.615923491135861 6.584914782746283 3.570151960571634 -0.32302851608795335 1.1237991098910773 -1.3571542325815982
Ni 4.257203022396378 1.89819637623502 7.4589947907547645 -1.6991618608752157 -0.06909711190797777 0.6658666107026661
Ni 5.9750337706124705 7.114389170863059 10.778134995682308 -0.579295510379641 0.046520769269358594 0.22919687754777301
Ni 7.603309448841277 4.2615510729029245 0.6713953105422533 -1.883693277194814 1.2000803982523203 -2.062586264281712
Ni 4.838641691407746 2.6438547277537428 11.253772025520673 -0.11465191771964124 -0.9789747823531141 0.3772901056449954
Ni 8.420789101720796 3.2748205538088992 2.4508511355236418 -0.4028772100854804 -0.48269299396254284 1.6027799451093558
Ni 8.7838467032526 6.479232230306899 4.766319117982181 0.6330220533688194 0.6947830366267002 0.03364211353447755
Ni 4.570908865949412 -0.07475508151149905 9.25014419445514 1.5663430424385603 0.5099508012372315 -0.5488719037824612
Ni 8.121798316569961 3.496580361172533 6.605825120755582 0.6109853852837542 -0.3071442407575291 -2.2899288622295657
Ni 5.848349488019384 0.17734784094761036 7.047428269909262 0.6220506419589803 0.0471000388115963 -0.3233061952293722
Ni 7.252963663758551 8.70275694603496 1.4048080378636627 -1.618609970163077 0.6182119849391804 0.5135043229164447
Ni 1.1417371349229641 8.280562165002221 12.214302540065589 -0.10096902091590998 -0.7972978047631752 1.4778906659324225
Ni 6.651391028388841 5.493711041608538 5.677776666746412 0.41694731502530125 0.9225030725186306 -0.34716371857326017
Ni 2.6459502850042442 3.165168443582222 5.5021569681657345 -1.2288790676515675 -0.7232063249643997 -1.223041635034184
Ni 4.877884924323523 7.5590996529265135 2.0344740645317243 -0.06163217098950031 0.46694113044492486 -0.05960614169840702
Ni 2.838603079104305 3.9343948905217823 7.654895237016615 -0.31101220835336757 0.4524455079319112 -0.6883208259411242
Ni 8.006487278613957 6.410900447187025 12.533330360512517 0.2688024077545371 0.5123586393477757 1.0735062751737963
Ni 7.644389756174895 9.12340083007173 12.258484641391139 -0.03816674087770846 -1.047174579257803 -0.0794691991709212
Ni 1.0043719724231364 8.058922367525183 6.082884809387285 -0.014741162864916548 0.9785538927656116 -0.08915531611043355
Ni 6.380427167522245 4.659365383897891 7.83046046957184 -0.8975628576335251 0.6886121319292979 1.0150481310369035
Ni 0.5874271623523384 3.1303009557622055 10.621646719330437 -0.6440109482801554 -0.992267385696962 -0.6605469982619656
P 4.88306381250648 6.0747342917817 6.9005472465556155 -0.7880032668351268 -0.11436755371000304 -0.6240869556627187
P 8.549845887456522 1.4620342907088528 8.865289104906228 -0.3803389197736482 0.5578707648469617 0.4248524288049909
P 7.211486400646203 6.481217009200546 9.091062781399897 0.2869358841304542 -1.0025836800213057 0.05574743007394915
P 2.5586754028622165 8.973231535825446 8.666201011425882 -1.1264486316987825 -0.6983409291812877 0.3039977247087474
P 0.9461394828365157 6.748479026642248 0.3959089232570642 0.22625296442810064 0.8030249370549396 0.40705268161940866
P 6.627315198832419 6.523829750470655 1.0965727988333032 0.7688824868452758 -1.2521583498944822 0.7382567915396189
P 3.535398943720367 6.054009507520133 11.21829156412606 0.8448380164359838 -0.04307137726817743 0.20742477597800407
P 2.4050165903750096 0.8346955326877139 5.608990692363434 0.386760764139592 0.46975545996526846 -1.1513698204204945
