# total energy = -340888.4163211459 ev
CRYSTAL
PRIMVEC
9.13001029119473 0.00000000000000 0.00000000000000
0.00000000000000 9.13001029119473 0.00000000000000
0.00000000000000 0.00000000000000 13.36269293674672
PRIMCOORD
 96 1
Ni 6.295945518987873 2.002028651025918 11.576568160374645 1.0016040897168559 0.5069732066661462 0.2802461308151044
Ni 4.6905519039274735 0.46995723540698203 5.937204590629446 -0.317261274586873 -0.8512832578406951 -0.13178112120076013
Ni 2.772482827303391 1.5507596336314542 4.9418444804739305 -0.4851206295674291 0.613666274550027 -0.5318673988046646
Ni 3.509986796532557 4.329989538521073 4.931502004845137 -0.32779611267992576 0.1674880876840664 0.2798141854840084
Ni 5.380598079796404 4.744008114032166 2.7249602108702686 -0.32980414424889004 -1.1743876214719065 -1.4736270055600622
Ni 7.581131414015525 6.2489990062025065 2.671843637147455 0.49016667663176877 0.267248690114172 0.06257550873937609
Ni 4.957851214471462 4.414433003466981 11.799631658181104 1.5786953933563264 1.4086187190094774 0.19734399470323433
Ni 5.827046451770666 7.996884691477067 12.445785309698488 -0.4256772386991314 1.0178879144785438 0.48329386077133546
Ni 1.9209724198885227 6.560743206719106 0.2838182381174161 -0.15828765213172094 0.7504371356558946 1.308843204181036
Ni 3.017103192347797 1.6356869891214356 0.6783716317423936 -1.0249178247421316 0.05037485290812614 0.07650317456406178
Ni 0.5705398194992715 8.931679052534122 4.561034491301659 -0.5126034083687301 0.01947070713010195 0.7592184813929505
Ni 8.655359291847788 1.9757159614406543 1.3401047327768811 0.8471787487540184 2.46039171627124 0.7614854230502563
Ni 6.808778195602822 0.6023460362613062 4.402125749629043 -0.11743436556078483 0.5415846260924285 0.8603073157161764
Ni 0.9564142253658339 7.322350403049278 2.5446708111578293 -0.6173576073586852 -0.1749885098261696 0.11676227919442471
Ni 7.6716372057777455 3.98165225686022 3.766194970605977 0.330827700417398 -0.6675296002273858 0.17359754301591393
Ni 7.5580872681053215 4.131019224804328 12.66878124542898 0.8088837098285617 -1.4767452394740697 -1.8427384320490072
Ni 7.850968867413331 8.82042987744861 7.134194586492057 0.074602100886607 1.7025048092055195 1.0387819843187336
Ni 6.843974385176448 0.8026703305004296 0.330102825158532 0.872169357261085 -0.6750549620701536 -0.6254313855057552
Ni 1.9630252471715643 6.461600425245691 9.298028931447844 0.7714489620208714 0.19007780005912425 -0.4219010594861508
Ni 8.958576062776379 4.8006050476682 1.07845872458931 1.6489559294447858 0.2604416944946676 1.2743917073713857
Ni 5.942303701362746 2.165948855333285 7.094988496409807 0.8827610167340023 -0.16569654300128236 0.0694678649838352
Ni 3.5646481679922988 4.453335977208415 0.5802778884484882 -0.5038819693353322 0.5933561022377652 0.07875931758809017
Ni 6.1319796646291795 5.705955125618912 4.626271153651968 1.0582352079473387 0.00536794918013269 2.428278637786779
Ni 5.287243724831336 2.7366292769906453 9.477009087688206 1.5074449825507716 -1.5472587721135997 -0.23702742933578533
P 0.27849452913158423 5.69383960199655 12.430604841629988 0.02816077870493214 -0.4440030335915128 0.14160247816655613
P 4.305530241019712 6.407167304042588 12.802181651420725 -0.8493068508406146 -1.2028793011536962 0.9957121497124529
P 2.4272132290917563 8.574905641387916 1.4525782422389997 -0.04750498755949883 0.011015377273897158 -0.44689269643448193
P 6.386697821027265 8.134537856250498 5.821523708561045 -1.0919775945051067 -1.3527093094363671 -0.7487759459033879
P 4.770412103720085 0.9339726601331556 12.917728322338222 0.8833012055081885 0.9094220709649564 -1.4601814215781175
P 3.806082159454035 6.241156327384414 8.060884237436396 0.8352544865126066 -0.02233080228671638 0.7907993415230252
P 4.507385637980366 1.1322673530902512 3.5267622773944463 0.9487154692479403 0.22623599514723616 0.5188794711854289
P 0.3518824646469592 5.4773944486315775 3.7227260787307515 -0.45437460663382395 0.35841126646262145 -1.0738346050474925
Ni 1.310311683278396 0.9261117212945322 2.6834424021887875 1.841852687009944 1.1289318031319524 -1.0276539927263721
Ni 1.7865238887182942 6.554571319779606 4.993303957333551 1.2311007578932347 0.3643605420675209 -0.6978056255031079
Ni 6.179537888102337 5.570894883760893 9.049242542719274 -0.4820599883642343 0.3245686068815636 0.9801672599993183
Ni 9.086323166411708 2.3579621012276943 10.304440006028758 -1.1979206715968402 1.159264649787539 0.70685950817526
Ni 2.2418466306706546 5.153918184923768 6.976782253501961 -0.03278362218892418 0.5180556897325529 0.5714526172964546
Ni 0.39857698914899753 0.183173569955321 9.609433495582564 0.6817665697623743 -1.1052383161697545 -0.9639597970015207
Ni 1.5335860843219882 1.2250191273777935 11.696070864740197 0.5419126988558087 -1.1095755100925278 -0.653743602186887
Ni 3.9356187451014066 6.970826747805754 1.7480408954490756 0.5104454814854629 -0.4555115484517445 -0.9486277946301404
Ni 5.419354973373588 7.848238994343936 7.865534885790962 0.05992495849040648 0.6069562095197031 0.9840503971038084
Ni 5.386030435904395 2.7894829064178115 4.895115261932884 0.11397828869138435 0.1303317903487433 -0.7859795515368787
Ni 0.6600057030922488 7.62701884561009 6.875987853171511 1.2982276334487188 -0.7851452285610414 1.1749530070570733
Ni 4.998315419968301 4.593536414845929 7.081559164310235 0.27471491658423014 0.2878188009560398 -0.2748848665031911
Ni 8.25557440234066 7.194840679680854 9.28681727884177 0.6282889095592084 0.07627768881681703 0.5618613740635937
Ni 4.750116090899807 0.48197415491847556 10.461064419132938 -1.2967693037356376 -0.9885665398066072 0.4058550617668817
Ni 8.284717395108238 7.188102732104891 5.225587852507171 -0.5957235740286773 0.5327976239284178 -3.477849228080584
Ni 7.456890234322162 6.36612790789902 7.0842579953447276 -1.3311243841767397 -1.7642706775594068 1.1099596329048238
Ni 2.506571278319763 5.280195356906345 2.789555946499936 -1.4165878532578828 -0.2552940888554571 -0.36192570737378316
Ni 2.5251599792203865 5.384277473933413 11.793151176894629 0.5672051548740102 -0.45879124764428086 -1.7287742844250098
Ni 1.0280756759399967 3.253533938184021 3.9265206898718032 0.013851046950479371 0.25654878719816465 -0.33267323826656897
Ni 3.5467716078923863 3.026826653280589 2.805790930754106 0.4387366429862508 -0.8471697498929538 0.1645457172262908
Ni 1.0827096573689419 3.451582120863947 8.420554600839855 -0.5534327836802663 0.11621694821391597 -1.199817888619553
Ni 3.488376062234042 2.792623629949155 7.1680294915350915 -0.5699528928224764 -0.42617757537431766 0.011170929015154953
Ni 4.314012020556392 6.924318475513132 5.953466964914412 -0.6698729036485818 0.3056293467748994 -0.601107721158726
Ni 1.0854943104999293 7.536147853437247 11.277244425823275 -0.537508399140526 -0.19928337781779226 1.062198563470461
P 0.25351756004816756 5.732213035142583 8.03383840802681 0.1793187617704073 -0.45339347366747723 0.548739749079971
P 8.554591368547108 1.6017963910157795 8.223507980286056 0.16784727079569803 -0.676223528456958 -0.4323016859941845
P 2.0322215949740334 3.5502775318343507 10.366229176502802 -0.14093604822715083 -0.6415318906120435 0.7527729828779228
P 4.16939265795036 6.196054076672684 3.864076897661722 -1.125533318973365 -0.07760437804804055 0.013348396282447978
P 6.827412546554773 4.002715190542803 10.539609897447313 0.22330416621242188 0.4606938639836324 -0.4956852924571527
P 6.311156116090251 7.8409441161417766 9.981958000438865 0.12821371556447597 -1.0168633298687713 1.1988804644069482
P 2.388118525134747 8.625933268761976 5.731446114280278 0.44176283140708433 -0.42416620137124367 0.7908677328671154
P 7.044907651100283 3.839561907097741 1.3328363316044909 -0.9322028163048978 -0.35224627530249014 1.8647018236939756
Ni 5.216659615468505 2.810171509679508 0.5029129204614473 0.4783534860469245 0.6155737759853851 -0.02887220294965995
Ni 1.1489113618043165 0.9131836267585386 6.910236347679575 -0.3487338912738575 1.9173976114257947 0.3429190843642933
Ni 6.9061314950641925 0.6708083312384265 9.489649586900834 0.7955486832825526 0.6152207635213404 -1.1402372008424426
Ni 2.5530795506123845 1.520037149087938 9.276822656604091 0.40709844725567956 1.2104635412588574 0.7479038277110798
Ni 6.518452999169161 2.026195788198782 2.450731222534741 -0.5680510478140732 0.2839752588402335 0.9690097007206022
Ni 4.471906418088507 6.803875380090231 10.705909382429878 -0.6091794424232669 0.20781481232757112 -1.3924549647654212
Ni 8.53995596209146 7.335369797687927 0.11533668068138962 0.7856352808235824 -0.10664653091666151 -0.012451852610107589
Ni 7.5617484022218 3.473539795552552 8.1644587258927 0.3448610385820125 1.4926631962559067 0.8136934725123792
Ni 3.3092909108756263 8.57212098825693 12.732267684811386 -0.7582229502489006 -1.0539422369989397 -0.5438482253156246
Ni 0.31190306269521995 4.908549159037588 10.461705345853579 -1.0768219698105908 0.24469523029368825 -0.8138593086662823
Ni 8.3628155029196 2.110447522929114 5.884716161612902 -0.07305815343825482 0.9420236590500616 -0.21756777794927695
Ni 3.5807169860596355 2.7021726182485266 11.611552533710112 -0.4493103047370391 -1.2908364831909704 0.3419909161230691
Ni 1.192178480452674 3.4257441918124907 12.562828389298504 -0.5318566001713873 0.33971009050869233 0.78894146237868
Ni 2.667213808941803 8.682119351936063 8.030470347239856 1.568517681492376 -1.5033708124813978 -0.04796572924600126
Ni 5.618124426864491 7.790610369547897 3.5284988053469504 0.34398634928654304 0.5182320674094172 0.11387775855777806
Ni 3.0588729893126074 8.432030110742602 3.6050804184532086 0.8005286529956471 -0.08808008076838378 0.3240567002421516
Ni 3.8982496130845825 4.295377669604441 9.513555605780104 -2.1492378401336856 2.915220122613031 -0.49429201165405195
Ni 6.95540616046727 6.151426586494763 11.591534986202932 0.7751549501175489 -0.11834813562430586 -1.8220407944903394
Ni 0.7017581530375544 0.2866914523479791 0.29644504231464724 0.538818119090885 -1.6699677558097628 0.3030600433858265
Ni 5.060171239517283 0.08277723807244841 1.6236070725391096 -0.9637456241081855 -0.002326077030015349 0.384521333286112
Ni 6.264036133109838 5.787595677413301 0.5662560186826837 -1.0133411756481259 -0.1566557729552528 -0.5504227932093487
Ni 8.106974355258856 8.761632611338582 11.536159647940426 -0.5107208466340366 0.8223076965439515 0.14140398900250487
Ni 0.040715280779141196 5.052054660391224 5.827938453773609 -0.7007233133705352 -1.749379619380187 0.6361932520079494
Ni 8.121235431293618 8.878305012521821 2.45200029396165 0.006660956959943368 -0.9405146786047028 -0.38196077164778736
P 8.633337707087323 1.5403879419698097 3.5494384838909485 -1.2781318911401083 1.296668259381399 1.8022438143690704
P 1.7703820305688331 3.398856311580498 1.5773325285092858 -0.055230124117898426 -0.29044492572497715 -0.46211491270087507
P 4.510106381039494 1.0799523942687512 8.215102892835608 -0.489731388866563 -0.8434660757891215 0.019990069968681703
P 8.548729901956635 1.7232894376192178 12.60739379540662 -0.1763995312410833 -0.00952927964667391 -2.64883275205789
P 6.803784079987575 7.744987708251033 1.1384237190122997 -1.563886353367952 1.1996021730643212 1.6580267813978025
P 1.5452177174002761 3.243262676635297 6.147453206027204 0.6201608811354352 -1.1099503769334433 -0.921706287648948
P 6.915480625576097 4.163056430826082 6.103343387431337 0.29232671612872235 -0.264543375367867 -0.5632695672650299
P 2.601267744793864 8.69879988069119 10.343058123449907 -0.20641227555308966 0.03892727319281683 0.03186496702939673
