# total energy = -340889.780886739 ev
CRYSTAL
PRIMVEC
9.11518012858760 0.00000000000000 0.00000000000000
0.00000000000000 9.11518012858760 0.00000000000000
0.00000000000000 0.00000000000000 13.34098749471611
PRIMCOORD
 96 1
Ni 6.931820991078714 2.124712014591613 11.281085410651414 -1.4578003229404506 -0.027202785667037023 0.6279549232585573
Ni 4.643491494153988 0.6568954787502173 5.96779681187009 -0.17747373814186854 -0.9922105643170976 -1.2353276514903888
Ni 2.787759328373954 1.9564184448803998 4.44511053805363 0.0534923154911853 -0.7076411235362909 1.3361382924515635
Ni 3.241257767428944 4.459802385297335 4.456676790049869 2.191822764683748 1.1994322231453602 -1.7537954890596956
Ni 3.8404988206914075 2.8780543021896543 2.599518098588212 0.824466137647851 -0.1694974048046113 -1.3337957603613158
Ni 5.010049345660607 4.9365718790819315 2.4979667888987978 0.6045720255582426 -0.36785081460896646 0.4418214525591617
Ni 5.208404779256758 4.800901538856524 11.467312185640743 0.48489205849639067 0.2688144919393951 -0.4742248085905317
Ni 5.663780945407047 7.708844516509704 12.542435825666576 -0.08185415446333 1.3375107473190577 -1.0974177916840713
Ni 1.3264227740473555 7.008844262706281 0.39262817803703454 2.376487364147101 -1.3223965173854386 -0.686610785228553
Ni 3.1350476892035712 1.8662875443060363 0.11385953734369854 -0.14469834348306046 0.0356174920932935 0.03723240198889717
Ni 8.226604975088286 8.99819585319501 6.9276681150368775 -0.1503444860252443 0.016085335597636814 -0.26624544566063824
Ni 8.90111007022398 2.3186374706716686 1.4105157793405239 -0.5344948091251828 0.2828840826585838 -0.6712900957110826
Ni 7.248819608521539 1.0037545145983364 4.772271669761255 -0.8626043392804692 -1.0325861399206668 -1.4441513646984483
Ni 0.9010847723138096 7.541599192507032 2.5108675032579097 -0.016232402698462368 0.691437260082919 1.0852220209488277
Ni 7.905431605171446 3.9149698418981784 3.5422993506337543 -1.1499729400729681 -0.1651931210023026 0.3881974965861185
Ni 7.840385680161468 3.9736169104960197 12.674458270826262 -0.6583219655861888 0.08203207480209097 0.22478820695711607
Ni 8.442352172266139 7.4077883490167755 9.134200720529144 0.023363100205972667 0.7823959479506783 0.5471261247359481
Ni 6.800917890032149 0.8680787052648845 0.13269970303920342 0.9013251528894348 -0.6995156662156792 -0.20705916510846917
Ni 1.784943677323267 6.6379567006643825 9.168727199614457 0.9618401795553564 0.5681510637270473 1.0056211812960487
Ni 9.172879164138285 4.77131366433545 1.3883832106021932 0.12550942925943545 0.20356812123607523 0.5368512251725012
Ni 6.588898801504671 1.8273383798486884 6.749912988408575 0.06220604121509932 0.9297895788777147 1.3707306857144523
Ni 3.4751350577745166 4.5016775225585235 0.12345873347991036 0.37595467466302346 -0.18543207375699677 -0.035839635406428594
Ni 6.416147908737141 5.968036541106044 4.812721192858828 -0.855293921661985 -0.00710884313063937 -0.3244752758368089
Ni 5.373389538601011 3.014143940698478 8.920198168817507 0.35660635204339874 0.18568275631522216 0.16975142979694638
P 0.28597054447001524 5.531073038705776 12.714935139464059 -0.6357919028044727 -0.5681886018332021 -1.664836091010152
P 3.9289434129520315 6.408883110217949 12.412561828450396 -0.2325010022203415 -1.226836840410558 1.2038951440127204
P 2.3327113087063385 8.900845730001826 1.1906740432733094 0.9720783123435968 -1.8554126850825656 -1.0322868635126932
P 6.56593766289759 8.120504279023804 5.589100275058568 0.6115651690466242 -0.26091349192476354 1.2588128790965225
P 4.909973783625218 1.1320233286034382 12.254243911812463 0.37918269468201793 0.08652482046612195 0.9530997143585651
P 4.321233417808311 6.361137796988933 8.002791755062711 -0.12716856212941327 0.22239502413459117 0.09549642783711294
P 4.768232733470348 1.1732057121789816 3.7172397096551237 1.171425453519789 0.7470913591121133 -0.8696090527330764
P 0.19970448024714132 5.6949275157208215 3.412944918681807 0.4351113875288377 0.23237630371701912 1.091774734465681
Ni 0.8558096728849195 0.0662509518157959 4.678977801701121 0.002186466128357525 0.059131001834201384 -0.21785856971681833
Ni 1.87103655312473 6.788384517430031 4.604468496738038 0.9722518618069835 -0.409110849700018 0.361907452541338
Ni 6.2934028938570465 6.085193950600613 9.084025300292328 -0.8400315961862759 -2.0911309086886245 0.8160280341828269
Ni 9.05972331869632 2.2262824661591836 10.26478293916284 0.6677106058899404 0.5508418830246384 -0.9081578595405522
Ni 2.492062886764695 5.645532354898362 6.805144599032587 0.7389556173788564 -0.4986502886227477 0.45045624541602425
Ni 1.0682444136237839 0.0394696412395886 8.70347382433569 -0.9327435192997163 0.8670122385401778 0.6910690781102227
Ni 1.7673240342397067 1.1614744754233988 11.518474779879604 -0.5047769703457758 0.49237988223300366 -0.0027407959699307636
Ni 3.9731520363122326 7.008926299326949 1.424497554056444 0.6361287173186012 1.0449906842326069 -0.5983566407761501
Ni 5.966888028416687 8.232949140419976 8.085278665626793 -0.866436568542366 0.33346693781245795 -1.0342743262563672
Ni 5.352461085150492 3.2651395392235267 4.697294756060363 -0.0014727278907845605 -1.0585185435157125 -0.5817524565605658
Ni 1.0044928441843524 7.501045756356613 7.053100285002867 -0.26967632571905814 0.03598104608029932 -1.4276973329074831
Ni 5.410196635740906 4.7485530596900025 6.983032807289976 -0.22377159276714365 0.5868926060006087 0.04095895891086494
Ni 0.4806881096985245 7.258089746657069 11.38355735352833 0.8928569675174235 0.7224689325777428 -0.30115948392900393
Ni 4.756893449457959 0.2111385621323033 10.301897217871238 -0.11207541524171666 -0.38493348112286613 -0.25362287180062126
Ni 8.552263013601664 7.2760739969436 4.873035427892254 -0.5864850861495448 -0.12182992352531921 -0.41285746122664385
Ni 7.494956816067003 6.454550162390033 7.126435554772384 0.5747778250149457 -0.5184066453140684 -1.5077761406379453
Ni 2.498233863674974 5.398155482862798 2.1656829259894335 -1.3486598219573416 -0.6288874623751556 1.063350417686717
Ni 2.141666249529752 5.386205481785432 11.523304913800958 0.7834462435920636 -0.12604961803362164 -0.194284124830988
Ni 1.1413208122791916 3.602063940308701 3.6033072508708313 0.16609712087381073 0.033086755251639795 -0.7046804982460703
Ni 1.738164573182123 1.3223209430139347 2.3157953575245114 -0.38525795434182036 0.5530514890814474 1.7388599507957858
Ni 1.2967255173653898 3.4591470319242505 8.271999483376147 -0.7155696343547482 0.26565306349227796 -0.7134749566092486
Ni 4.09481234476349 2.806746248468655 6.801488500304799 -1.202439642513116 0.7812489788304287 0.16256931022621032
Ni 4.426222061903732 7.369176446222176 5.8144694563228185 -0.02748432146319783 -1.2546042403318134 -0.21217386062721522
Ni 0.19864165025048164 -0.22489883797241852 0.21080130046955536 0.09643899425604036 2.7962014432842617 -0.5152539586176996
P 0.24387481985103 5.659104858028947 8.177131423717187 -0.9025963062923744 -1.0516490700893888 -1.538221601611996
P 8.955491234547065 1.777569496643184 7.7804506366191335 -0.5034001446029073 -0.15800611633556014 0.5862927676330806
P 2.078379554274108 3.3449794014940415 10.499917212840655 -0.7836532173965473 -0.16140640026636072 -0.21258523713302097
P 3.962387008644521 6.3295810435718165 3.744175066774586 0.34238095247263617 1.9560091531504056 -0.332897181351917
P 6.986958715347962 4.016640560446565 10.26516942279799 0.17948768324810377 0.9382220259157842 -0.30591731032896347
P 6.518903333714366 7.861104484470281 10.244624718428597 -1.153520033994278 0.013942064002388893 -0.5817159468956756
P 2.6050820045055456 8.635931251503372 5.775660665638615 0.006025380258473494 -0.3422819650009266 0.20967346280286472
P 6.925148679264351 4.231403318176398 1.5155764333585313 0.22646533754922285 -1.7312507709899603 0.12179572785327411
Ni 5.485497138334436 2.936801637768313 -0.021498152205161474 0.02174021989056901 0.9972411847624696 0.6672272384956186
Ni 2.100101028391089 1.3782334575894957 6.71725420972048 -0.6628280809866585 0.1494811095836845 1.030325626021264
Ni 7.182989778025173 0.80554674691939 9.324323323482215 0.16416545106873665 0.3770335095494991 -1.338652574232985
Ni 2.9355255125579154 1.6959977501585584 9.155599517271497 -0.32055742883964145 -0.2124209436410148 -0.38902127803899456
Ni 6.626407767510286 1.9747673023699017 2.294702830832655 -1.033706112457723 0.5670208067773461 0.9383199849462291
Ni 3.9659601592336347 6.778284897907741 10.259725837257637 0.38625657080966386 0.9651720721420668 -0.10683499277838375
Ni 7.855152271881783 7.043955936352361 0.16625906151863656 1.1036843414190733 0.10847124283022608 0.10799841695886563
Ni 7.473700216133809 3.6692883933564286 7.995134092282319 1.8231468830703246 0.9753204734299783 0.13329010164611882
Ni 3.2495434661164535 8.55020298290488 12.562674259985474 0.2733959406624904 -0.2403276973536119 -0.37859031251365766
Ni 0.12118996515942503 4.884560661578158 10.311756196639566 -0.41830640015635706 -0.714783133897711 -0.5494486022215376
Ni 0.15010422787301106 2.3195581038591695 5.507492979371652 -0.27570659107353807 0.8581421897440575 0.9173477535699363
Ni 4.160997667282751 2.8119145555707648 10.897906028279367 -0.3844850807315378 -0.8005049988465633 1.5380909895714026
Ni 1.1535807294790825 3.3398840158325256 12.762081585362195 1.1078418152308727 1.161286051092942 -0.5898735430058034
Ni 3.375615521723657 8.46475728488869 8.083584153650987 0.0020846504431706035 -0.5601726735072611 -0.24219534668996998
Ni 5.749828245308139 8.107888869801016 3.548395583067425 -0.41838610435435686 0.27808666126994047 -0.27838156680253995
Ni 3.333448698700092 8.655975532486687 3.3133141774340413 -0.9588170764583165 -0.4831799609012904 0.5385885195785821
Ni 3.2881462537309796 4.611469866553084 9.074406050759952 1.0312141992738046 -0.14185341783509764 0.19848427895526463
Ni 7.407633390955513 6.154232324483119 11.382170023121025 -0.49375336554176263 -0.5616551715900585 -0.3723602724435458
Ni 8.085529333078837 8.915156562718428 2.2810956900177874 -0.5554714113768499 0.27876517539420376 0.4810528872559587
Ni 4.655906369415141 0.43646854812223473 1.295549659135809 0.27372709874966406 -0.5517276280637013 0.5792044933277316
Ni 5.8610152118540615 5.644064810906404 0.37136793203181145 -0.31680901754080276 0.06759790165463198 -0.5312441633983689
Ni 7.857011768616934 8.854741149186179 11.388600782663422 1.379226124779973 0.9942602477572748 1.5534240203840473
Ni 0.18343388381457262 4.926736599781798 5.80363606480455 -0.4402875324131385 0.04528972507573491 0.22788150117045916
Ni 7.296008895766025 6.291206135459147 2.5499698027405056 0.3036619386358834 -0.1676346405642597 -0.05471770325785415
P 8.884210526366289 1.546362954059372 3.471658528094191 -0.344102048928801 0.7387098199166375 -0.61138879136976
P 2.030041754340264 3.2835248574333256 1.4705237443234533 -0.18499755732273948 1.1335446193136156 -0.47185013771076806
P 4.808585635659133 1.093976566973443 8.098499322806513 0.7606914663940513 0.3817409423274974 0.6002201763474502
P 8.82435113881857 1.8668071095702696 12.496035913016524 -1.5302552955770679 -2.475195614053292 -0.08077531957685444
P 6.315534551077369 7.916688852563167 1.3416761163836357 -0.8093575641411868 0.775770986434993 0.33127738636030685
P 2.1171737606701932 3.7142171159424966 5.848715187861845 -2.2179179191089027 -2.6678776845044827 2.7203289603256633
P 7.021368520128325 4.1007280966316895 5.66376909567295 1.7405481371314862 -0.45276021095885255 1.2039910461606362
P 2.365571532874075 8.5599015345039 10.38821341558452 0.24185364707983503 -0.6005071114602497 -0.7347716612044959
