# total energy = -381171.7308322695 ev
CRYSTAL
PRIMVEC
9.17587725163975 0.00000000000000 0.00000000000000
0.00000000000000 9.17587725163975 0.00000000000000
0.00000000000000 0.00000000000000 13.42982386965734
PRIMCOORD
 96 1
Ni 5.777242414058477 5.750898470533318 2.761507779772528 -0.8486669032637706 -0.1308328983548779 -0.17009955716498446
Ni 3.458122027262238 2.6137302769955606 10.118216880993767 0.5115091468632867 -0.48802443347778535 2.4123773931754906
Ni 5.0359141168306625 8.768945425881036 4.9069893714088995 0.15147885674000364 1.9122212094311777 2.6168775393075316
Ni 7.432919349548721 6.722862441918168 13.45466861137168 -0.1900160935832534 -1.0630809660754141 0.9055214503589696
Ni 9.019474401871074 8.946691343688713 6.734022143804374 -2.21074222729607 -0.517411885500967 -0.04903325127856717
Ni 1.2333480101370813 0.45921319905155283 13.374170475614974 -0.23252079971468345 -0.4623892494081843 -0.7945634365511477
Ni 0.9433168826751518 5.0037159636332476 7.21387005556905 -0.8167397155378708 -2.3178001347185373 -0.26867976613374367
Ni 8.141416358050302 5.511252084937166 3.3553879882159046 -0.2874920137442403 -0.49618537202202284 0.06057724736242471
Ni 9.572275125546849 7.789081024201808 1.3943644685804009 -1.0508867380020674 -0.8765451177312774 -0.9476438334503163
Ni 5.622472892832826 2.2592477878754247 5.262436245225828 -1.1456439736803108 -0.8044518993094533 -0.05151230894667903
Ni 3.2157871096379167 1.360654130815606 6.00052545779172 -0.010216021301053372 0.2851857342085669 1.9998400342924267
Ni 2.7064800440287544 7.85903791219756 4.998405883480684 -0.19876890007521897 2.1321664864736958 0.14384293746130067
Ni 7.732511741083522 2.2091566740809845 6.457542869422315 0.18791036009416023 -0.1663768568977586 0.2831190814875253
Ni 7.502233926138426 0.4694755001447388 4.73418741625234 0.17250405284141906 1.152998357162853 -0.027125138351566186
Ni 2.462686161924983 1.6886642141293744 1.655494335533382 -2.05318374002089 0.7641804533839162 -0.046032773889346526
Ni 5.507288105974132 3.7853429851342915 0.5835059616479941 2.3162952680382367 0.17855437280055703 -1.1787474411024992
Ni 7.670464459259376 4.682551084732494 6.696110171856309 0.09650301472475638 -0.6535708240544486 -1.0860252335764136
Ni 3.6541187648788798 3.839921102893832 5.782586444956789 1.9597300536454183 0.12964016359835737 -0.4762012155906122
Ni 6.309470820986289 1.5784986321150767 -0.1760208528885786 0.43233973832097156 -0.18854336569246882 -0.5951026526152267
Ni 5.475723088305534 4.482572016398361 7.262606809884454 -0.7112800058404589 -0.3609124356179203 0.30771502565933456
Ni 8.671194805757906 3.542191414436567 8.44568018868251 0.004928290539552804 0.3145667584738453 0.30813925768094674
Ni 1.6294339266146074 7.937179682681799 11.452779404908018 1.9861851625131537 -0.9525929499254757 0.1500410958522126
Ni 6.618248265627563 0.1700776372071976 10.778494654655672 1.4486376826045761 0.0073279011199809275 0.46901703913734705
Ni 2.6236585761576023 5.003449863193599 11.046392648652944 -0.31883144728747026 0.027980287263009877 0.24481247259784286
P 1.864345559560471 -0.019120692970297663 7.070721782854236 1.870806908150449 0.7816413291728409 -0.7767192092808753
Ni 6.06929223451084 4.6543811416387175 4.835112889896789 -0.02260950986939977 0.10043911655436895 0.38615706911732206
P 5.766378175419052 1.0171276391071866 3.2509710932857274 -0.31394172329533676 -0.5026216145656698 0.18324946428338118
Ni 7.251860940061287 5.585980429092125 9.003004619832303 -1.7508528614916041 -1.1500989241278707 1.4465129229520894
P 0.9517586897260557 2.828253110738045 0.5134086827306339 -0.6029028653859358 -0.1952665433489153 -0.05574357341920723
P 5.5065540357957925 2.1662043927708954 7.346771626181968 0.21583793974236376 0.2630433937835728 0.9101679479920454
P 3.682701622447973 4.738790036270528 3.4599250871377842 -0.37497148481414777 0.6884876905362917 1.1817679730963777
Ni 8.48604395502623 1.9878528670660889 12.434673510630354 0.46657294847222874 0.10228388307259159 0.12992401338736334
Ni 8.221430007489305 7.338499572859805 5.140882481982317 0.4713906815758462 -0.8292352769017204 0.48450022237461077
Ni 3.1821208160838217 2.9710205845478455 7.999783022666036 1.2994167686608136 -0.5289520249300826 -2.3344703962853663
Ni 0.953612216926363 6.843185720025239 3.6058940245128674 -0.0008695470891468896 0.6279572372514024 1.139738149718837
Ni 0.5699798010243661 6.202819599950792 9.630325395249935 -0.2513752134170251 0.5696628723858834 -0.06835072066025648
Ni 2.093219465289492 0.9729824937572962 11.124688573874632 -0.6269141406988687 -0.42048103921017266 -0.16005837087889851
Ni 5.649376564868969 8.245590092233902 12.605796280253964 0.23840271241675717 -0.5908377066912857 1.0959975142977771
Ni 4.579230707131212 1.3925127765555394 1.27301808016227 1.3418330288434954 -0.02965356120037474 1.1244184886426312
Ni 1.6023742646655683 7.06564568757102 7.39836941901745 0.2813571044910961 2.046304753512869 0.453251034552342
Ni 5.13832608258625 0.9609070393236115 9.088163183633744 0.3277603743459839 0.2828902533061709 -0.5471667481658964
Ni 5.679574376830408 5.285727374396817 11.750894480208911 1.2441642759454121 -0.8191730075697118 0.25743710334038883
Ni 1.8637215999088825 3.3562239106314884 4.616770138463771 -1.1988485827277482 -0.3930386267285037 0.7511490741212546
Ni 9.299384536749146 5.034941473844363 0.8557927777240123 -0.1721754658574067 0.6611000425519582 0.602951202125368
Ni 2.9606518432788 0.07194438300360681 9.036485560666367 -1.963684924528108 1.2051686114085052 0.8069944632256488
Ni 2.163671850655624 5.7284083954444425 5.476400268045052 -0.17690475301227598 -0.6627203517642005 -2.326171646611684
Ni 6.415314564825613 3.3845223160064757 9.233836657762046 0.44474402552259534 -1.2626222255402837 0.2275539426277113
Ni 7.764691542526479 6.317536417070794 11.127481710903213 -0.2283926364789228 1.2665637266865348 -0.36756722193027663
Ni 3.2564362457634655 1.3960638410432566 3.8656539329955226 0.9762033902555638 0.28691968618053815 -1.5716264023246869
Ni 0.8304508399922876 0.7829867798485796 5.055012787695611 0.9385974069773318 0.8474993653182308 -1.7201083812198954
Ni 8.413719690705332 6.596400501944734 7.5632204765548705 1.3864506675528703 2.2706250196946316 -1.7529151433372716
Ni 0.4377820201949317 2.318331261354524 3.158452558358711 0.5596180865553716 0.4240031934308182 0.38567935814995513
Ni 7.503977342811982 8.113971309257634 9.012392459825543 -0.39225315471273087 -1.1974398753056799 1.6054829458628157
Ni 3.5403562389907184 8.785333542612467 0.1524590353393271 -0.7370738269751113 -0.7775723013097898 0.20393553187782298
Ni 3.0569618506769403 6.7624380004078954 9.473827138754295 -0.5062885218942957 0.5687922968554721 0.5332542518498623
Ni 6.698895050595384 8.87965238465186 7.047608665701495 -1.6863554531391667 -0.0948557089293205 -1.2482379317941534
P 7.297419170504481 4.904744951838626 1.3589235603701706 -2.825731848643211 3.055406694268667 0.3076713169055927
Ni 4.547491347795258 4.626192846790481 9.59092234325212 -0.6014589338505576 1.1493864714418787 -0.4509470690095137
P 8.51926063059609 3.530923437199056 10.590920454747753 -1.6722316121432745 0.16509901862659956 -0.09731805442688402
Ni 1.363480301002213 4.7722085811394335 2.844517353126879 0.5732652450251611 -1.2726153321972533 -0.27000748380623174
P 3.990001750855339 4.281436787533343 12.421230850489515 -0.10176297757211507 -1.1539365527064063 1.136792951047584
P 8.889057658811835 -0.8918301179541434 10.955150478248514 -2.3994799683875323 0.31255667002235205 -0.5249081938780121
P 1.8912951109827592 7.076620036737195 0.10624105932335035 0.951864042179251 0.5010121039867049 -0.5821517488815134
Ni 5.132425993527846 6.821126911166138 8.376798713498024 1.9318657231349827 0.2811488451350319 0.33728502600696747
Ni 3.7952254049101866 6.59801545633708 12.101130373347354 -0.8861515304727899 1.6531334578612433 0.4000363982025755
Ni 3.034150619885041 2.127684060162531 12.81434837068338 1.4224070310428214 1.208597434584396 0.1297250100026798
Ni 6.618220737995875 7.938537712511726 3.479828482435736 1.2591733477597347 -1.9476078164605874 0.04036760518376919
Ni 0.9506575844585465 1.9958634078872186 7.268153627669531 0.29009397014346167 0.21575746421341555 0.21475679086304303
Ni 7.497967143226828 2.896393175042408 4.0534832222904145 0.9631920655975605 0.28220222610021073 -0.7114196167421167
Ni 2.838254816917921 6.6011352545950235 2.257942978133426 -0.3336957659938124 -0.4092712865372823 -0.3571473121485333
Ni 1.8797793850600584 4.289282162564346 9.152640237748193 -0.8049823178916267 -0.6440284317816521 -0.25099314748725804
Ni 4.57428490930465 6.485886236595726 5.244412987172149 -0.3909886861780105 -0.7208105710387134 -0.26081656133558306
Ni 4.099020348215981 8.636675155621491 7.323793394424496 0.6017926630408926 -0.9418655362056423 -2.0822636881059813
Ni 7.961468229707606 3.0586135085782042 1.4023419762435052 0.3806880755829508 -2.3734884294197767 -0.12692276466719432
Ni 0.6623047249418458 5.70054125629923 12.115191487613446 -0.665528253526641 1.2433073272617554 -0.4323004004426038
Ni 7.734172574862015 4.344456712343788 12.484660019424382 0.08667882954548298 -0.6117050370585981 0.1966593099313839
Ni 0.5586787906288297 8.814072390094458 8.854376513236186 0.3554303294574266 -0.490835163453703 2.2795333779278546
Ni 4.119565137332258 8.810558029115656 10.928344988098724 0.04523007548239307 0.10744691533076979 0.2704350582619536
Ni 0.4929299599304082 1.8765953556615111 9.76906832930699 0.5830333801555184 0.1511772663391848 -0.032630127330195415
Ni 4.3368866136296615 8.18957136174937 2.9350878493181276 -1.0430307322927586 0.30121424842633926 -1.777116166063507
Ni 5.181122373983442 3.1102828732560743 3.042942945446102 1.1119848908649688 -0.11144292386404034 0.5082448742897182
Ni 7.9034491579871 8.92864239317879 13.013929205945765 1.0468123108223777 0.12088530022386276 -0.4707072823555764
Ni 2.2770948690863033 4.963929359967247 0.2864727222724288 1.3157615285674242 -0.07209450397340487 -1.0032735069994785
Ni 1.1105655969325736 3.3313939868491556 11.688337937198543 1.192571491469785 -0.10957270342452098 0.6046265329452619
Ni 3.616295798939938 3.7456389643633545 1.5473309299305051 -2.104890167256246 0.06265058495168566 0.5578157432393103
Ni 8.845949387588849 0.9315258804355738 1.624149538918286 -0.7714659313017359 -1.5105413620879082 -0.40966775064475247
Ni 3.3772366694864564 5.635805442446917 7.412591111135054 0.3011204031609524 -1.1751386407053181 0.6008549817179717
Ni 4.701939713317886 6.531361884143856 0.8464021849676044 0.5889001233489406 0.2638707747808746 -0.4971438792805503
P 8.87346784339935 8.552972803536333 3.31821375679707 -0.5750591037007902 0.9831319990545971 0.791656804427314
Ni 7.575861165025876 1.2207862342102467 8.646040055921658 0.583468153700092 0.6226913608667727 0.24120932862761685
P 6.4175993582556945 6.7414160656757 6.280269509291944 -0.0681306342296504 -0.17452596836745427 0.7768745039118169
Ni 6.218482822381111 8.755218313546088 1.4890319939545062 0.10348741646238951 0.5386463693997111 -1.5871761771338277
P 0.02594295769024023 4.918866626894433 5.193407038417952 0.857757295600813 -0.18878633494121033 -1.1946242602337556
P 5.559260274600567 7.062149678346677 10.65444321763036 0.04066585315047835 0.8405828407040556 -1.367795000124896
P 5.209365724095053 1.6329666393478661 11.419500333372998 -1.3384725970116949 0.023591157056378726 -0.5188586452498225
Ni 1.817851389639894 9.099469699555618 2.8513662278907868 -0.2539568581012723 -1.1401464409008493 0.419542072335671
