# total energy = -381167.4837963486 ev
CRYSTAL
PRIMVEC
9.22995061781440 0.00000000000000 0.00000000000000

0.00000000000000 9.22995061781440 0.00000000000000

0.00000000000000 0.00000000000000 13.50896570687548

PRIMCOORD
 96 1
Ni 3.6663025464682013 6.489993666038255 8.510999356336796 0.15309222397371053 -0.18931983884717718 -0.027051604801153414
Ni 2.237247743653176 4.368600263233853 11.74107412810272 -0.5110481480664683 -0.7058920020556682 -0.8522980722584547
Ni 7.52121913494124 6.908544239211408 2.8125394931668115 -1.488710639366062 -0.4822296811728792 -0.04513854420985129
Ni 1.0322776832797194 2.2935504427590976 0.3454659777533974 -0.4334658815056148 -0.03314383374182034 1.4109149712428217
Ni 2.0503873922762277 0.3299172028494899 3.645975426100829 -0.17621981113010943 0.4357742179238172 0.919640663369171
Ni 8.839293010862889 8.88360600404445 2.682651012319585 0.005049389498449368 0.07553978220952796 0.5811140516456186
Ni 6.182470169511844 0.25432759881705436 9.607346742213853 0.1314299085089285 1.1467732021887473 0.5118729579606088
Ni 4.065239474461013 4.279891207314671 9.962254036510766 -0.5122287986381308 1.789502455543002 0.1447651921652539
Ni 5.836476238579946 5.69845155621438 6.216704056558379 -0.3176505396054916 -0.05147374239925974 0.6467684564206345
Ni 4.313414388159377 5.366607139664346 4.051379780530283 -2.6646805177234234 0.5735701778600897 1.5758761787399764
Ni 2.9336844417414087 1.4437027345332378 12.676327492901859 2.8074320218927586 0.7095758786651586 -0.21034117829385063
Ni 6.060514831268149 2.5083221649715064 13.826831614353342 -0.9629881771168706 -0.01663632300510038 0.06866825190067528
Ni 8.261258120009206 5.7416108055618045 13.227749666979784 0.34106171944058034 -0.6855982848036386 -0.12073849023335334
Ni 0.7423372427855687 4.642997466794501 6.933679240884398 0.2576268507536918 -1.0945443267910182 1.6715680104173471
Ni 4.6562239861090555 2.8403696404363483 8.513944633596584 0.7461377369495924 -0.32950486784091637 -0.9439648419368323
Ni 5.841857299822364 5.679493237531828 10.948679170836652 1.3559609836044453 -0.1621103683119208 -1.081801939523685
Ni 8.867868938146811 7.897182715708701 0.5104495000449597 -0.4402484516450869 0.4924472451358293 1.1705229963101775
Ni 6.832812493938606 1.102942185632988 3.499186905571152 0.24386759218607032 1.0177303058547569 0.947093360263485
Ni 1.9710836560929357 5.503155029922215 5.284639639716796 -1.2152190536659717 -0.03831740752295981 -0.2144739695153016
Ni -0.23208434068994602 4.618759616326935 11.09706170384757 0.9237243465202414 -0.3713230894282831 1.4025941100819521
Ni 7.721749043265053 4.337449179712134 7.213692869429628 -0.7094115851731525 0.41038843086086096 0.6928207706940068
Ni 0.7831114728790638 3.3225699534512123 4.986658989191306 0.17793139450457743 -1.1325136069459398 0.22828619280804555
Ni 2.9381794277192093 0.9581888692267303 1.6969015103829719 -0.5262289695719647 0.44715366340535245 -0.8368195170068815
Ni 4.759747112858567 0.8760681520980078 7.55384885656079 -1.303922369840651 -2.7450750569220914 -2.5430534542375303
P 5.214977510006627 7.870148190187185 6.855016986272887 0.234103570820771 0.549679230175105 0.19334567217711862
Ni 1.475232246032554 9.228990758231925 13.404581676950409 -0.9959571758437233 -0.9519098078155218 -0.011660981277696048
P 5.559605408238907 5.22284142798011 8.522090988060663 0.8358160154430315 -1.00375224640811 -0.45350274555183184
Ni 6.586622019634958 9.2241265742272 1.6533758319938252 0.8161936132264138 -1.8722294995295887 -1.6589621487278783
P 0.29909932054706984 6.74144521222557 10.284078418610079 1.1276310820426578 0.04873037532616769 0.4725155392089088
P 8.660684235387693 0.6794997386030908 -0.5573607243410003 -0.05378362147935899 0.2720625665630476 -0.18442754375188236
P 4.826775014646634 0.9170399031359072 0.9557364713328871 0.23629209383165756 0.13060869815921378 -0.4127705579397924
Ni 7.080442840547258 1.7285667021571827 11.610645695141116 3.999957747726273 -1.0107973261803496 1.2271232613027252
Ni 1.0084459506417702 0.9145856592519295 9.204901509970195 -0.386300793784038 0.5436692765355992 -0.13772962547471118
Ni 2.8496365109121427 8.282080888727725 11.59317801349227 0.6805200989497827 1.6903476050176955 1.0086877360365145
Ni 4.870469601133097 6.774303836621813 12.770308696645518 0.6899892147824827 -0.8567921034740663 0.8024505526087082
Ni 5.276209002771986 2.1918548462428604 10.76861760112551 -2.7725812327621604 1.0320066132681132 -0.6066286509769552
Ni 1.12731848536065 6.837842817055447 12.32079809992958 -0.07112262697843881 -0.9257192654630831 0.03354801115877448
Ni 0.5191838023669161 6.769024304836799 3.6891226765123784 0.20270500190483157 0.6154372504075207 -1.4463707409472704
Ni 1.7137987810802195 8.06011903494097 1.8800292697077179 -0.16688747798559 -0.9436771354930844 -0.275022677632636
Ni 5.953595082670936 7.372100051866605 8.928994286479428 -0.8923381188994762 -0.9548544922661426 0.5527223878768028
Ni 3.107373653507841 3.4759901935395128 4.745321622951576 -0.1354032913343797 -0.5460295492376596 -0.11408061859720353
Ni 7.630437141256055 7.195964903171801 7.404250739046222 -1.5364233720609928 -0.6584713466798595 -0.6149695667424828
Ni 9.326588256649304 2.0120184873281426 7.072699834927593 0.00584206060307381 0.8146021003695777 -0.4399062378143198
Ni 6.665141210011036 1.9188329053325057 7.667607998606772 2.6405460865690653 0.8494485186248015 -0.043577113260002374
Ni 6.6563635269209165 0.7352172588363378 5.70965856232166 -0.1059163376188563 -1.424329959097147 0.1761586188748708
Ni 3.540692147757957 4.562539986777072 6.983108395724061 -0.766587263053196 0.6016939326794992 0.4129227672469405
Ni 8.826897187108912 9.035890960199959 6.613611318398175 0.16159794745187653 -0.31891552236084425 0.3055069622644222
Ni 7.711429958412524 7.821681719202727 12.054334038972463 -0.38587990419653545 -0.6682561939807652 -1.3269226873905664
Ni 1.6005472863212589 5.238550804025729 9.144543170538512 -0.0666897880180658 0.1046626677174133 1.3726165898832554
Ni 7.491794052195392 3.0952454983233846 5.296621961680618 0.13022534667786603 -0.5549150246527476 -1.0290063929892084
Ni 3.174604614210715 3.3882687423423516 0.7833514515965644 0.9598300911038632 0.3810786261531502 0.17503581812433724
Ni 3.2508809265732297 7.0031789234627215 6.163235875304167 1.704419509729729 -1.0349407561957722 2.109523809373515
Ni 1.3429855127883497 4.745486839068625 0.24631046366239803 -0.8331307553013846 1.0470732777932483 1.3607411786019081
Ni -0.01384215702445096 3.1720109980715736 9.246806409021145 0.26299120038939866 0.027163190678353218 -0.4306173563132261
Ni 3.6862669297741206 0.5741223147633534 9.527251999257876 -0.6172539919012853 0.5474467413001604 1.3273170946155075
Ni 2.116252320279483 7.994106427726944 9.447765510051257 -0.7020973108999262 -0.6676681826877792 0.8357872190876251
P 7.044750621294372 3.938881449746247 11.931861823491072 -2.086657189187987 0.8448650130191772 -1.5939572046114032
Ni 9.198088883378379 1.0228815934945017 4.487503256789955 -0.30714912585353554 0.013495720493589661 2.167423509903777
P 3.335058076711919 5.832036632306183 0.9327963519299596 -0.09452583639372752 -0.5041645335727575 -0.23822864873273814
Ni 4.634995099560921 1.7161154986991682 4.613865896480056 0.28413029636085907 1.0435300405266803 0.057328144297507724
P 3.171835629008785 2.2808315707315634 6.5371504070221995 0.2695302870594971 -0.662779230026594 0.7037021934932011
P 6.126868946657079 4.878398128761292 4.123841354279604 5.340868007645183 -2.0982677768437217 -0.3146078961244259
P 7.9188177200864525 8.041797582854862 4.753791948684282 0.05439425848016438 1.3617444230554419 -0.43526951037325684
Ni 1.0505806754644806 6.978765703932367 7.727331317432145 -0.6993248903611118 0.04912092589636702 -0.9214666608343162
Ni 8.690146237936235 2.035102593961571 2.555923789577895 4.657743638303333 -2.2297455078714505 -1.6902637870546373
Ni 8.96159908723216 6.497349936724716 5.834400422673564 -0.391963391386454 -1.5124588908255954 -0.6947277579087325
Ni 3.6884544280836455 8.208222823441563 0.5488331729141214 -0.48694765547383884 0.5046604993725695 -0.009233602783126032
Ni 4.633352168341109 6.8808359272907555 2.378901642623406 0.9711498869920565 -0.0907619984759211 -1.7718515752304582
Ni 3.741822002875521 9.03720161319554 5.4463963712530425 -1.0341275162658576 2.1231827949178466 0.620562487449228
Ni 7.944772341379214 5.647428388893472 9.386245119829832 -0.6026082169636525 0.881904839381294 -1.4979136460215687
Ni 8.44170365566835 8.264673201758253 9.213573971622642 -0.15369849009914177 0.7548802590289129 -0.11562585159713636
Ni 4.602745651909103 4.203725654360234 12.312247473626018 0.6547890127322659 -0.40436073660954225 1.0733985459513384
Ni 5.094877391848224 7.496833605262904 4.603679722917221 2.62984335543958 -0.8139230720246822 0.6965452707334455
Ni 2.3438444439768302 5.165726493214955 3.1140598297754356 -1.4699894088074748 -1.3011944293865267 -3.503628393927218
Ni 5.294364315745977 3.2006884548129015 6.248261257909714 0.5744232698890043 0.4557830569455763 -0.6902895196317208
Ni 1.4106872009755522 8.025792848387704 5.413772187603896 -1.0558895905332975 1.5190681686119967 0.299811968762174
Ni 8.142644023909174 3.4292681832322707 0.05575997800634336 1.3386782852645978 -1.2555162106231217 0.9973720539133792
Ni 5.9584500367249875 4.890673963156518 1.1815619824714028 -0.32128839346839505 0.5766693856107036 -0.707381442117001
Ni 1.8358833386333386 2.5327907642058998 2.867196492067719 -0.4338119519911239 1.507941462571216 0.29202358306600673
Ni 0.924933356951544 2.005160633978028 11.528281307314625 -0.26017918486190034 0.7302609178183359 -0.9106001504334574
Ni 2.104216464601758 9.059436564367042 7.38197425309669 0.8549177692694888 1.369042499378752 -0.1552442373197068
Ni 4.785074097505559 0.010197249503643008 3.2276029909756665 -1.3094026762289321 -0.2228853335074484 -1.7664640856662999
Ni 0.4141645006132951 8.90181669672248 11.191137976083162 0.6050798184325966 0.0058418034927576815 0.051762220173956014
Ni 5.877171091097652 9.02199988443694 12.754085212347407 -0.976589312840073 0.7535422569437797 0.28671914013395783
Ni 6.893056381981942 3.5167681156132766 9.443185608527264 -0.8396397600644958 0.12975329213745396 1.0694691289899452
Ni 7.221458026930909 3.3263726931285302 2.6100805251523203 -4.0986374583873735 3.7102769538608293 0.28991887801817806
Ni 2.3364697133890213 3.084381846381144 8.619260216766811 -0.5566196660486801 -1.3667750435008137 -0.0527243269769092
Ni 8.709169166273497 4.775336499545436 3.913560926064727 -1.1523301274512348 0.22996178073825557 -0.44585294231605793
P 9.121747961361152 4.266378559529249 1.8128490737335456 0.6888497018614008 -0.23375235812893938 0.4738036618927131
Ni 2.7993794294971024 7.375468983862287 3.7844154562466845 1.1693186915894314 -0.21001053442730927 -0.23824510379297034
P 7.99108823385684 1.2955989460326442 9.214965848184146 1.607851188984676 0.5672414074285844 0.3097402836194795
Ni 4.8437488939344675 3.356582321681593 2.6170648288266567 -0.7917686474148299 -0.691685371537983 0.6710093312458701
P 4.903180546318571 8.277253624525692 10.897845217504543 -0.14043056934564202 -0.9376414708219658 -0.06329876005864582
P 6.7298431642294805 6.865597278729465 0.6437844444735229 -0.5969371347208042 1.5220802159654432 0.12232948886955705
P 3.179671857130248 2.5972988894602094 10.866220637513292 -1.4136501107857977 -1.1540036584989157 -0.3994890103395378
Ni 3.4373167002192155 6.162321187192463 10.999891552146357 -0.5089989788469234 1.111855050155324 -0.24322790171954237
