# total energy = -340897.6271545804 ev
CRYSTAL
PRIMVEC
9.00942584179703 0.00000000000000 0.00000000000000
0.00000000000000 9.00942584179703 0.00000000000000
0.00000000000000 0.00000000000000 13.18620540619678
PRIMCOORD
 96 1
Ni 6.322679742387366 1.9816591976988263 11.253503234707107 0.35648293909165707 -0.6704074359958131 1.5597155098197137
Ni 4.599942426912398 0.43593457163522487 6.018302605200425 -0.16146759252159934 -0.6115178607484566 -0.3191206963931149
Ni 2.704998950581909 1.5619551062760748 4.820994990525604 0.4957997065478299 -0.5175139582964701 -0.17635222294291564
Ni 3.292674772829728 4.273711126055517 4.722758015704194 0.515196623017203 -0.09887125784661682 0.051367555838698634
Ni 4.975157974738593 4.284405314238812 2.709184729714141 0.21892557752875197 0.9046380193127517 0.2360959186604515
Ni 7.165205186489331 5.99884494873921 2.6325073103456584 -0.9084782189944483 0.505267279718633 -0.7250842587134029
Ni 5.147373145019712 4.518235946175832 11.454829660976317 -0.8083561194598659 -0.23644378891817344 0.021218543059144102
Ni 5.603412249873996 7.750619642912374 12.184831884088167 -0.6689473065105189 0.26840851475022803 1.575371728299732
Ni 2.080429530515562 6.274821673617641 0.30497356116144336 -1.546831197657878 0.2656512637200651 0.22231969081196548
Ni 2.7559652711825 1.810191809742235 0.2873916671094631 0.6618477193512602 -1.5484983009476556 0.4430923488517853
Ni 0.4906352991456517 9.27439280350959 4.86345461147778 0.36521363409643554 -0.44181425347031 -0.048501547144813244
Ni 8.696050746179964 2.372163740762639 1.33925652060635 -0.17789102818494523 0.3258927250096258 0.11140358598567264
Ni 6.847965292377966 0.7052830621021562 4.675076531676164 -0.5814130709432761 0.2639283674916874 1.007105222040743
Ni 0.7967863922325851 7.489625592801273 2.532054917770017 -0.2608612985305894 0.0583702124087769 -0.4696240765937267
Ni 7.6848238077795985 3.9309565386542684 3.8332565255984226 -0.4774664554562809 -0.39818366126455296 -0.3398874966268211
Ni 7.570566272362118 3.81778914373399 12.661130484281774 0.5113641366449904 -0.18393234928301871 -0.5464429826259944
Ni 7.984666501063716 8.7909830636925 6.80627057165895 -0.5084127673261503 0.6115553988546113 0.41635236175377976
Ni 6.83842431067105 0.6257424472790393 0.33878503448333763 -0.382080070834471 0.1102897840962036 -0.36003877476371543
Ni 1.8944569673482667 6.449136040062792 9.279725482520284 -1.0732743616686484 -0.3563636399049734 -1.2704676897266314
Ni 0.007374214850907414 5.04996323546808 1.4012584866203508 0.497619019144756 -1.1634619756983382 0.10042111883223995
Ni 6.386989022296684 1.8971688044528767 6.90453457475715 0.5280562525886906 0.1511708385812816 0.813020871925387
Ni 3.437140912272978 4.273305701903665 0.6716094329918917 0.03987421048711842 0.25816755374851025 -0.33973271621651163
Ni 5.784285478153553 5.648765698327836 4.654400800874274 0.7721539585076961 -0.249521448037738 1.2363092986773676
Ni 5.3869247622106435 2.7866423653392984 9.135139517716597 -0.27681165121225876 -0.02815280828513216 -0.31346992586524075
P 0.14934113963363027 5.6179895004894735 12.466344000053217 1.2054033531271304 -0.9231371065582038 -0.7569212007183416
P 4.0478177980691985 6.097570234427962 12.543390805871164 -0.5520618714746687 0.13797388027503335 -0.05704995093545658
P 2.3741728426707054 8.49709560072781 1.3329670405972864 0.15832904689261765 -0.5237763942664141 -0.2854202188168762
P 6.20739513245186 7.767674485566948 5.820997085575028 0.38965299808572246 0.11591921446783908 -0.15124437213169437
P 4.7686078835084125 0.9564226024955763 12.593208424708175 -0.22296118105070636 -0.1722726535569033 -0.47169175775603284
P 3.965345516156912 6.170420449802961 8.20920391049773 -0.1676346405642597 -0.6069551810784386 0.11418089162049368
P 4.729371835034739 1.0880322916123208 3.7694878112249066 0.38271076243993446 -0.31940994549875956 0.692841082408981
P 0.08121636798410503 5.7148318162285126 3.587492008516 0.4946992743947996 -0.40717223791640844 0.24845675421864952
Ni 1.4961772899944927 0.9574046298856177 2.6261646747255742 -1.0328854163286405 1.161777903127696 -0.17624449372045778
Ni 1.7736675983731711 6.54349175433714 4.736128904232272 0.5899905281996419 0.6366236546771488 0.5989747339761232
Ni 5.938779108285942 5.668388227277471 9.216722569322489 -0.1445790442963768 -0.09987450230015057 0.4020565139563979
Ni 8.488050137428713 2.2910338632642624 10.17066487695129 0.7657863644184554 -0.1096279821424886 -0.2937973871369779
Ni 2.475348692121763 5.1664911461359315 6.854031338632231 -0.5754113448338865 0.004698691027249973 0.7980819912273676
Ni 0.684201006205854 -0.04028925032592897 8.829337990342816 -0.3264388273210829 -0.05478275216783469 1.1185946828720026
Ni 1.4604098703755526 1.0901945537555315 11.465273387128024 -0.42158867045205456 0.7587726521047835 -0.30099519043699774
Ni 4.079954419172664 6.945537371590339 1.50440109367917 0.5369191022959592 -0.19378635925896304 0.504157334483906
Ni 5.581149959224525 7.847795307398492 8.032152480556297 -0.42547797820413175 0.38733360592392646 0.08139932631409852
Ni 5.203285640272896 2.914756397324519 4.9551120027859135 0.42301280449309087 -0.26890113811593047 -0.09411137456412824
Ni 0.7405486567153594 7.278462675665576 6.94076958356456 0.41516528342421405 -0.6034538527933994 0.0012621545418752456
Ni 5.241882019529203 4.416807832808067 7.188578339314875 -1.3328079425267498 0.4511828391694036 -0.058014628841571055
Ni 8.226767785698517 7.20436915955823 9.104784060053602 -0.2882366052197487 -0.3029515428324202 0.42836378439235906
Ni 4.750381815526267 0.317548016466772 10.339686205858374 -0.7800379892414631 -0.8946665099223367 0.3480278663457684
Ni 7.990387486317627 7.437848423896979 4.560132478028214 0.3180521459192845 -0.6396963800652015 0.23019420846403582
Ni 7.1348524316540125 6.188223074782061 7.045600556980203 0.7173730061120742 -0.5913791810170524 -0.6277330370557382
Ni 2.228589534453463 5.249594087839988 2.7658990638454326 -0.1837171479484191 -0.029370996962949418 -1.5319126286748326
Ni 2.5711278956403905 5.049557811316228 11.277422358723815 -0.714259400183757 -0.06081507440484365 0.57965752170475
Ni 1.164981795633824 3.311612585434013 3.8310140795674013 -0.8409893321138548 -0.23338494748719163 -0.21415258162014086
Ni 3.5241539446860064 2.474195485645384 2.614375841332279 -0.3116637258944374 0.6189941145208436 0.04853728547875512
Ni 1.1302054128305221 3.3291719559220017 8.108487541752105 -0.6219771084085675 0.8328715881027269 0.579717171298092
Ni 3.6322400235697407 2.5592805009807162 7.163748362370342 0.5356885723229678 0.5311071235998724 -0.20362931349131383
Ni 4.12718182815062 6.912517826778395 6.096497211839393 -0.11123157918418264 -0.14852105966326035 -0.720801572177649
Ni 0.7615523306089703 7.441028751132617 11.334373640748298 0.0663678859022728 -0.711152222013343 0.5723206217237046
P 0.14957087998634638 5.4775145365855655 8.174366263600369 0.5808476853581094 0.1281455813307019 -0.9017344725127115
P 8.54168324800593 1.6703114679277102 7.941458196844453 -0.5302751146168804 -0.3198742867296878 -0.024892649476621644
P 1.8801499995006907 3.1561189090603894 10.381393539773224 -0.893233891240868 0.24945614201744135 -0.014775101426645522
P 3.8937115732374683 6.184610295117779 3.8496203453097273 -0.13192124632305022 0.5101613745861407 -0.8760653498813816
P 6.811287920773758 3.8527997716028066 10.378769995039464 1.5839679546091754 1.4316586315480764 -0.6536646693198356
P 6.36687097493923 7.646218419097695 10.209893717884487 -0.7659300890851712 -0.33020780744521194 -1.202591337599632
P 2.365379643288316 8.43807485364376 5.751954253457199 -0.07661038956588741 0.6064162778558331 0.23226626050171612
P 6.7941429838632175 3.951687226952299 1.5795622267197258 1.3467150395261454 -0.7409060562370079 0.9114360160711915
Ni 5.253675357635297 2.7856152908212732 0.4845350170741191 0.021781100430833453 -0.17452802524998332 -0.26404663823710656
Ni 1.6751495294731436 1.1671350483514376 7.121302255556561 -0.9100255088769101 0.01797766752434323 -1.755699390950628
Ni 6.898535198252301 0.5511723325576274 9.251679140637725 0.4787628056702013 0.7352401162004821 -1.5300555208614357
Ni 2.6909712749278314 1.482167633191608 9.336030788729486 0.46172127680688224 -0.5183058580701461 -1.0994877868392225
Ni 6.432729876051183 1.917214776405557 2.561367984891474 -0.4442030654174608 1.0320829750320033 -0.080510495951242
Ni 3.8196811231092993 6.880291111418963 10.407475826875702 1.9819197023685804 0.5516425245490628 0.023878863500126614
Ni 7.971251466350214 7.0675610318721835 0.30762323322943586 0.231392342537195 1.2423470202310152 0.55030915044962
Ni 7.537564746401369 3.9010902928011744 8.144367579191004 0.8483300887496423 -0.562564056557573 0.42827071045792053
Ni 3.0251939362889946 8.253787053063052 12.386132183023147 0.7354949125237655 0.6509814660607175 0.4555362310420929
Ni 0.10709864583833449 4.677288345660157 10.304795403349994 0.18519964603121655 0.20131917730089846 0.17880222714530497
Ni 8.496374846680073 2.39502966292709 5.69553092377268 0.6000682241506181 0.5430390991507681 0.7859391852172465
Ni 3.805392174112917 2.4850878811918067 11.22161887752035 0.20010741638098442 0.3520087053703873 0.7539163524537468
Ni 1.3449901190560967 3.427726062524416 12.58623242646864 -1.948788209921934 0.6571762820175198 -0.15450813048463066
Ni 3.055429568591555 8.30327582786578 7.883636604307326 0.11356279842052054 -0.08044801814442273 0.8188770735958478
Ni 5.670694640230229 7.913681236787235 3.5611718725777703 -0.9320824886769495 -0.09113403710335918 -0.333435056133258
Ni 3.113198005517661 8.382567782542427 3.5098118400786036 0.429715413324247 -0.6206229083735182 0.8066661333519526
Ni 3.4575562706751235 4.193653370203148 9.171401554800797 -0.03294560168808519 0.40888767794561837 -0.4130531221772176
Ni 7.294940915081959 6.069487854843016 11.389874405251714 -0.11053378178620965 -0.845146548815338 -0.41644389302632157
Ni 0.5079856509597964 9.128440108842883 0.2943361323594075 -0.060077682018186855 -0.7589474871197509 0.6294417922167288
Ni 4.469314765185695 0.43061810959060615 1.655936929388159 0.4003027644900848 -0.4135447171016555 -0.8749898574290158
Ni 5.814917525182368 5.398213572483321 0.43409664881349597 0.2476815666155218 1.6658187666383955 -0.062008066271680304
Ni 7.85692185552796 8.723925908976186 11.28641556735445 0.6112910894496311 0.8736387427177599 1.0194668289298892
Ni 0.09726395685696548 5.010114546053829 5.682291572858314 -0.25569492383830156 -0.6493611568484752 0.8859800378919322
Ni 7.83703805323602 8.9638018654886 2.451671921653608 0.6759165387395004 -0.9376828655828625 -0.1143960929550933
P 8.441948906650346 1.7448194176125047 3.546363980667017 0.5158697378248277 -0.019222595675037864 0.03671946690822064
P 1.7082231308386673 3.2632049417028886 1.6347864018573217 0.20420472637880957 0.38453187480907325 -0.04456415976362002
P 4.742381445596388 0.935340546599274 8.233888835690156 0.09918750353545498 0.1377810475379369 -0.6803010409604413
P 8.477031609923936 1.674798161874872 12.342631072471988 -0.3515865302313042 0.06047851700103132 0.0011644526217463817
P 6.238774961805202 7.699959642782072 1.3779447960037436 -0.4115035183019106 -0.13617565072402998 0.35681255451693383
P 1.847265596072698 3.1881203887799043 5.963290151564352 -0.5757754130415246 0.23175666785514926 0.5845387610564513
P 6.928707764575684 4.084098754947151 6.007582289682899 0.39249740951305306 -0.18565730239392542 -1.3073434797070582
P 2.329567176541393 8.510357475206167 10.279200526172302 0.40921600781931466 -0.2490403946362614 -0.9436308556361814
