# total energy = -340861.50507000065 ev
CRYSTAL
PRIMVEC
9.33315985434827 0.00000000000000 0.00000000000000
0.00000000000000 9.33315985434827 0.00000000000000
0.00000000000000 0.00000000000000 13.66002285709805
PRIMCOORD
 96 1
Ni 2.9576876764061413 8.152328429343033 2.4016366813479846 -0.41041439900279 0.5136884139027927 -0.3517207418163233
Ni 1.541100680704253 6.128638054431654 1.854443788263873 -0.5113541093426613 -0.7305992749943611 0.4053845498883663
Ni 0.044475306434432794 6.7092259266258 13.408651102136917 1.7982033257511094 -1.0395553721496484 3.1204183232533613
Ni 3.3074851728609516 1.8230834379920458 3.060733227217483 2.639150748883435 -0.4165127985910439 -1.1161343942569681
Ni 4.641156376826014 -0.06425600533211748 1.1288932779274048 0.5854224492129854 1.1736047205592948 0.3845100204322023
Ni 4.8802252653153 1.4226628827370837 6.613472373572674 1.0943746339823734 1.176135971621581 -0.011372760613315899
Ni 4.372109379032508 5.659497443508271 6.584731841259033 -0.36071523200544975 -0.463798213940569 0.8596339437982358
Ni 2.180030134860004 7.046414324179613 11.568332117926905 -2.2877585940511245 -0.378121086186723 -0.24814693628771456
Ni 8.156099025905581 0.506231521317499 4.720452769189186 1.637009555716187 -2.182426153960196 -1.1343126078278918
Ni 0.5038562321462898 4.995657785824201 6.179439376584145 0.8407872434053778 0.34267688644650013 -0.02210840186326515
Ni 7.048952943647468 4.407463388386301 4.594644574921412 -1.8612143793660076 1.7110920366538984 -0.08782734132762939
Ni 6.163861399548131 7.314854666585581 7.57074004241744 -1.089211087503563 0.05514322083104697 0.30088283322884957
Ni 5.978934171106721 4.75765287755306 11.144543197143955 0.5303036538619705 -1.2512476651547548 -0.23095885454420226
Ni 2.90188471391239 7.077344415784278 9.195981958741347 -0.4614304850393408 -0.06046823258838618 -1.204948267867583
Ni 8.692205058453428 2.7410090382969368 11.41923302335755 -1.402641932600752 -2.062972443976537 2.1699359919129853
Ni 8.179142597472245 7.807272178070833 1.385576638922872 -0.611201100838986 -0.6117423180544368 1.1282329772927149
Ni 4.448165298310243 1.3846022570388872 12.54771470893741 1.5398203135576836 1.36253220906406 1.2523154442976367
Ni 9.102901422657315 0.7956556069204394 2.0073536119829525 -0.3563854942818443 -1.0025993637505894 1.7669736783128664
Ni 6.795268326898403 2.091327784042039 5.134447472069322 -0.9225205560201273 0.989216000465148 1.0474748841070411
Ni 3.4024407407504693 8.739244183887198 12.531103551110618 0.513257239902645 -0.6958019648095178 0.26445750052228
Ni 8.047293048860565 6.556498099522981 8.901581432328628 -0.8035144750968484 0.7668813972548469 -0.9140354013672518
Ni 7.070447210685954 4.4717781926252105 8.8223802381955 1.0978427950366318 -0.673032532323486 -0.09842825677192726
Ni 3.9489719128041734 1.997865521721847 10.386070898899732 1.0971200579379945 0.323315708311069 -0.8039209665066477
Ni 0.7865361764717614 8.432911212659583 8.530328868106528 0.35951709793229053 -0.17619204321596754 -0.6600731439493406
P 8.830942479003623 4.366416151549452 10.111135610583178 -0.5979666044265831 1.0325899965754086 -1.2794560092681706
P 6.330383636847598 2.5533098613924654 11.995767504246958 -0.16179515106434716 0.45347780585116737 -1.286572565708294
P 3.323482208772357 4.018793281329973 9.46217487626548 -0.21652493850705937 -1.7966017855919445 1.443481078104301
P 0.5403040878296145 1.305578392942116 8.447973065958196 -2.6068754337894973 -1.1848841501278562 -2.206335613587942
P 5.207501847152712 8.731245665931494 6.014234981449608 0.16189028188131474 -0.9945024456750678 0.13623170077294602
P 1.859016103253953 5.220670935642206 12.699695883255567 -0.7747944814543365 1.4852581620410872 2.413181891354657
P 1.990361661235984 7.816801334235095 0.4026315808135453 0.3702709940146849 -0.3714364750776958 0.49701378146058917
P 8.172581386127018 3.033603598286753 2.811942919471884 -0.4151022913967625 -0.33840499854402367 -1.8542816568019163
Ni 6.872434892193324 2.569568225778503 0.3833586058094314 0.1645562587492521 1.1289441444271267 0.7063820543182093
Ni 4.3761133045902625 6.440010931955745 11.584847144207671 0.9294296244351347 0.6185372294890831 -0.2510597390591353
Ni 5.16952521989279 3.5397128552107633 8.0813646820567 -1.5719727299205122 -0.9374206130604112 -1.00796679871009
Ni 3.0537165576736123 1.1365735351336446 5.40703360406213 -1.4130556717349085 -1.3742685236643815 -1.1915451070877994
Ni 8.553243642067835 5.032785095541568 12.317488056050495 -1.1895303906506158 -1.3504135714236547 -1.1850026779835914
Ni 2.2534541030718023 0.7109889144035778 0.4955842526082046 -0.04192775058203747 0.3627142647133495 1.4870358227668001
Ni 7.799338992233789 8.938339148917589 9.061184998262211 -0.05876770495751169 -0.20674060542678588 0.5249043372232702
Ni 3.2398850963695245 4.196067318728587 2.3549335496673134 0.21789045139601831 1.0479603083838918 0.7558097128217176
Ni 5.316279824718304 9.266530380416212 10.08171189097157 -0.8995606047898442 -0.5174748775284185 -0.8636078408443192
Ni 4.874149378280105 3.4228523612511945 4.372505105008379 -1.643903197512227 0.25993415873062975 1.2648698839238797
Ni 5.86301632628779 6.581221639855135 5.116129279313596 -0.3219674218132907 0.48632416295722697 -0.5163225090915301
Ni 3.3965701832310566 5.983124759860643 0.25330849040879067 -0.7048795016307539 -0.09579056203876406 0.36246178238291127
Ni 6.037406417305643 2.184603383166065 2.7645155345900903 1.5345590651587442 -0.8263186174755576 0.0016285367423584858
Ni 6.652330984434479 6.633515334260971 12.547523379161339 1.2619722506611106 1.7268454428334132 -3.686935708031728
Ni 0.6955425349208618 6.193008857629414 9.563887651856197 2.074395855322131 -1.4362423942640166 1.0176310612727313
Ni 3.699739213283662 7.777452732483354 4.58366131245902 -0.6551368829899878 -1.347550390943247 1.5779986243996178
Ni 7.090392173196265 9.00318594326557 11.372474826034011 1.0158138055583346 0.002959596848956193 1.9629161646828837
Ni 2.8459604203411306 5.344820627412047 4.740355732480359 0.2989689040355883 -0.0783422846553296 -0.18492248111042991
Ni 3.791484174199129 9.02706016605517 7.944914818975516 -0.16068674849151682 -0.2661199758263675 -0.05419705486769376
Ni 7.61424376691583 5.633737922437398 6.565157405193111 -0.323251687842353 0.7144108381599568 0.22346768837347963
Ni 7.841608873005524 7.015614896812264 3.936504677932263 -1.5745813711879528 -0.3045312286147142 1.1586283017551207
Ni 1.8842716336951788 2.953161093899122 4.478205939785178 -0.7900524360546716 1.3589678887515693 -0.23957822078209703
Ni 5.822762408034645 7.665492147423136 2.701365508695255 -0.06451951983962437 -1.4331907519218865 0.43056901957379395
Ni 1.279781539232009 2.493642970738083 1.9549264533918584 -0.29290290034716654 0.42754077427043147 1.399316981992577
P 0.8405929047653823 5.13649516733126 4.009393856087047 -0.7378479861369744 0.5577208695326588 -1.123948233874432
P 7.678175911602599 3.485944521555219 6.744950462423982 0.17390530406431984 -0.2490637916750291 0.029100516910382138
P 3.189243371249756 8.725561771608248 10.363203724053447 0.2067192652705472 1.430324229007369 0.035534188350867836
P 3.1991085211671164 3.308838481033153 6.140275571396607 1.4252997792095838 1.2267476231308614 -0.4403489817786932
P 0.0813375544132454 1.618799236108247 -0.017201946842654834 0.9766255653946471 0.5249053656645347 -0.31497119300111565
P 8.654116433275806 7.592786832516577 6.52518814831412 -0.34986080578944906 1.031422715740185 0.1122762183986131
P 5.553668744442098 1.5002494402233784 8.620485325222623 0.5542689064283164 -0.38035177528945463 0.4139386101059645
P 6.280245902357478 7.057072792680678 9.999273023700948 -0.5198014687790661 0.026009279579568112 0.5030556167792949
Ni 8.890740033895321 3.3099491270503396 4.725179081316103 2.131180982631975 -1.1178560049337651 1.0022152409382934
Ni 7.411648866957331 1.8648399949743244 9.822184716182518 -1.3429005508760614 0.022416420021987203 -0.6283752986254275
Ni 5.941265538120473 4.841315322074549 2.5399307768072856 -0.7909559217055475 0.2051768604840918 -0.4403050159146353
Ni 5.514432140608057 6.5597180396568415 0.7217099150753576 -1.6916820075584027 2.193993289972505 2.2001294847772304
Ni 4.686487534014867 5.546594209307416 9.120318965491542 1.3354278966481001 1.5863220566636487 0.2536187580355632
Ni 3.4222083732244224 4.10884894032014 11.825400005106475 2.495266159550922 -0.28498081728661245 -1.269546977684575
Ni 1.2888347042460482 8.429467276690325 5.567497687330038 -0.7386077471211344 0.43331418641909886 0.08790421731215184
Ni 5.438665549284379 4.353452392575741 13.650010348043157 -1.758190789913914 -0.8980405686008921 -0.9948955673484285
Ni 8.840172974054019 7.201410109115845 11.413481930283684 -0.8449334043632674 0.5676491843899644 -2.568079543968222
Ni 0.6017965445424981 8.825053255164594 12.815805991166547 -0.8043086888633696 1.8789508774138222 -0.7974908946105878
Ni 2.5797507031293447 3.2182694982535307 0.25945157619460557 1.1741338535898875 1.0702448308137051 0.04962589055724356
Ni 2.30971439039616 5.109923661357065 7.982561985694206 -0.31475470611493533 -0.2155270933701643 -1.3189892914761028
Ni 8.335538356379718 5.242211868479733 2.441169146347948 0.7901403677827875 0.22423104890206544 -0.37538954618817283
Ni 2.4278068614504225 1.9456464925944783 7.596830890661507 1.3906587920969469 0.3505390628033963 0.37278399024452574
Ni 0.549648447429672 1.436559957691624 6.202797475636346 -0.2618249479954394 0.07801935409827208 0.2240364163927561
Ni 2.0683402114342266 1.9825498064764473 12.092029714509634 -0.4284175204484299 -2.2575612445321376 0.5522585608665069
Ni 9.298683115955763 3.8538110153988736 0.6262680895598282 -0.3493674110927983 -0.09782893262503152 -0.42823625767555923
Ni 1.1719462108070546 3.922045746757264 11.413945788326156 0.16541217899164415 0.20194806913414898 -2.4509524252352115
Ni 7.558823463974218 0.49634397181659917 0.3108464873109027 -0.9131830806692853 -1.869958444107225 -1.0515182009384794
Ni 4.992475178329574 0.1761699245932938 3.923158259406412 0.8552304154139013 1.6318475518992732 0.3483202007752066
Ni 0.36992445558138226 3.4574503846605165 8.128260076829422 -1.0017331590955523 0.4550202106376228 0.25556636868023724
Ni 1.7514981022624798 2.011230606567315 9.861867445055395 -0.20179714537858148 0.745075100013033 1.1375750806292473
Ni 7.158934898828329 0.1242514232117517 6.92690227951851 0.04560314255109565 0.10833317459046506 -1.162080264859463
Ni 0.46282019510121103 7.6335634077189845 3.4780878676286022 2.2449862360806048 0.7672248966371948 -0.7769439236971717
P 4.4940471119277845 2.6614718504107104 1.4285651729998448 -0.12796508988877964 0.22167023015342469 -1.857990473112071
P 2.5004935100373666 7.192058282987942 6.815026626212548 1.055726582592872 -0.8199579653648524 0.7707601634839629
P 7.21157392014707 5.419495239038157 0.4248025019381324 3.162971880344856 -1.7434899933686296 2.0326367691074734
P 0.049917471918645276 9.152516500198171 10.650747177955017 -0.0999835170741891 0.33090149107812683 -0.2646210226833378
P 1.7299665025847604 0.5704819267537315 3.3430995773733962 -1.8444235330609136 -1.5557758084456756 0.642808443331622
P 5.56483120357281 8.490300812320742 13.055061542852 0.5436276246643863 0.47539234653607165 -0.528902916859702
P 4.1191340824288725 6.2591809606701725 2.8703806329795154 -0.615925502897849 -0.8239035802761616 0.3053149008582742
P 7.07684042515463 9.301165736464768 2.8007141949065337 0.8068401970359718 1.053448842302289 0.09214885152111871
