# total energy = -340868.47940374084 ev
CRYSTAL
PRIMVEC
9.26263818335507 0.00000000000000 0.00000000000000
0.00000000000000 9.26263818335507 0.00000000000000
0.00000000000000 0.00000000000000 13.55680726315607
PRIMCOORD
 96 1
Ni 8.76459516936806 2.849770979383772 6.3023970446400766 1.1551879086150043 -0.6480000148348904 -0.3716095103204503
Ni 8.116812584386428 0.9243362399689512 12.58040463729595 -0.13086940801976815 0.11839955768753158 0.12920333317125487
Ni 8.901024563722741 1.7208036155759312 1.209127158884548 -0.6271545388444489 0.7410922041058849 1.8240531969346778
Ni 1.4588376890949055 3.514355989605366 10.122501597785039 0.7670197226049241 -0.9937578541995595 0.41802589280146074
Ni 1.4352735381519832 2.131184789917981 13.279502236516494 0.1442028919038807 0.29398919143280977 0.3039475881971023
Ni 4.349197547972343 8.5074736025345 8.272445279737516 -0.6693735954146601 -0.41829174486833764 0.4188645866526721
Ni 1.8371330855807118 0.499517391855387 8.022579137209613 1.7222359690858597 0.08701512983897917 -0.3418955281957854
Ni 1.413237722470689 5.998827053546146 0.6373269192645059 0.28991964934912656 0.3345984803137399 1.3181945634889491
Ni 7.456970044794857 4.014603277331155 4.6367394703588705 0.2580567392022588 0.2013171204183694 -0.6518412429578516
Ni 4.372418981311143 7.35300619645234 3.8671337448047503 -0.7315220439189466 1.040499995451105 0.949686574911958
Ni 6.723739624731282 8.158679707917093 13.612932193567461 1.6307298933550627 -0.25635903978486174 0.6962010000201494
Ni 5.4556103883737315 1.1598304734547813 7.423070642428148 2.4693615238700177 -2.1934351034761903 0.604370708180714
Ni 3.6528972654124767 5.1662641041146875 13.299702197356247 0.04341050577515105 -0.19117746088120624 0.4868689797171034
Ni 7.829476292562374 1.2298467537132522 4.543102537065987 0.8280816229132513 0.5457310441606343 -0.7050911034209276
Ni 9.096484749728065 8.128557609306093 4.965072197746358 0.6729667120825571 0.4676057606121173 -2.9241649905111444
Ni 5.526432518133787 3.9060358979278558 2.0757506805830332 2.0933382007525885 0.14375680550539757 -0.1482302678957189
Ni 0.5041375956644789 4.895294893546979 5.383489636773187 -0.9523975460852177 -0.8097429725050634 0.20006216496534576
Ni 8.947004298502877 6.957741647243487 6.827804435827446 -0.46846090952356095 -1.0978481943532707 1.815455685073654
Ni 5.8921863028362935 0.38250156037856614 12.10622889660595 -0.8775625032521984 0.5481944180994623 -0.894687335857943
Ni 3.8383260145187506 6.709734516151999 10.236379247524651 0.11159333339897556 -0.24823126847140478 -0.08415220646888733
Ni 1.1806250956508741 4.382672721520976 12.598679821969846 0.7619284241249458 0.8765356046495807 -0.23938358827278775
Ni 3.739206525823699 1.2913321444204529 3.4940504346929937 -1.0778133871895825 -0.11743153734730745 0.4376961175368785
Ni 0.8490800854225828 1.1216591424658728 11.071206911934704 1.0370868560044977 -1.3894179777113103 -0.6538125077516095
Ni 1.6576138994860665 5.9707612605598825 10.02571999890838 -1.0124600585947532 -0.1358619761383531 0.7436723061282353
P 7.399930720303302 5.9216785420667435 8.12909484230715 -1.1439678715294685 -0.7106020059368278 -1.1091749322199993
P 0.45510674794385575 9.328680557840164 0.28452322867886337 1.052125238394859 -1.8588484502369922 -0.36651589784762684
P 6.628575282440565 2.2226255517530946 6.135282383287082 0.7783978825348788 0.560612589258157 -1.9626217733709168
P 5.2692275875586825 8.274092176764896 5.567035291584377 1.2653136563295175 0.3939966197663989 1.1854207393576166
P 2.7152311631707424 3.1731852460202012 4.351897606934553 0.28041890894754284 -2.221011213322246 0.6751503499974372
P 4.159887753565328 1.7335304801182174 1.3302305924883784 0.6173164697081045 -1.4795510843539807 -0.1259280048540928
P 4.110128862501893 4.598788590153155 10.349442711388521 0.45391875004332793 0.04822721043750404 1.9709901999402704
P 3.4685059317565194 7.406785072385756 0.6368165479135015 -1.1673713380550736 -1.4542874246911857 0.011061400020484176
Ni 6.898877583075927 8.488818649704687 8.365132792640601 -1.3385936959705913 -1.5058526983629872 2.2807780489682337
Ni 5.455573337821934 4.065186543172074 6.7550177005583505 -0.0817435970273947 -1.3665081629926725 0.9033681514613927
Ni 1.7882078319327104 4.747852222670627 3.3886731077994203 0.5865197960422222 2.7121461674045553 -1.4843659892441212
Ni 6.346963300869155 5.80437649507729 5.775159356193933 0.09600036405672499 1.0469439513042356 1.6700911687615043
Ni 7.8016142776109945 8.395303056968938 10.832905172886452 -2.116860709354561 2.5611612195818343 0.3758567156325785
Ni 8.578564348795085 7.177034600692263 1.2893879167149027 1.0025338006199767 0.6902100725440371 0.4203805090765663
Ni 2.9927027455788324 4.49067508000937 8.606619952879605 -0.06097448280084338 0.3891493189764266 -1.9945227358445714
Ni 7.892100987737335 3.625276079047777 0.57433820241814 -0.38725441594655885 -0.5973883633256099 -1.6787688990411604
Ni 7.4861566169729805 -0.09315342359193227 6.398473756768795 -2.3597983335271944 0.205541185802046 -1.1091425363201672
Ni 2.026127950297452 7.561749005276908 2.4756900831648796 0.08488008577384737 -0.9573057820201126 -1.2526550870252424
Ni 3.1461012926565592 8.844744775543024 5.9098733100004095 0.08228481424284538 0.7615833820807012 0.07507364120638683
Ni 8.623636345056193 6.856704792492938 9.536237749007226 1.367287207250542 -1.244490291826263 -0.18540199185000972
Ni 4.787301797696533 1.0780784309145954 10.012420703340831 0.6117415467234883 0.8921897662470699 -0.5093471062149615
Ni 1.252790307913574 1.278392239205334 5.079247178164141 0.17212790044892293 0.23793528586203538 0.31973596137961063
Ni 4.51990796537724 2.550050540621555 12.832101077082632 -0.4046949800205095 -0.3335880367713545 1.42082914503274
Ni 6.434967624025092 6.2870062454235836 11.129568941125413 0.14457415920037037 0.7573444042986893 0.04055632415580757
Ni 0.39309616566493194 3.0630061676137306 3.583281131113414 -1.8187515822161064 -1.298561362639054 -0.10005499374207284
Ni -0.024872035421358123 -0.2483239133093528 2.707118018590984 0.8073302492985128 0.350372455318545 0.2492468542201127
Ni 5.730256866207297 0.17185157440024634 3.6096759442136306 0.38587167666641936 -0.04652231193125536 1.6729571774553897
Ni 7.975881547988408 5.097933623962981 2.3083308881700253 1.5901897671491712 -1.039070976314062 2.4203365001215666
Ni 8.865594973566813 7.26214898080803 12.408613270042377 1.0792963994930123 -1.5195512788960024 0.8588091339040951
Ni 4.833448259959757 8.85749016536121 1.440207745387555 0.14622917830529011 -0.34565833767232723 0.45969421907452446
Ni 3.366255671434617 4.536423248840775 5.917275083985664 -0.9710102760903986 0.11894360311645967 -0.39064492968534653
Ni 5.291791373603084 3.2506764751037265 9.082978897334247 -1.399448365364119 -0.08730360761367545 0.428013857252108
P 5.528896379828291 8.072333396954072 10.17538662915635 0.5879117912937424 1.1005069721323564 0.14407819340055833
P 1.6277326294617473 5.722615189899154 6.923786669049083 1.4378009970003882 -0.07009675681708573 1.1989205736162643
P 7.197681020681168 8.80616588848435 2.312790848342595 -0.5407508173372235 -0.967875587116159 -1.7084533134794706
P 7.397096353090828 5.692539404477901 13.83648410794531 -0.3525537792405799 0.5685256734576467 -1.9257207865795094
P 1.0551163514383752 3.9925118858221644 1.497498087367535 -0.6534389264622746 -0.9275018112848027 -1.7505810958874561
P 9.295890819499776 2.020496266424301 8.972017126021063 0.3710184137036707 2.977855795166381 0.31319918870235736
P 0.23195220073403236 9.294223544668908 6.634213450160281 1.8984519235612274 0.6810230067281304 1.1175132768823657
P 1.3730471364088417 8.459511663233222 10.082820456810401 0.7871458039308379 -1.4763888845759154 0.6652531454883833
Ni 6.765773475745033 7.0243955899263755 3.99859373389965 1.496650720148745 1.5866102773280286 -0.4953788169603275
Ni 1.6898015663597517 1.329531263323209 2.3634667405630068 0.774751286921227 0.04053267000672374 -0.5181878444350431
Ni 0.13254834905393817 4.5956485558883555 8.428199315645742 -0.38849548744251156 0.3074923681255672 -1.249808618715383
Ni 9.028293209145598 9.267547147375033 8.855306035332774 -0.9613724958903184 -1.2376940948400363 0.1625392283192233
Ni 3.9955407684315736 5.903171791444119 2.276784195842429 -1.8510564649963992 -1.6147494587664062 -1.836615864091037
Ni 5.245561547598318 5.688371217400734 8.74022239013217 1.498828444526354 0.29208451821092923 -1.3163415694406104
Ni 7.304062417528441 1.7446085951055343 10.205116918182096 0.22800722811504603 -1.042279455949031 -1.118839966113589
Ni 5.839472630267044 4.461145790227123 12.603017515321485 0.7551479108680027 1.0932412917088785 0.30596693261997626
Ni 2.9885716090534618 0.2702726601939239 13.583107425634633 -0.4069950889085958 0.07275810569933276 -0.4923634271727714
Ni 7.253803344015745 2.840786220572988 8.05793555252574 1.3850895255392857 0.10889238952804473 0.5078998322454736
Ni 3.8426238785272084 2.0351960728497795 6.0106137603365815 -1.698307226184404 0.4062479263299262 -0.5330627046643465
Ni 2.4148345518382293 6.90474083289781 12.23787876977881 -0.662950979717768 0.8130923485932707 -0.3534611215461977
Ni 3.332826811075731 3.4291952962998518 2.1493506754640737 -1.8572384254373948 0.5160008640860533 -0.10887413469559959
Ni 2.2506542941875614 6.508429605600689 4.757097261607785 -0.6681790608859266 1.5919527725868645 0.8538530754504003
Ni 8.982193060072122 2.9846998263906706 11.519503768458263 -2.573331536395781 1.0300376624672003 0.6356885444573891
Ni 3.956526537389282 6.761512662288372 6.565073415451811 0.48849263136345544 -0.7734042859750292 0.9206127974744532
Ni 3.4286117501090483 8.866456398896094 10.932873119217657 -1.9258560266057931 0.522312665236694 1.2984281794952994
Ni 7.2820451271230455 4.370390463600255 9.893093843695668 0.7581758990610491 0.6673951315320507 0.6036446286479669
Ni 4.847129176210816 7.4961973165099804 12.523018890145094 -0.8870367612912208 -0.48723484769695435 -0.36864502837548774
Ni 5.404369475238413 2.7464277277838565 4.397529992791592 0.5658702381126707 0.6584605480465822 -0.5679163220084219
Ni 6.409310116905638 1.4372186921213281 1.1698720992555762 0.12892591114015217 0.2387729512719823 -0.020944206351834894
Ni 1.8973124443370664 7.506302854512626 8.199075924541413 0.42316887045498086 -1.0228989945398899 -0.6668845104442193
Ni 6.186580724777685 6.42294471996695 1.8562113409648067 -1.3099197250746666 1.3862868882814963 -0.8383714348750335
Ni 1.6984528702043622 2.6750313144709454 7.571178370709257 -0.13452860203891026 1.7480179631459702 -0.37690649705333157
P 2.122135192641552 8.845948918476429 4.04314146485283 -0.004608188195972709 0.7359330285024487 0.022137198218671553
P 7.511415830660618 2.540584124637409 2.871819762758195 -0.833359840593055 1.1401729232634106 -0.9441854425880707
P 9.081155083922036 5.262891943201388 11.092559144935343 -0.04634747691628792 -0.06785064109538638 -0.06405903526343805
P 3.7581393577919906 1.8519718315754294 8.197842141166573 -2.822618756935526 0.8539605475625421 1.1472149177118565
P 2.9224456367336806 1.9613543231182635 11.647629207891427 -1.071150116236794 -0.9169741722806014 -1.517302849181458
P 5.221293436171252 5.147692515026417 3.97851603988083 0.3891174372972266 -0.1866860007687559 0.09628704205920836
P 9.040001183513466 6.280179681254976 3.8818289199112543 -0.2361807650647739 -0.6404062616480325 -0.5539770862195105
P 6.491590129808931 2.577921818210884 11.894783250027789 1.1203276064027092 -0.2655617893300523 0.833003742805217
