# total energy = -340867.64396010555 ev
CRYSTAL
PRIMVEC
9.28014922363392 0.00000000000000 0.00000000000000
0.00000000000000 9.28014922363392 0.00000000000000
0.00000000000000 0.00000000000000 13.58243644064543
PRIMCOORD
 96 1
Ni 1.8855499442698611 3.17227043694806 1.530115599323691 -1.2233496531929062 -1.5042012788024934 0.002820500167930626
Ni 9.45043968553759 4.899640242326589 1.4095441920763019 -2.431452921749703 -0.6678065080378564 0.21213195164568627
Ni 0.05737452089736942 4.460781998374045 8.99286338114833 0.7309430314870249 -0.9382371954244358 0.14019608473733275
Ni 6.491714756130067 7.075306203142113 8.184626440433945 0.1911221821632386 0.6393145712457506 0.1445618179051962
Ni 6.93282807627801 4.8922625239095385 9.046880344154772 -0.33688110570032953 -1.012281366925044 0.8603276274311505
Ni 3.0690380600030798 6.771409165402338 13.141631923508953 0.35039199570257074 3.971686668695721 -1.0073083391904847
Ni 5.951006877426431 0.488045817444226 5.201176410172907 0.9186734143598952 -1.3988498125481716 -1.2767946603859237
Ni 7.226498389872391 2.712633939491398 4.562544399724986 0.23661348172681831 0.2648506221956407 -0.7569587388244964
Ni 5.004765769657831 7.816177614597121 12.330027216739792 0.9154330530457266 0.5973719082653776 0.8363970847574821
Ni 8.56180046231569 2.7071957722053717 -0.32720505984827974 -0.47302178942136597 -0.0213974918391696 0.7964226012470734
Ni 1.2439297258593112 5.719411480173742 10.721322676013855 -0.9720358891414357 1.6387622767412358 0.3548934831173501
Ni 1.9090472814169925 5.084435848413013 3.0694129780207513 0.3102966703435817 2.523382458171164 -0.2184149564409206
Ni 6.098765409044371 6.047603947870543 11.085386631470735 -0.8989923909912002 -1.5720290370797443 1.9918683289408599
Ni 3.553619597843426 3.61939729361707 4.327785399694471 -0.3990709489655127 0.4425873841909087 -1.0914608027696882
Ni 0.3023082762391471 6.747856147361493 12.740230216757535 0.028305274702596413 -0.629288040247684 1.2815172626725737
Ni 5.251255805978903 2.6109699077193507 2.7752721608744917 0.19469164468205177 0.04594895592628861 -0.011355534222135283
Ni 1.4676369965025766 8.233960640279074 1.210929516185062 -0.986170785880921 0.6660591863294465 -1.913313156943776
Ni 6.078553244626341 0.896641495663438 11.244640483595845 1.0922964112971059 0.11558548527750416 -0.4575476050451668
Ni 8.766047260606058 0.6908384163937749 11.453837313337353 -0.12111515684648175 -1.8633473665486102 0.4018225435687209
Ni 5.78787113899459 4.242791299485374 0.9282422588756859 0.03872852691844943 -2.14850301885019 1.9380877927852942
Ni 6.84492650540217 6.000052464639144 0.13373158647659394 1.245497650044855 1.214893552005753 -1.8381767808202534
Ni 1.9767459680237551 3.6938890492568897 10.521022725072886 0.8661092671099342 -1.7583113746521781 -0.303604860145703
Ni 2.7522880159644205 9.159831821097457 8.50204836725675 -0.7541140702868496 0.8290247035528109 -0.2163745289721241
Ni 8.33749926213948 5.158324394370935 3.8537173426021436 1.1384374286295424 -0.7754591116215289 0.6769046136843826
P 8.494510102262826 6.068632765396371 7.934913408381752 -0.2212465123524448 0.5876791064576459 1.4114191645727499
P 1.5225661981510243 7.292860735030027 2.9217992167264666 0.7350614245307728 -1.4578401750394505 3.836390335252851
P 8.27304862766601 0.7119665315133933 4.426108577843703 -1.7634037015734212 -0.13688116143148685 -0.5135133217775091
P 3.2063842644965805 2.426823912059585 8.594327384393372 -0.9563264488259787 -1.0298520288189554 0.3139268108970013
P 3.9842277893774067 0.012310117585177605 11.002248561052092 -0.2937079127469651 1.642133507206314 0.3549539040416403
P 8.539630186468731 6.809170091489099 1.1106872032325017 0.8415153798206539 1.2661631488140064 0.4926092246349904
P 4.854158232311545 5.56279040630639 13.17710900493856 -0.802184186321199 0.5837329773257044 -1.2406814596031341
P 7.570903277788796 3.784500423626791 2.334929093089586 -0.8102291681128628 -0.6154660467629272 -0.6051394680259384
Ni 8.031542031332302 1.0841534013481897 6.6817981910894915 -0.3299090452578705 0.16282230677728088 -0.5018178877174518
Ni 0.9044535250514534 9.286181049082526 4.774905760259214 1.4162368976763675 -0.25957728961184323 0.8236552117107816
Ni 3.728114238592837 3.3079833352259618 -0.1127436016061547 -0.05246156023382578 0.058053966719938725 -0.06097165458736596
Ni 4.169969970656962 0.40314823078423334 3.517484553853102 0.08437794932644824 -0.368289701918598 0.6441947821561873
Ni 5.119589052644187 5.192883669069165 7.416771139870441 -0.5597296724325715 -1.0400377111027057 0.41437415498148633
Ni 8.486222929248454 8.939613886460242 0.5956871931564262 0.171866162147104 0.04674445524439046 -0.07479364807212281
Ni 4.85229292237214 3.411856042448648 9.397253295862377 1.142459148194426 1.0951593346671977 0.7003160506297874
Ni 1.3433108409891017 6.893665847699458 8.695774260679936 -0.4770195977268495 1.3728549311463067 -0.48824554834965594
Ni 4.285229420644075 7.765146075508625 7.488567012239628 0.2902654627243195 -1.2832525001961255 0.27444726474514025
Ni 4.998390307327624 0.9993699605203098 9.176728188294843 -0.9463251146388929 -0.4040288071914203 -1.2026607573849868
Ni 1.138071066760841 3.486282837045801 4.236511422689378 -1.1564724317543824 -1.45765891226658 1.9331335341038125
Ni 2.0594042547415667 1.0214288745798403 2.634707600724346 -0.05421788080330017 -0.9011359196967642 -0.4715225791680202
Ni 7.25765184990514 8.694840677695339 2.8429671354216732 0.5491922632363574 1.145688453765001 0.905920485569601
Ni 3.730564197916235 8.33766630482062 1.442794037757367 0.20241009637223203 0.2291220584457796 -0.0889974503763306
Ni 2.8345194158304277 4.794291991420493 8.38542937544813 -0.055411901111401346 -0.17949899610201345 0.6258977836192123
Ni 5.958366035545576 1.9611181971881433 13.223669368261858 -0.6922155330098401 1.3454336017105604 0.011638355569876732
Ni 0.9650798101416961 5.3446326647365785 6.884216800036263 0.2176163717990252 -1.134327263115911 -0.9711424307928889
Ni 6.976992305141833 1.310087907739998 1.5242885937965647 0.27569347844741554 0.9101160117081873 0.6373839298819409
Ni 8.863052657604069 2.8590561296602126 10.804719662588267 -0.6862626578605148 1.1553324046126683 1.1318492338890636
Ni 8.183402388787142 4.914943207948871 11.962934220664891 -1.2055072256948465 -0.26207383078145186 -0.582046847872533
Ni 8.549346502421752 8.077302445815914 7.18346541116585 -0.458131759683411 -0.44481267397700164 -0.1929381523260548
Ni 3.953993064090932 6.419635839217836 2.64401095004899 -1.3196428658997015 1.3777012034950145 -0.48219857082462764
Ni 3.819867071283867 2.2210644494899974 11.437741822994544 0.18683306786958145 -0.1456203410766976 -1.4415000431185303
Ni 3.3869481226607725 5.1784901580442035 11.61329532873941 1.080567552895952 -0.9908244826028485 -0.8253266858759335
P 4.7272150747935315 0.9975603314746185 1.4473988476674802 0.5061162579824897 -0.2846781984445291 -0.4366139402162932
P 4.538289802423351 5.665688697889088 9.770117616570689 -0.3509365553521311 -0.1470349620360371 -1.804768894783769
P 7.161602308249211 8.756405185844656 12.50577003752328 -1.2866682107458938 0.09665291003905935 -0.4890024811203384
P 3.1352890433732896 5.918062348645895 6.421898339532397 0.03898640856552641 0.5384805332458081 0.15411398037000557
P 0.9013994280312635 4.375154063991509 12.436607871426746 0.6616109207501057 -0.7576400811622371 0.9355149113972663
P 5.416637340457191 7.757415711431388 3.7827761719514603 0.12041941633103778 0.383345824920772 -0.5753432106001124
P 3.6707814783657535 4.230615744060004 1.883381173459717 1.8784921926098486 -0.07712281042593169 1.9243550165802341
P 6.631455239053252 3.3141175136834082 11.495046742774772 0.4809551853358297 -0.6523616342376958 -0.27760689342004446
Ni 2.890868480268572 7.559488694577511 4.716636633002847 -0.3237772213285198 -1.1577597831072381 -0.5131322842890066
Ni 5.630841738573339 8.112251486770138 10.064313186595767 0.21406953498803133 -0.35435560833600904 -0.7705791578214084
Ni 3.145023919624214 2.443852985386989 6.400192999147949 -0.171142396607202 1.2077746815727846 1.5229767596377837
Ni 1.4828007598905752 1.9655633885362773 12.572949035788717 0.7893199287640212 1.462329835379688 0.5513327066181279
Ni 7.577761307864518 9.25282819374809 9.157686250659694 0.31646268994497756 -1.1588679285697527 0.11990828102257414
Ni 5.380064273436321 5.0051091351690635 3.3811842221465214 1.4372435818350215 -1.9242418880411376 0.8892129430069331
Ni 7.172840568630403 5.8322116906885055 6.327174003146853 1.1335201938335835 -1.4099227825328815 -1.5150330793106745
Ni 7.458864039488118 7.597639386920267 4.8617512501842866 -0.7426114689638887 0.4324538953013326 0.2927861722636441
Ni 9.086230959757055 2.171861099745096 2.7168675434434206 -0.9801240654662088 -0.15188303415695778 0.16130766990496737
Ni 0.37666361368936835 6.884784745152142 5.110268999051429 1.0484452184401105 0.12605758845342163 -0.6140174872418587
Ni 2.257229189956969 5.355314116180634 0.7578689322759745 -0.9914798567986602 -0.9615213627633568 -0.23725111531081725
Ni 1.4870139475149027 8.868323782208954 12.592915276259513 0.23434268341477058 0.26309584428806304 -1.0953868772969715
Ni 3.3204929760136133 7.49773858344915 10.21085416267117 -1.484189868677573 -1.423070118548117 0.039481345924073936
Ni 7.202954651980498 3.434675928722264 7.130276237445951 0.22250275335704905 0.8205963702797996 -1.657869172774016
Ni 3.461913165897158 0.051051027401297036 6.005406182569705 -0.5825944928458869 1.429061046024229 0.10853577751957437
Ni 5.035334580306586 6.412453003928784 5.422733470303934 -0.09532030727056487 0.04660278746020361 -0.5514998283236114
Ni 7.166121740788964 2.1306108376522848 8.942241096628628 -0.467717346489317 1.3030178557485108 1.6045421792161012
Ni 0.7108185770879982 2.6042325195800076 6.82241657610356 -0.047929219581111 0.5465373421120135 0.15948552909456404
Ni 1.6645060763758954 1.46043560091562 10.193061333084996 0.5283146484563999 -1.4915506799180185 -0.5457451852280213
Ni 5.39871737283037 1.849106799334322 6.8414186090982145 -0.112601977169148 1.3627345548828529 1.180162833392787
Ni 6.077615949582162 8.156007389080061 0.998148692918192 -0.0728429521036552 0.8052576830402003 -0.9149466003276113
Ni 3.5939232847431066 0.6197181388683126 13.160796359110272 0.2391005098147302 0.17380863058545548 0.06814014731134717
Ni 7.958275255354181 6.786860613407857 10.209564221966806 2.5538335755721695 1.3250342121186018 -0.4992732669187272
Ni 7.020822448643374 6.3767151503136175 2.55223491698558 -0.7498954042198118 0.5239594568114976 -0.6447750801396895
P 6.2441018217857716 9.100995676740105 7.3664476761470015 -0.33182580266460915 0.0554304130541626 0.2574011078961309
P 8.742252958692454 4.046330546165955 5.632378531239834 0.3978136795196439 0.047090525729899545 0.7794438073008898
P 1.2829527522035795 8.431191645961531 6.9591512187811055 1.8171420716371416 0.6289342564526911 -0.714351188566615
P 5.430306999863876 3.8587880159896604 5.22068049922588 0.6359430836703565 -0.15712011418618102 2.2739155175204453
P 0.6574744248805969 7.8057281668768725 10.902458191353507 -0.18736811443744505 0.875532360196047 -1.3529875027984182
P 2.4894092365936507 1.7347104031997693 4.5742791480751235 -0.09826447750055335 -1.1620650953508116 -0.08220228183136812
P 0.7398515230851549 1.2325429830948837 0.934142577579535 -0.14874705963113738 0.07601569340468199 -0.9565210813352882
P 9.33991311151613 2.172390068235375 8.934119110265607 -0.04362390733753777 -0.7859245299292271 -2.0889673253784022
