# total energy = -340891.19520766736 ev
CRYSTAL
PRIMVEC
9.09581937013549 0.00000000000000 0.00000000000000
0.00000000000000 9.09581937013549 0.00000000000000
0.00000000000000 0.00000000000000 13.31265106770793
PRIMCOORD
 96 1
Ni 6.210306905789693 2.152534678201192 11.521513017116536 0.9425219388427187 -1.586672498024532 -1.1614310613112384
Ni 4.594134486375356 0.18574481160053713 6.244844640371832 0.07461547062304569 0.11823552130584154 -0.671494755522721
Ni 2.862181386047678 1.5781155124348873 4.875585506206718 -0.6948717396857645 -0.6495061670667717 2.783382180032407
Ni 3.2550480032217695 4.200449245485167 4.7743290291807545 -0.31880265093206384 0.7585307112973065 0.20160534108274955
Ni 5.303772098402773 4.585866386842774 2.622592054311804 -0.6787054143385473 -0.29521560764074317 -0.4131739640257981
Ni 7.346920456495251 6.241896685411976 2.463452513484424 0.2651663536638466 -0.9721114795743774 -1.0316818829388426
Ni 5.369152845861734 4.3361770576140755 11.61818974924189 -1.0373802188752006 1.33556802177039 -0.22131027571084466
Ni 5.322182036195892 7.840359545101411 12.5488102855202 1.3386965400970428 0.37986429413007483 -0.21436006964525664
Ni 1.8894744949429056 6.716562003462308 0.3713832021179817 -0.11654244987413477 -1.892593150787605 -0.9463935059829829
Ni 2.5817572841890644 1.390632489810504 0.5102117789670843 0.23209682480338736 0.8504885298535417 0.6772324293374465
Ni 0.37521436110931633 0.2058010926449174 5.23213797533474 -0.703056589489402 0.9334711414943601 -0.5478082384046373
Ni 8.726628867605392 2.3324772668184135 1.5353615244888534 0.5152063932092159 0.6730757268565957 0.2869189148495897
Ni 6.845131405984899 0.8471554813488588 4.778376668665901 0.015784002307134105 0.37227182649479756 -0.4461838432929155
Ni 0.33052387328375926 7.5025499207443875 2.233636639336843 1.1507820662378245 -0.5410045852192426 0.9042330705648491
Ni 7.898063421267193 4.021661825889549 3.780606248119955 -0.2762280107946468 -0.28471033723404515 -0.6635518465265605
Ni 7.85049228754288 3.7320327551343766 12.681897581373741 0.40917101351399204 -0.16263358780524248 -0.16527796740662504
Ni 7.439552277881178 8.880784809165553 7.028347579884604 2.116869451105309 0.31886641429046375 1.0353670450999135
Ni 6.789137543803855 0.6406540106357248 0.3122085320089456 -0.13933296540608905 0.18348729132580013 -0.2969215345882564
Ni 1.9917478845406433 6.412052172712303 9.247699235375551 0.07758612321559541 0.1674145541336536 -0.021269450901737562
Ni 0.2886931109731015 4.946943116375093 1.4293788598752892 -1.2041142020020617 -0.6884992605005176 -0.2007872160568284
Ni 6.356394855836763 2.1278486252513287 6.8622451895608645 0.04173440362430877 -0.11357796792917213 0.6170948406156017
Ni 3.4110049169573444 4.426143804013153 0.6260715935063141 1.2414885288854618 -0.12437480143436 -0.7824273154092459
Ni 6.204139940461761 5.900285008684634 4.450911719334625 0.011902407864540792 -0.8333400430987132 1.5740033871972956
Ni 5.233561471018842 2.9720043054716445 9.239911395089747 0.667433955189786 -0.24394601083248957 0.20222446272398722
P 9.335130067418541 5.609309756707435 12.573904740746206 0.4821468916510857 -0.29322146002884986 -1.1575340402496774
P 4.001469107559153 6.055641598361738 12.53757512980772 -0.5094242393098001 -0.16714484541203473 0.3446862035670451
P 2.3600648860508877 8.387163804178037 1.561401035315997 0.21521367589480356 1.0569424572778443 0.28640649398954543
P 6.434673474733787 7.81069807912149 5.725118634659886 -2.1138442911257402 -1.460168566062311 -1.2652347234624661
P 4.490533107193728 1.2112902252517534 12.71982532772243 0.8755917526790726 -1.9650010722363709 0.40709176238746014
P 4.217594864427869 6.048437709660083 8.231638032266273 -1.643194858591293 1.162272069155295 1.204022927839836
P 4.6895951074913516 1.041616816362017 3.88901112935126 2.5792160202010157 -1.8070754314297588 0.862215845592799
P 0.20965862951154854 5.819696051744403 3.8687893043998467 0.7878711121326366 0.01753183823617626 -1.7782291966220278
Ni 1.6521372880082055 1.068167512220768 2.9670307116054015 -1.799418171994817 -1.0982742261470957 -1.4853046990083063
Ni 2.0099304268570677 6.521929667050676 5.0786160123636 0.01457892625543941 -0.5931645550522494 -1.1252222154908493
Ni 6.168356988249248 5.65364277884363 9.294799205672154 -0.5102415930047729 -0.7276221946439081 0.7012077092061214
Ni 8.665386717822257 2.120926706940774 10.224275487911742 -0.2576019110530273 0.7519844255383565 0.603912794707689
Ni 2.5479663163523876 5.111513770767824 7.03171576168539 -0.5794253510892861 -0.00933079048262264 0.08340787210369506
Ni 0.6744249676704527 0.12677206867480506 8.949802065087798 -1.2520650188497275 -1.109861930984695 1.1936994344266412
Ni 1.569929275273916 1.0572616251585403 11.622037280707545 -0.5280601092434325 0.7260355668830787 -0.6273347731760551
Ni 4.143045531348621 6.8581384272517765 1.5039563899936463 -0.08296821346311518 -0.04805571785664627 0.32777708651653226
Ni 5.5623571386797295 7.799628467316045 8.310994505722826 -0.24786900003597956 0.45420028583948874 -0.1572072745833486
Ni 5.305263812729884 3.175441394740855 4.809528029809118 0.46241778865327465 -0.8816356448803075 -0.11923388066336886
Ni 0.8204638002945577 7.563819357984725 7.0111337422988935 -0.8460101823672139 -0.08100466197884114 0.6661787426264462
Ni 5.209939628899905 4.633128262718783 7.138882701941575 0.16938890425120504 -1.726119877521298 -1.0392478682115585
Ni 8.013443886141552 7.189981194300359 9.15127536702028 1.0304228137207607 1.0889380363478343 1.1628924763481134
Ni 4.652411399142405 0.36404924320365795 10.445105602402299 0.32451332816359596 -0.5174846477204313 1.1774459486822562
Ni 8.095724665428383 7.580182736487601 4.3976747999130135 0.733384551048982 0.1277115791170768 0.06727471398725833
Ni 7.354251686663854 6.239449910082753 7.184930285972039 -0.5773712967737347 -0.3437117554689177 -1.6816773309372068
Ni 2.2896632464665325 5.321290645927253 2.588271709805384 0.3670843687565871 0.8527313031411315 1.1684357747638459
Ni 2.3775652419372313 5.066180208534178 11.368804220370052 -0.0838282474705653 1.1592420240797194 0.36893607725334526
Ni 1.2417339316714997 3.351518260254285 3.673719459091056 -0.7251097126346996 0.23638516776609614 0.7367624663822795
Ni 3.567989658247575 2.4116290843459405 2.94747379102784 0.25099006216346453 3.3750305555504454 -3.021147515975481
Ni 1.0452551439891153 2.8796635502958856 8.4576200186768 -0.38939228822516814 1.1186499615899703 -0.5763315426553106
Ni 3.7942754450149634 2.4464024006419343 7.306009281492343 -0.3245750346394668 0.7481624806891051 -0.7180610333180343
Ni 4.450766186229541 6.751899260540501 5.910217643106613 -0.5725656478549751 0.38940411529971 0.714425493447976
Ni 0.5959489694996593 7.836657546740838 11.363745125804574 0.04874014551818057 -1.5086937673562082 0.12258839895789857
P 0.2986821394733003 5.746756678640146 8.07128692833907 -0.4800966939902764 -1.1026011356572236 0.28469876726981935
P 8.50152553731681 1.4920053933205348 7.849924708433052 -0.10919680814234098 1.434205566339646 -0.37454416746874203
P 1.7839266104807794 3.0678378551694183 10.567116009795138 -1.182338500887867 0.053742483828778415 -0.47938552685586466
P 4.079383893693466 6.146081327352338 3.7750014044104097 -0.46699589494226024 -0.48551683656458317 -0.2239567121947562
P 7.0098384976636465 3.814713750460189 10.330070778652512 0.8444250972682813 0.5268115815483121 -0.45220716666885985
P 6.412516059484758 7.901046849921414 10.536031048131115 -0.5297374969458554 -1.4098564480713203 -0.3798781780871458
P 2.293119657712276 8.515069211908685 5.786076994888107 2.0258505994235754 0.4884478941684491 -0.022742950123470506
P 7.165276949712361 3.9335415307612247 1.442877964953731 -0.769662816654726 1.2778850652366252 0.972706432845899
Ni 5.57494575226949 2.8455633246109056 0.28334385977936 -0.8166209305718194 1.1653573929488381 1.260725265627887
Ni 1.72112907563706 1.090525035489288 7.11393468940256 -0.052747209795044644 -0.05923873105665926 -1.1497567102971038
Ni 6.95784679587241 0.6318474386143331 9.143794055837061 -0.3645009243001271 0.49208806202419764 0.9584797477235557
Ni 2.7498571163800807 1.38124560453259 9.49018922381213 0.36358818267787063 0.8837496058995168 -0.9565059118266364
Ni 6.11810258789995 2.23487003240243 2.548653960273909 0.7899444497218977 -0.6066067966000843 0.4481638498374217
Ni 4.1210336492046755 6.9623310346728084 10.54935733264727 0.032409526678957086 -0.2335973206083138 -0.9689742194969764
Ni 8.09505157481737 7.136252191067183 0.18305426832029784 -0.007060249280891067 1.0651144515656754 0.18480189637216562
Ni 7.6455543881274926 3.8421103574922406 8.084173884794254 0.8169564595343671 0.15484957298444943 0.23876523796249843
Ni 3.0756875470248835 8.5011617045541 12.513851414515225 -0.07638156138453298 -0.3344285303947789 -0.4502261316830891
Ni 0.09718427882933363 4.6324187888315 10.179051985088815 -0.16683039949540945 0.5362935528968182 0.07381277221609223
Ni 8.756790603634037 2.7077707615536193 5.8434816186065595 -0.4593455774858541 -1.254427091324001 0.5063813387184183
Ni 3.6535631240369306 2.703441151677372 11.5284494887376 0.0611842848188043 0.48899168248706104 -0.2106201429868502
Ni 1.3238236987579088 3.4411666529859906 12.753599013502878 -0.9488705067685657 -0.30937133031583497 0.5247886375810124
Ni 3.0832006935748413 8.429377500471448 8.11914639952783 0.6220658114676318 -0.710314556603396 -0.4317442708288177
Ni 5.8478930908544156 8.069465035779801 3.486436544486163 -1.0382564508325667 0.5925325778952053 -0.6157995188429459
Ni 3.1373117212088633 8.251572429335146 3.5564743513078083 0.6939620833873016 -0.2207603167446456 1.2977782046161261
Ni 3.1073046141043688 4.0614105552156 9.170738600661446 0.7100471618746222 0.6439731530636845 0.05208077985563934
Ni 7.32972935845721 5.908844174427383 11.575815966532886 0.2033421212681982 0.4610515044333673 -1.198974309672335
Ni 0.7079285076245888 8.941126472860981 0.28943260106330926 -1.3612613127714364 0.3031037521395683 0.11323729676030177
Ni 4.504522476919921 0.24053347775510603 1.6747977020516815 0.3633279870379485 0.3721748959056171 -0.46671435914609943
Ni 5.921087146892569 5.586233663732562 0.30951525998298596 0.5961256945631024 -0.23799802077917076 0.6110350075747669
Ni 7.7898322701800815 9.289378097507777 11.36253356270475 0.677745364418123 -0.035195316954210354 0.8459729013713753
Ni 0.03661249091149176 5.06173235301005 5.867244445921046 0.35611167179516734 -0.008481555108449909 0.7617476755727075
Ni 7.893015241684593 9.274188079664642 2.359534599799238 -0.04212881084925002 -0.08028989530000365 0.8771652678137797
P 8.711002250447004 1.765889601269439 3.7776646602334454 -0.3507087556120412 -0.811169677649261 -0.14257821181626412
P 1.9267491614825292 3.2420682694120955 1.6206684827795244 -0.3707409916725679 -0.028374180267318878 0.21635601702936286
P 4.938902412319205 0.9374696880363237 8.380420163921212 -0.6213854975711557 0.1594929852937318 -1.142854840970948
P 8.877510314301164 1.6698741351903106 12.766592391041154 -0.9024615804867232 -0.6577732921715704 -0.866507016768985
P 6.245571396315345 7.735339218145214 1.2313619691885487 0.21494216740097175 0.35978809220549 0.8858766795448485
P 1.7815889849803686 3.125150611115287 6.271802828924819 1.155073751634643 0.9705366788880898 -0.6704740275676905
P 6.922836988280655 4.199148543358479 5.812955140233297 0.6226934177493018 -0.008327546029088884 0.9734937046338847
P 2.314276532863854 8.450889112566667 10.204798610541978 0.736917246792589 -0.46660174482763517 1.1707860201635771
