# total energy = -340896.225774842 ev
CRYSTAL
PRIMVEC
9.02284754993896 0.00000000000000 0.00000000000000
0.00000000000000 9.02284754993896 0.00000000000000
0.00000000000000 0.00000000000000 13.20584943274996
PRIMCOORD
 96 1
Ni 6.518926219634304 2.0091806455852157 11.37328682759001 -0.2393550490276975 0.33769845939530224 0.658516340985182
Ni 4.474836176501209 0.4395344888727412 6.039035240088935 0.5327693417936437 -0.32699418560392074 -0.16182446164038583
Ni 2.594240132739419 1.3228126250457464 4.773875002371161 -0.48196434332663446 0.16639588306115213 -0.12553616873231285
Ni 3.4263181199371227 4.394153872837952 5.009784572391155 0.393381097669587 -0.16270557869375848 -0.3251969844941819
Ni 5.069586202028745 4.600046233304498 2.5101020784271992 0.39182352337448 -0.9215743900567741 -0.3332262825565616
Ni 7.295197894132697 6.115821478138033 2.6723888207832793 0.05604927758508411 -0.30270728803209807 -0.2557286052897144
Ni 5.212499085916278 4.3115316569305 11.559079892637156 0.42080782642197206 0.8850662678284111 -0.4860038035033307
Ni 5.504045339099811 7.87370679389487 12.318561852233222 0.3302636003838118 -0.33935836359622845 0.5022470048350706
Ni 1.953626972620032 6.4869041333336 0.3545437754578401 -0.42620611461940794 -0.07041917315351098 0.41508455078494966
Ni 2.7357544752416016 1.4563597930752545 0.40853739806478423 -0.1753716041972012 0.7110722607050269 0.18141395373653918
Ni 0.3157365077262737 8.921349634237158 4.913579361635271 0.2145565019267789 0.23089509118580234 -0.7241355216468883
Ni 8.50338426266558 2.316850727514693 1.2392700786782567 0.6421075606098555 0.2873516315116342 0.18025207221795408
Ni 6.69981626926984 0.6916238292940929 4.749642340444478 -0.18046341689781178 0.07084751894018121 -0.2955863607166006
Ni 0.7894206703749815 7.36766038358915 2.434986871762403 -0.5013926272545752 -0.044556446454136166 0.30211387742247325
Ni 7.665820384098245 3.982693974420168 3.836378574684791 -0.18177673639259662 -0.9645737764364355 -0.07298359144657754
Ni 7.634005823293431 4.095109633259411 12.662336859023863 0.11908887044507233 -0.4812745163484614 -0.7691617086485915
Ni 7.710194748828271 8.902988139274651 6.985431804694723 0.8088209749114265 -1.1686625460626712 -0.132872554492726
Ni 6.846681160426946 0.539862238718732 0.49811713179316464 -0.22760870712504672 0.482311442253408 -0.8534360425176398
Ni 1.9033065512903538 6.480903939648064 9.251490215947776 0.055724804366129845 -0.4668177174931831 -1.698235235295888
Ni 0.15148639372211456 4.871245965043092 1.2118180647109722 -0.0009672490092757536 -0.31520259228563136 0.9842236894568793
Ni 6.354502866955315 1.9054088747922036 7.10269995099875 -0.5265758113884221 0.8962731922878241 -0.26404740956805495
Ni 3.6316961780877652 4.163223110149808 0.3276042592369292 -1.5525799272161973 0.24957415565254434 0.34641732732553887
Ni 5.9266394315145146 5.44606452011747 4.850363486447896 -0.5051829475349429 0.4125633270249927 -0.3145613591572067
Ni 5.3819030504966445 3.062192080277719 9.329193175317856 -0.2333672068753787 -0.9840802219004793 -0.8774565738019533
P 0.25626691888210856 5.651090687209863 12.38061558464361 -0.3815360254055429 0.0003946643352573848 -0.15462280168562403
P 4.014165667014379 6.058797081006319 12.52285626638141 -0.3072491417665095 0.2903706208436161 0.34507186904123793
P 2.359655116754068 8.428034461961952 1.4490386544941356 0.5228510542386673 0.4317113607083533 -1.1707477107264739
P 6.212086239688389 7.819109542780313 5.785191858084923 -0.5045882513737375 -0.3470919847950603 0.688170416406189
P 4.753497803244222 1.0501151005976805 12.626918572868668 0.42361135730903815 0.2448937194577395 0.4619688740413141
P 4.1181449633032825 6.215217167822045 8.16883511759443 -1.1450155960676924 0.18089587644954006 -0.09736047762904523
P 4.612290237562052 1.0551498495849427 3.879773058160308 0.89862446612882 -0.051989762803729814 -0.817772013457127
P 0.21377562245609935 5.708097038646282 3.689542556640159 0.3656095839832736 -1.3405112247082784 -0.9108534040948444
Ni 1.4007068687859494 0.9480486480100314 2.638343812040022 -0.7802683600847143 1.0455216170354122 -0.1348430479555355
Ni 1.9842414946877382 6.456154268551183 4.6992226677906785 -1.2855515806429473e-06 -0.3118164494222178 0.18968107884133786
Ni 6.1748309017521805 5.590078191417988 9.203024892094408 -0.4533217398892773 0.41087359802739554 0.19520740797620573
Ni 8.747479360071315 2.5162917519133314 10.145381025523681 0.3389588141649646 -0.7795350814631156 0.3668033471810586
Ni 2.423112804258394 5.284907438286848 6.932463177580526 -0.6647648929980552 -0.005919707918544643 0.9719268743673971
Ni 0.7980537310040359 -0.18433767972161702 8.998254973875202 -0.042899884687319666 0.08548686611991083 0.2828892248649063
Ni 1.6714103439039347 1.0310859149092655 11.46743121994322 -0.9169299493062272 0.06456579969652751 -0.7816917227948023
Ni 4.10162412926085 6.927661218062567 1.5946989954903092 0.12555570911633862 -0.03507216111278476 -0.15447162081974042
Ni 5.6485101527827 7.870251043245907 8.039615307296625 -0.8536584429410912 0.1149203408896795 -0.43918118672283724
Ni 5.390889806753478 2.9841985852133943 4.8955138160756 -0.3078993737559988 -0.7149548835888848 -0.04538716988554764
Ni 0.7037243702740519 7.309571290435041 6.903569312559183 -0.44899405904820094 0.13623889986179763 0.13110389262807742
Ni 5.056015839167021 4.659831621816323 7.107704924588775 0.2430867481559878 -0.8198458652670203 -0.38891894813317535
Ni 8.091509313256015 7.159070191676025 9.059133931521895 0.4648166279027543 0.36753508314076055 -0.17628974513609638
Ni 4.514166769396326 0.27132244246659865 10.565617447848116 -0.21873891543924268 -0.13018472324791772 -1.439439818155392
Ni 7.961805878324309 6.932118504800394 4.951282232814793 0.8764708128499163 0.8152708443018282 -0.9953113147296084
Ni 7.279272568034995 6.075002115381092 6.94800683722274 -0.03182537204071293 -0.35755688888212617 0.8736366858352309
Ni 2.193923451166202 5.285584151860404 2.437086488409958 0.865495030564703 -0.7065538040093831 0.7566802883521291
Ni 2.189114273370125 5.428352670185579 11.444678305030713 0.359434051300181 -1.199745640620721 -0.9959268368264204
Ni 1.0386651069331008 3.3506344738705383 3.656488256568589 -0.1031536872720546 -0.2481793321875468 0.031805831656687156
Ni 3.5545688763975933 2.813441193485914 3.142015408844941 0.06764958082817382 0.12469721777078523 -1.1924773890940819
Ni 1.1096568722230251 3.2239176015101294 7.947636398378796 -0.6233907009266425 1.2080402765293452 0.6621976464915111
Ni 3.516961647403134 2.8110681845546415 7.062290225525001 0.4777695885189965 -0.11615138508330321 0.006712121912852957
Ni 4.1846613961600845 6.9192789925981115 6.025208628354023 -0.2032793863510628 0.05047409749015178 -0.527179249300376
Ni 0.8078173544433124 7.538526049488401 11.230545377807777 -1.3996555962789183 -0.18887632355185538 0.9099797432406392
P 0.3225153731637826 5.411218282503123 7.84356145990483 0.2775300174355221 0.5524120557252358 0.5109167646949265
P 8.643960229012432 1.4018617932848196 8.186041688058065 -0.2893092694586372 1.1879658743769732 -0.4488125391650142
P 1.8241581317271591 3.3586918768196865 10.296852080404795 -0.05502366453404717 0.20113431498360201 0.6119408072184881
P 4.000992309449142 5.97826816575307 3.6591030778168125 -0.5117449170231768 1.4754645729894331 0.7119423220148061
P 7.049749369579848 3.9601188096063153 10.32925854001528 -0.09971020880814442 0.20642513106889612 0.9855807177054058
P 6.250135588217573 7.7431461884366595 10.129018993599843 -0.34221023122272676 -0.01071250132149768 0.39620494027162734
P 2.2487733420148865 8.29127516016996 5.7471461186948 0.8427284262921487 1.255795432426437 -0.0862859649824385
P 7.0820511641576225 4.120635269253971 1.7070803675084925 -0.38257320842080567 -0.6519790540872965 -1.040668145597853
Ni 5.545577506820899 2.9691935895757298 0.45333042292565107 0.6910688209999066 -1.0969966449862525 0.1028274142808874
Ni 1.541409154999864 1.1790064792411186 6.916642516515534 -0.7077766206728908 -1.0417410669470575 -0.0640574926015413
Ni 6.716373194702862 0.798834207325538 9.235616320081665 -0.10161873868476694 0.010686533179568693 -0.16856692257054195
Ni 2.5772591334669688 1.6600596015634768 9.15185181166205 1.071639911389019 -0.6448069618188895 0.23065957813622856
Ni 6.410218951178152 2.0874177575360204 2.6212292746223906 -0.16205071871857898 -0.17018928866531333 0.39152604673871927
Ni 4.1473789896809325 6.537152371882099 10.328400467204009 0.7151829404392909 1.4390086441552443 0.7102317670816027
Ni 8.06380014813078 7.155524212550588 0.3933230723616995 0.18306922995177505 -0.37703685198360876 0.07768819601109847
Ni 7.703553932959767 3.907082511134763 8.149685928032303 0.19487342167555471 -0.8636237816839192 0.22945167387105644
Ni 3.0503811727072425 8.274384389373985 12.475051414975834 0.7235858197910053 0.18737094265092247 -0.07282829681563585
Ni -0.004139682500637681 5.0406769981664015 10.046614228320694 0.2167897621326718 -0.4499643933812702 0.41274279002565045
Ni 8.40839172263351 1.9816519374129278 5.85295163934754 0.8735711227046181 1.7250189311476354 -0.11767013572067477
Ni 3.735531108814309 2.512475087358472 11.261538859476675 -0.47302410341421114 0.33393693547034103 0.37801644228805864
Ni 1.1803147921499948 3.3409800268877956 12.45857028146305 -0.33886496889957773 -0.23567425774200057 0.3481980733750455
Ni 3.0216253572549054 8.53192352977438 7.793656991851698 0.6160936530445971 -0.9424363211074479 1.11027999235872
Ni 5.604785433083288 7.724901990493571 3.6550094118391767 -0.8195740996628724 0.04837247776611669 -0.06140437124941039
Ni 3.1151652188157395 8.354877213236646 3.483188226374065 0.5733704031444578 -0.6999154727572591 0.694408684006417
Ni 3.4716308608224806 4.387729605312987 9.331596861931128 -0.3885175989296986 -0.06027025764496718 -0.33174969801103504
Ni 7.37862314348077 6.384485789687701 11.41241621098259 -0.1776657995480166 -0.9676801832759012 -0.16897058576686383
Ni 0.4008309838891202 -0.005082570079793386 0.3512928434504736 0.9441077952725998 0.23716524046523024 -0.002239687963796143
Ni 4.5988822859579805 0.4209230610304018 1.6355048239757797 0.23817414134571882 -0.2710063573843913 0.35345340823671384
Ni 5.879305572756134 5.642518981944812 0.3776242197399482 0.5759052537511694 0.26454080426470566 0.1987591298832061
Ni 7.710745142534764 -0.10059392385158976 11.2442258194108 0.9796602384559128 -0.7179412199107184 0.6475359307142784
Ni 0.07952918373391597 4.628062175249747 5.632189625958042 0.2980901009750608 0.09296440544387861 1.4420965390519487
Ni 7.828484281485986 8.615727738723646 2.5506309054898937 0.4032451349478604 1.2305325440945905 1.0198486377493403
P 8.472778763445522 1.617814628878242 3.545030824149502 -0.4332519657225958 -0.36205323409058293 0.2678621553284548
P 1.9536540411629741 3.1499122051059656 1.6459505746972014 -0.37027639333132356 0.2911856605457437 -1.1747360059502607
P 4.610747330614342 1.1764891047474875 8.154401268212847 -0.12540247136792596 -0.31358125463212444 1.0049827763811015
P 8.598990356337675 1.58144353001148 12.300760676109622 0.043827024487279355 0.7254400993909249 0.42783465136176646
P 6.2454888216791495 7.64318205935086 1.4758067366097454 -0.8385431845662075 0.32129096457155637 -0.7240604454345788
P 1.7697774289561408 3.118079598605857 5.77140494687966 -0.15561370484398362 -0.02905320861221448 0.16837177584060034
P 6.907287628074686 3.8753311102634815 6.150888775519743 0.3330046534640587 0.18884469898297152 -1.127055669155162
P 2.5218137346735547 8.24025997957143 10.261499661037426 0.6018898507403891 1.5320797503803163 -0.17589250969767772
