# total energy = -340894.21904099814 ev
CRYSTAL
PRIMVEC
9.07875914698818 0.00000000000000 0.00000000000000
0.00000000000000 9.07875914698818 0.00000000000000
0.00000000000000 0.00000000000000 13.28768170665929
PRIMCOORD
 96 1
Ni 6.58499634379804 1.7449556226579905 11.279540874426457 0.061457593084848994 0.32791618319755783 1.0015860919947266
Ni 4.65649545197908 0.38184079794531595 5.901112499467499 -1.121011005622979 -0.7705102522566859 0.4851748798441322
Ni 2.8300761254984965 1.6978641001206234 4.643712559414474 -0.718694296026659 -0.5765356882463167 -0.022895416540934764
Ni 3.3020626444251655 4.316495930285541 4.874412902425276 1.2178135538660253 0.07991091469403012 -0.8579241601959805
Ni 5.118667832509201 4.831207088707264 2.6593037622673172 -0.4600675432535432 -0.45093832725876526 0.10320742332812549
Ni 7.354766155422923 6.148589481093453 2.5886791887237606 -0.4935823871815371 1.2097256346515681 -0.6839463510225124
Ni 5.048443632234181 4.654561676328327 11.66754070242563 -0.5689131387040525 -1.0414772717627094 -0.042319329593501306
Ni 5.6086938454173145 7.978903595152317 12.512863037937867 -0.2356125512661297 0.08628262254832882 -0.36346245573328373
Ni 1.8448492070957478 6.500827169816176 0.5982657004244514 -0.1256968626798932 0.6511740416874979 -1.1457211067751492
Ni 2.832055294943869 1.6937151072924805 0.3725840953466849 -0.1109220183635638 0.09672027294188504 -0.38312188183542406
Ni 0.5899640832645962 9.137226131194826 4.4810847508137694 0.2941110617226548 -0.3280233981993834 1.0875984916008044
Ni 8.454893846764348 2.1680802610571654 1.5024510772945596 0.6025984467716395 1.8777265180884177 -0.5347447203524596
Ni 6.781978176166124 0.7504275157378842 5.040774804571309 0.8282631427964381 -0.34415861319834923 -1.4440654898528613
Ni 0.9246171238279538 7.554771214512607 2.64466063199924 0.3866769461765341 -0.7033342686308209 -0.12777097160010253
Ni 7.459616742233035 4.186242976006843 3.880096330588093 0.401696816624134 -1.175551045652388 0.2450317876975006
Ni 7.690662078082938 3.8338146333467225 12.602954286365676 -0.11987254268863226 -0.6917185387687637 0.9593079000518059
Ni 8.069364349068323 8.848249234652625 6.90810574238988 -0.6169331182267568 0.1377843899720466 -0.005474135740693798
Ni 7.018044065700848 0.6815369851487587 0.3577884419286886 -1.4677085831930983 -0.1924892377140943 -0.16730991023498928
Ni 2.0127699321489847 6.50400473543948 9.261753112220328 0.5031489478240496 0.14813642263033197 -0.06398164505828335
Ni -0.0734925534875622 4.752022153374527 1.3418432925543842 0.6570168736215201 0.06124959083910097 0.18045801758117308
Ni 6.489151885840265 1.836024653421886 7.21275257683443 0.48567084564394425 0.7170441620177458 -0.30804078442986943
Ni 3.402864104755295 4.451778517007982 0.5630991277333984 0.5818853825940044 0.21049133071846973 -0.3950435729736745
Ni 5.599524298904351 5.568284289447809 4.948664440158863 1.5110617533677526 -0.2515065967885669 0.5344829820506408
Ni 5.335014657661593 2.810093777107376 9.314863851924125 0.13176955123653436 -0.6398043663979756 -0.24937720915038986
P 0.1611488787720294 5.665490561244144 12.509023630789024 0.02530068354831772 -0.7195401889667221 0.5400255091354247
P 4.062454098081838 6.301811695449178 12.747032374733426 -0.7471224694603649 -0.2903801339253128 -0.3813974429451496
P 2.5330372910320285 8.679910886688898 1.2890403227781013 -1.292621600115851 0.029903729537967855 1.3696276824582605
P 6.344309365971139 7.707957113832637 5.805029270150028 -0.1267204188484011 -0.0641899044143475 1.4689208583336444
P 4.798750525554944 0.9964301069146266 12.454105310183511 0.4341220270323749 0.1345946793901553 0.8644542480050145
P 4.1156737828927215 5.996901576995839 8.318753317323615 -0.9548866310556586 1.105587214868741 -0.9916042981916665
P 4.703677762105685 1.0669902212698255 3.7318320264806157 0.09464127892566927 0.029653304090058605 -0.2561569510763847
P 0.10423958633454515 5.6527984562687745 3.6561051904219246 1.4226214610464725 -0.39563364114918964 -1.0942512210306317
Ni 1.369812225170707 1.2396046646866283 2.4818067623013347 1.034485928046541 -0.5474207731582313 -0.39482631475654584
Ni 1.823368863482212 6.535961966850995 5.091666695594148 1.5050631125821563 -0.42478095213710715 -2.9654952167184994
Ni 5.882491057039044 5.209818572103411 9.239815199157038 0.5580396863246583 0.8941327489060535 0.7355481343592042
Ni 8.72623979347667 2.475786637259012 10.113812794729865 0.7092963997515268 -0.6259564047712897 0.9125945551556671
Ni 2.3625835922390723 5.173639717792362 7.09234008935316 0.1152378721300983 0.21626705685998238 0.23541791875682033
Ni 0.7419052847361826 9.125332957004744 9.14433026005264 0.18372743236106423 -0.3679624004861663 0.17904956726942067
Ni 1.4310302965933916 1.0131985746467487 11.370521841228792 -0.2762760904237629 0.811929438633421 0.43222506711997816
Ni 4.21213559645731 7.044953507150772 1.5474835373080253 -0.9423987830012931 0.09222829860880247 1.0876005484833335
Ni 5.506049397025667 7.932438506980686 8.239292387719596 -0.1779967005248741 -0.7773848678893321 -1.172624873144529
Ni 5.3771854928623 2.8704766027090773 5.002413416614997 -0.050074548058887954 0.17783960612171953 -0.4450708127343948
Ni 0.7568580006835595 7.428549229196045 6.811491405675373 -0.3327287740948528 -0.1780113558128934 2.1685478533162073
Ni 5.078131173914765 4.292791290735692 7.134966678251838 0.16598502077597865 0.5405219891558691 0.059279611596923715
Ni 8.489629178406524 7.154997144065255 9.113302693554914 -0.12401124744735419 -0.07066162818162024 0.1464011851067801
Ni 4.873296215077659 0.29480182826766216 10.17437719551004 -0.8429994205653482 -0.45498704340684215 0.8323946484663084
Ni 8.186507575461158 7.207181850358832 4.700849728700944 -0.430898892109387 0.8279726081392127 0.8204441609726515
Ni 7.148233468667079 6.004028402750964 7.3236786691163 0.29222875709827734 0.3804168241994351 -1.440925658672299
Ni 2.109640289865141 5.266007011082351 2.5881616994651084 0.37730244694016957 0.24737431978774815 1.4010547906192903
Ni 2.316826647263493 5.389568920034263 11.63042855169722 0.5563579277468611 -0.4285108514931846 -0.15967193407375727
Ni 0.8950240012401764 3.211747150651939 3.7484416159315725 -0.36599370679556964 0.836186768518889 0.07929282149405699
Ni 3.5890331352452214 2.9396839819846408 2.681546721630446 0.6477555029242521 -0.4599173908289241 -0.19778468178507874
Ni 1.354178602304051 3.3265117422067596 8.391994389188989 -1.2189322408515006 0.03562854783688703 -1.0484832707668976
Ni 3.6262106530378797 2.5643136155242643 6.728921909015869 -0.46304745181747353 -0.288595017000432 1.3052403173211264
Ni 4.115346947571466 6.994620867677634 6.200949407434259 -0.2214725123203218 0.1934181772862669 0.2563109601557456
Ni 0.8556176481317436 7.3798598450881014 11.415327332269165 -0.22920896173263106 0.5369898076328945 -0.21363347589187726
P 0.2882796478568574 5.3858738651523055 8.056546957219807 0.21380548269336727 1.1163408538408193 0.14796724404231934
P 8.802129139320098 1.5544832604382184 8.028403712432148 -1.2472028056614197 1.1767610068000895 -0.26235228125381915
P 1.9846984095568236 3.223767427466952 10.471278032840868 -2.4038588141815183 -0.21106314406153975 1.8581419110882706
P 3.8300651059112236 6.185930416546739 3.954732807700045 -0.7108215781468016 1.145410517513266 -1.2209433577442583
P 6.9387683427788724 3.77988680533979 10.56934043160371 -0.2000253981901394 0.25824057307829074 -0.9387200485981252
P 6.599386176692145 7.590659548538096 10.100950009086729 -0.5592622458778497 -0.3816949195809104 0.94608754470679
P 2.338960661519537 8.55333482977431 5.743932854096921 0.8522332804587903 0.34735937952383406 0.4297946033016147
P 6.9344105384954835 4.03611661844411 1.6395140086419437 -0.6774419742450914 -0.7538713581484242 -0.47105566683393074
Ni 5.326407994201901 3.0592149219744176 0.22677377977629062 0.5471214967502577 -1.048456788404336 0.4564785403507042
Ni 1.448942687949903 1.196371614691845 6.719913056535855 0.0018308825611516855 0.45232518030396296 0.6661689724344334
Ni 7.188061984065466 0.4203892083354567 9.21811605745344 0.37832934554278713 0.7213931830150608 -0.4877894346488438
Ni 2.8574485836535306 1.6770465059085196 9.202303583035985 0.37684736168062194 -0.6245278998548792 -0.026227309127645152
Ni 6.394006492319615 1.866356786986055 2.689585962657406 -0.2295390913785402 0.7397948254507001 -0.29703080647261104
Ni 4.478370201895576 6.75392481109181 10.560092807764004 -0.6476308044209298 1.0909375832763664 -0.4645975699134128
Ni 7.835994850933945 7.187435549699728 0.06233566664619529 1.1991835974696639 0.38918942818574265 0.4834663817934577
Ni 7.735329571987671 3.8445184901177956 8.38645362261784 0.257487239852034 -0.4319155062993593 -0.7699425526786741
Ni 2.9453763638298174 8.418170266917876 12.471817968843702 1.306075411627912 -0.2917934693330717 0.183505031937613
Ni 0.20797802517650063 5.0352703530358545 10.291574894456419 -0.16454391745407793 -0.8843998378890059 0.2918832008334005
Ni 8.530792271366698 2.436303114699727 5.7750121695205126 0.42647865155450415 0.4389258761789215 0.1483642223704219
Ni 3.8225478935223784 2.4987286610592676 11.338086159221996 0.11381116698590076 0.43337846399813107 0.3854921818398135
Ni 1.0181374195012556 3.4381169256561237 12.651307756393443 0.5746220161633717 -0.31090807867533554 -0.31307397597840275
Ni 2.9772064926164004 8.671594743514765 8.0978979804897 0.4175137290517325 -1.1889099834577979 -0.855511951210062
Ni 5.660470007559323 7.786924158951206 3.728974941047319 -0.6432912965053115 0.4498476652977479 -0.5555881394603721
Ni 3.0700004875758045 8.472016386094495 3.5339123583157113 0.5481581655448882 -0.26056742143925443 0.18602959813167963
Ni 3.4318162669630574 4.3171586796869725 9.525752527211573 1.168058336819769 0.6142874530737936 -0.5335571278022617
Ni 7.0824306239879125 5.834954675314415 11.446992227643337 0.5117809124674347 1.4616286955476052 -0.6611586637040354
Ni 0.38760127048242016 9.090833673094586 0.43319207416969513 1.2288068196527353 -0.8954293562302902 -0.12294552518700115
Ni 4.693255346861247 0.41171536205972886 1.3924029010006145 -0.2723086211355827 0.263805725870894 0.39032354179018586
Ni 5.952451973305276 5.764004174325495 0.5598316823967495 0.26098985368865374 -0.7664054860596929 -0.8793602185825695
Ni 7.9660389937573965 8.762427726546644 11.419287486911694 0.32779894089340317 0.0285227900300412 0.2390647714807883
Ni 0.08295715966554659 5.073764290872453 5.787303901227346 -0.796139522789016 -1.1234887777395102 0.5653213075877361
Ni 8.108530115065276 8.810463440012077 2.5238359688628322 -1.3711014387903095 -0.014697454111174688 -0.15678175701015581
P 8.38567738872986 1.5538023535189387 3.630354198610668 -0.024955127283440893 1.0132213622408097 0.7381590896194901
P 1.8116663432295292 3.36951782322845 1.5568110542262616 -1.1138147449848559 -1.0841478140480425 -0.3754702788274372
P 4.711639833681793 0.9907468038283742 8.071336255506555 0.029526805814523344 0.7532229259311479 0.2817222011399987
P 8.648425750741415 1.6108532745956332 12.574292644443474 -0.026018535550948737 0.6048551040163003 -1.47225172247909
P 6.287558043938928 7.946347165651835 1.4708134181971593 0.7901565657327038 -0.8198893169104461 0.49838777898998043
P 1.7320728637452232 3.422274491334222 5.831444827114502 -1.3976100266037994 -1.5558233738541591 1.0531701347196056
P 6.971288457243658 4.089054861728356 6.069945639792569 0.08497881613524075 -0.4457943211639806 0.4043082861050521
P 2.571304259895533 8.426086944699366 10.352126584974101 -0.07896089207593497 0.15950995457459627 -1.423629847706329
