# total energy = -340855.755331121 ev
CRYSTAL
PRIMVEC
9.34933639827282 0.00000000000000 0.00000000000000

0.00000000000000 9.34933639827282 0.00000000000000

0.00000000000000 0.00000000000000 13.68369886427758

PRIMCOORD
 96 1
Ni 0.3154624981492997 8.110605272393105 0.4691581062418371 0.5785174945630359 -0.6605487980341785 -0.5829163949616799
Ni 8.763619010460125 3.403625853209902 7.8125708719033815 0.09948318039900286 -0.17985226567637413 -0.08318495745961157
Ni 4.161230615641322 4.864506385261306 0.023226555987170338 0.9285140545994008 -1.2374554964666689 -0.23190707739008448
Ni 7.132646004442377 5.653450122723515 7.06141808640178 2.5135600727641036 0.693155014104974 0.9499480561034607
Ni 4.347198262520042 6.401929932997998 4.496450131104186 0.0656052967046354 0.3591530297246524 -0.1357881854776242
Ni -0.036378267256804646 4.634681002144685 5.711959203761761 -0.5837759147484978 3.63646135343126 -0.2804284220292396
Ni 9.06992196390845 5.899019788045343 10.286446374480208 -1.3331930937803105 -0.7726980039366241 1.2195055968564674
Ni 6.825754042811791 3.7999629145181686 9.120198954399376 -0.020465981163835724 -0.25662566318268704 -0.4270715479434968
Ni 7.423223374357949 3.0623096355938224 5.930104461130777 0.049015767777070424 1.04557689575338 1.8832991270801889
Ni 6.725426315766617 0.947863754638043 6.006090256376975 -2.3955261259461067 -1.458384991799327 0.5086117707108337
Ni 1.9185305403322017 1.4407046644748973 10.6735453566632 0.6925037536742202 -0.09648861654705318 -0.20784720822740332
Ni 5.321660878722106 7.769447993492872 2.206934189575142 0.40629446329714547 -0.48843580998359104 0.17558089199452986
Ni 5.64952340150844 6.307632527818832 10.93984343533251 -0.4150426418034206 0.13394521873161447 1.9898209594935277
Ni 1.8607983891343687 6.695012925022237 4.1698740769826 0.5620786322807223 -0.8550743494520111 -0.24615484555835027
Ni 2.7801747162906634 7.766203773822323 1.3913719569428347 1.8629912687607724 1.1707358836519322 -0.46795748752458116
Ni 1.422997021662153 3.832844530026311 9.047415306810711 0.2931702950759402 3.7527945155080658 1.9632537505279608
Ni 3.7257665822256985 4.203863588833568 5.478036006577121 -0.492498667199055 0.624791437928911 -1.1410447843454026
Ni 1.7237838667369203 7.039620108989999 6.659473293224937 0.8710164746035645 -1.238103414463313 -0.9999655256721682
Ni 8.932327782664968 6.514383749128774 3.8775493161263204 -1.1668437476863776 -0.1673849864472988 0.7731469185485845
Ni 5.729067554122395 9.134226698473421 0.11406377182895605 0.250617252205078 0.4486258770755048 0.667114109956522
Ni 8.925586911245754 -0.020385292707976573 11.89336447332113 -1.4501497483737285 0.019267589980360364 0.008100003399315082
Ni 5.744082588101945 3.439190728215013 1.1430965937170958 0.2777462472113862 0.5225013842087324 -0.25632767232629405
Ni 7.35432811570583 7.280674044914489 12.807176075555489 0.1969722131861124 0.8020430327576445 0.5572830106642919
Ni 1.140216998159374 1.7627051534472975 8.332620220026216 0.25938419976443067 -2.472118260679549 -1.6065949479800719
P 1.2425080858120852 6.525331821849852 1.9906223370401162 -2.6786747751199864 0.6956536121571116 0.9891044145879481
P 4.293448928554642 1.945166799241129 7.284051960093077 0.7253279992930928 0.8526773099747443 -2.5579481119611756
P 1.5500451516422913 4.293645264615396 4.2429727972020945 1.2503068985080403 -0.7774715140658675 0.41514111505449797
P 3.6513178178551158 4.299030482281785 11.199094919288008 -1.0734319702924353 0.5736848490610829 -0.10588419882934022
P 3.5406310262711247 5.9138665339728185 6.801933803974246 0.9249512769488071 0.04765462576348567 0.5963272690509472
P 7.052484795637483 1.5399104711729066 8.465597699041119 0.9099404053622715 -0.14117336104893752 -2.1977540425665185
P 4.600640068944473 1.779085190515897 2.7691013624641507 0.4042987730233554 -0.7632052339548404 0.8629676361571589
P 7.869953357926348 7.640399105560291 10.009146931873328 -1.1409720221259383 0.7272205883301154 -0.6097533126488661
Ni 6.36978691505174 0.07003961740622625 3.6959393948627106 -1.6087400193475325 0.6746644114999542 -0.6894947916445674
Ni 8.799137138784104 5.4081983348333855 12.741302522371733 -1.8922409096545092 -1.3972855533848452 0.7712214193910976
Ni 2.2843420188613703 5.829395281167567 0.1551279264024172 -3.168564543941285 1.3784447665292583 -1.541350634159281
Ni 2.5013027153305063 3.4394805576380305 7.249226617583472 1.2216761221452248 -1.0385739820729856 -1.5177360800641344
Ni 0.5844989973993152 8.740124128523258 2.7241506888213878 0.014750418836297177 -0.6912644819504804 0.19162637549316677
Ni 3.3627879525731195 2.890235102347488 1.382012336446616 0.16724588976627325 -2.210195867874297 -1.6597334796762642
Ni 2.758717989651145 8.770350532543112 4.8075623831073555 -0.2995787697054454 0.3194030035202241 0.4206764430504304
Ni 8.92374509200916 0.9319231363720826 0.7016237419087847 -0.2577685185378787 0.7429169160194495 -0.23657877183414094
Ni 7.180972723396483 8.176275010047126 7.469657787659837 0.22465913757841954 -1.0485408634777102 0.07690400954690627
Ni 4.45608998154857 3.978853113873527 3.148646080976234 0.32607475911344486 -0.16101199304141947 1.908649690029835
Ni 3.863332715460502 8.945014831924151 11.814615014286419 0.9257125805948637 0.6329657462095873 1.0429047482378555
Ni 9.302168825107701 4.364027067727507 2.648069530345681 -0.3838950125560227 -0.05741324781214629 0.036962693267278274
Ni 2.694506748448437 1.9611635135244478 4.461583651515185 0.7061442272757903 1.3561800415937868 1.167007012737119
Ni 5.34560452879784 2.5195432703081537 5.056044366663698 -1.7530149021399295 -0.637052000463819 -0.4653491033674566
Ni 8.879644273029374 0.11935269133221342 9.306980928463414 -0.27953187835689924 0.6846827149679047 0.9545379894669883
Ni 2.3474780863980453 4.720657498082381 2.0736958640795247 -0.3915813254566869 0.048004038683104426 2.2490591205983974
Ni 6.3105214727127805 8.810861206411971 11.224218455595508 -0.20588699917723893 -0.4246117735490946 -0.9402094886594583
Ni 5.366145020487174 4.2732076156245515 7.382889402943768 -1.6985206277467908 -0.3512247760165112 -0.751465576920409
Ni 8.130257577140934 6.593628722983483 1.7466831959561675 1.7488499721289623 2.69964366406217 -1.684110880079364
Ni 4.4680945292632295 2.8506126154201326 9.162344827174229 0.4814863752489515 0.7802789016076755 1.6880328408415897
Ni 0.57864350812074 2.405827293786819 12.395925888032542 -2.518349266622631 -1.3451965459990898 0.5339294235400159
Ni 4.780063180464734 2.1180921220840636 13.09900812639264 2.3103300515937373 -1.2988259291543502 -0.1346579285279229
Ni 4.861757680410753 7.144313976052887 13.047625109426134 -0.6109095377404963 -0.6783560014189285 0.607843754330979
Ni 1.2755205920273966 2.1744218728479416 2.672098259381074 -1.0008083332884377 0.42093612446972023 -1.0587111191424927
P 7.526711177047636 8.708691660130203 1.8855040101125506 -0.19927335051546324 1.071009991114504 -0.5451692581198934
P 7.847973068458153 4.678323703649379 0.9852956920875595 0.18934837809226743 -2.385961879296439 -2.2390529013153055
P 6.52835165745097 6.831382343220065 4.516906478767482 0.8786601071917514 1.1896316921151704 -0.36419573435488245
P 0.6919948605292465 6.994051444222672 12.381092231175783 1.0194490883180765 -0.42043990155959204 -0.7839118703745726
P 2.0772822694559596 8.450378849531834 9.179121276098826 -2.247729860264013 1.3672928636774968 -0.6165646791437446
P 7.258787248808558 4.8796149126031185 10.894988124919257 0.7641357161889099 0.4939176590337687 1.2144016999709988
P 2.6783884927941757 0.15157143890190616 -0.09688062677851111 0.09509353597173946 0.07910281697043797 0.15633489928072433
P 4.498283535938177 5.804554094814103 2.11845581126327 -0.5214626585315729 0.4797544801595093 -1.22283800366381
Ni 0.16428560123614638 8.31296230567665 7.4898411347053235 0.7271362561464251 -1.4146551550115443 0.8009269168753304
Ni 3.5370595798326514 5.018910673039802 8.977272846705995 0.31797809814823946 1.009934463959422 0.18267019474114346
Ni 2.820189875339526 2.7023508415423616 12.598280116515218 -1.1849186029102174 0.41962357630588376 -0.2432088755561489
Ni 7.216135576943859 2.935691575080097 12.670694465322944 2.5101556750682446 -0.2159101877411959 2.3322731315237317
Ni 6.644704146788141 5.222183941273533 2.548205530377335 -2.1322922134182822 -0.6473724085532206 3.1657047058949863
Ni 2.8839897457482726 6.339607257713018 11.68663101575002 0.23510964348778218 0.23785352478150648 -1.3982556306075984
Ni 3.8915209641830075 7.731639277793434 9.765289130014548 1.0771531278977644 -0.3179678137355943 0.015730009140747105
Ni 1.1768944441754223 4.450648667864823 11.753147803266149 2.270343998119103 0.3758042651280883 -1.359991444920077
Ni 4.1098092663962875 8.139634961375982 6.47177321434347 0.7558444227143951 -1.4082335677559166 1.0033876639798398
Ni 2.8595318821800895 0.29751364246191514 2.7787620315868584 1.1054170078394638 0.9378515299502429 -1.5240000586959754
Ni 6.878054229662103 1.605486715464664 1.8567959382958596 -0.03498628626719781 -0.6539924849728995 0.5599531012972873
Ni 3.3897140409050643 0.8756158240151483 8.867925815003241 -1.5698474560473932 -1.8976939623492803 0.22697210198231232
Ni 8.706326278064932 0.9631031726870256 3.89986805156591 -0.4451353474237431 1.394394090769663 -1.5908381993664473
Ni 5.6401927639545235 6.4247329640541135 8.830363921780178 0.3858688484529419 0.3042358088614825 -2.946345383262926
Ni 8.761693047197493 0.8327977339656202 6.695200846680386 1.2879038829252079 2.0549310617292993 0.6310212208887068
Ni 0.12938920377122132 2.685166761558294 5.096370858608898 2.43277806831903 -2.8476628443883474 -1.1636275547419248
Ni 7.967027515964745 8.586047067512686 4.993277597907964 -2.324908206518228 -3.4769809665430182 1.7502990458706633
Ni 7.494792543170809 1.8066283350387824 10.454208993858941 0.25861749680173524 0.2255443683968503 1.7969411712092342
Ni 6.355613321332562 5.040638530429884 13.052962645477768 0.4395213436710753 1.547575274912754 0.2360336979639483
Ni 6.232931331370138 4.865086044107341 5.200065281629187 -0.8661917995214113 -0.24923297026304175 -1.8919256924069354
Ni 5.451943879036569 9.43768745370893 8.04530296365278 -0.5303972420170414 0.6781179172661934 0.5379262034042348
Ni 1.6289442000566254 8.63293398868793 11.460097533918704 0.7142267471736087 -0.8473630968506827 -0.6167122604652024
Ni 5.66549206778308 3.5715025344905977 11.318183959338638 -2.4738748383593396 -0.6906631009210558 -1.7036474074503951
Ni 1.4723615169373854 6.388625827547874 9.216244685452873 1.7987234599206374 0.3379861658390502 -1.9993055019451953
P 7.13034606773069 0.8721229120009765 12.640576513603317 0.545320438985777 0.08309265485612143 1.044419385110169
P 0.5973468552415926 8.584831653803256 4.9847388491324205 1.9218507621011418 -1.434357518536478 0.21379982626641242
P 0.22229168798541213 2.647797464661494 10.115359131139378 -1.8353655366237034 -1.1365870056843652 2.019431069050477
P 1.260000693891623 3.3015778482990767 0.6014063370310823 0.12738042102990318 -0.34365236298589197 0.5644648731247117
P 9.40758259106002 5.515575461393241 7.53390268647296 0.3219962181686971 1.5154061463793773 2.2565816542276877
P 7.185039684654953 2.7580915841239775 3.870857996189107 0.4798154153044317 -0.10418084298498832 -1.2217121175894832
P 4.827024896329789 0.999397295917793 10.504646792932963 0.36842905570993967 0.6929958628192904 0.002300623108718618
P 1.6657057900987113 0.9622430337541996 6.144979320687811 -0.0911342942136753 1.0573620613137662 0.32909606243827194
