# total energy = -340894.62080279493 ev
CRYSTAL
PRIMVEC
9.04372392993409 0.00000000000000 0.00000000000000

0.00000000000000 9.04372392993409 0.00000000000000

0.00000000000000 0.00000000000000 13.23640412508530

PRIMCOORD
 96 1
Ni 6.429065601599238 1.896495988606016 11.3071181206984 -1.0937285157579422 -0.07986180662364956 0.509812218776838
Ni 4.8206302999127155 0.12539575080002058 6.137495045516316 -1.5629715548631662 0.017617713081763204 -0.6292826409310452
Ni 2.8136200078357647 1.4430346391513384 4.72096213426115 -0.4367869754590477 0.5165760198632329 0.6649551546319903
Ni 3.840209258588607 4.338337559339762 5.0911977121019465 -1.749255177987181 0.5563381302525192 -0.5832732640804664
Ni 5.232933662861974 4.545312219670025 2.682966236083371 -0.43815403100990347 -0.1491700061011689 -0.5956233010053871
Ni 7.2385240903198635 6.178427843301898 2.524909981555451 -0.041653928095360525 -0.3203910784651063 -0.757072124473909
Ni 5.184893402629764 4.482349815352133 11.638147347605708 -0.38273415947870215 0.070483193622227 -0.5193718374408152
Ni 5.548659100543956 8.008298719496262 12.319266353465775 -0.19587743746003686 -0.4074571161466789 0.8581748427542059
Ni 1.9147010043905488 6.573738049440854 0.3285729515535702 0.7700050304854933 -0.2785525451627654 0.16099630931213563
Ni 2.891414119002458 1.6928403748693557 0.22252263009517625 -0.24179039794206747 0.6948923085110549 1.231245253890899
Ni 0.6322331574630008 -0.09098347779369853 4.878673822916547 0.4609556022854513 0.015773975004805093 0.3917253072337189
Ni 8.525084222216364 2.4755113540252593 1.4773808929747358 1.4190733386838978 -1.6292378821905682 -0.26585309531822604
Ni 6.845348202971344 0.5615030988692336 5.012639406283593 0.5704365173271144 0.7204598725675141 -1.6065332415042008
Ni 0.4522838566304619 7.211881280334153 2.204390465946305 0.23121493641906632 -0.41213498123832243 0.7249443907014289
Ni 7.677596875386468 4.007545277993085 3.598038234408247 0.9150913534355918 -0.41349612325190727 0.9998043175039556
Ni 7.540141319048109 3.7513818045221976 12.501160959263665 0.8958903550271087 0.3659561686894149 0.7815387421567056
Ni 7.7814821293938845 8.72861322382139 7.033348226631201 1.6299660186058447 0.5028890092944436 0.617621402543033
Ni 6.712360246135002 0.7851670468938722 0.3754610413878919 0.784668546034939 -0.18421414218949564 -0.4975835379211301
Ni 1.6423492655176184 6.760382418919836 9.10614256481679 1.031820722509552 -0.8607626580860401 -0.2811807268142319
Ni 0.07501407050491152 4.864392878840364 1.3709869100161869 0.2002133458312294 0.08771549834011344 0.831132236814117
Ni 6.151052491697436 2.01427240219865 6.912050187034346 1.8743108075386494 0.8706439217554941 -0.29668113644267613
Ni 3.373308935733127 4.168008067394459 0.2368605496305953 -0.680346549486396 0.7880775717164878 0.3904412983149727
Ni 6.016626582794656 5.643292625218249 4.79312652743188 0.08972455835034225 0.7453250112403098 0.03414116465808314
Ni 5.399338178726557 2.9042381191924567 9.206488105372612 -0.6156200558422881 0.16936987808781154 0.3190474199530183
P 0.32777800824136927 5.539597289408287 12.597667439113806 -0.7587063176432224 0.07001833817066651 -1.662134632918589
P 4.001069971832267 6.193729823782488 12.661347915092547 0.22279251668332598 -0.18959674665764767 -0.35696116427965624
P 2.2596648007567803 8.247306249130459 1.7648890083768762 1.3483939698904648 0.678932956968321 -0.5076648334165321
P 6.3892370424759966 7.596483717626171 5.913178140641383 -0.352372002247077 -0.6883120841903758 -1.1028852425565459
P 4.766205170756572 1.0804536690403128 12.442563960370112 -0.403704333972466 0.18579665618526714 0.9863296800562885
P 4.0624497245047095 6.099231954963519 8.203155694456582 -0.8636566918043836 0.22631852755871346 1.0568131307888315
P 4.836086023696009 0.9771833882437 3.8518331566451702 0.30694163782841977 -0.5789178153252481 -0.5170056512014838
P 0.4712467364600737 5.49461380778272 3.569897783779756 -0.6738228894352654 0.393204977103039 0.3766486154062546
Ni 1.2754273080362122 1.0118118062461723 2.671278127588622 0.8816639270150816 0.24941757547002208 -0.12963347873013803
Ni 1.9352393008866615 6.498141563130416 4.882882771921078 0.46069952041058726 -0.07568479242782448 -0.6620703768850275
Ni 5.954460026161332 5.539841469947871 9.408025679021474 -0.8816775538618363 0.4786717886182918 -0.8272143898169495
Ni 8.52304034066281 2.370197191675092 10.422966613663796 1.3410015340811356 0.468740902657825 -1.36907849482301
Ni 2.0174738803843058 5.227163767148843 7.10107938644993 1.0975458326215033 -0.25481972032219985 0.0871835370960434
Ni 0.5434283127058119 0.305480707487884 9.245098474915038 0.057632820022120106 -1.598447379172273 1.0745210895915558
Ni 1.4371290875828833 1.2666006337164388 11.447808617000058 0.37297476609909314 -0.3519392855850326 -0.09696941283821364
Ni 4.167745799407499 6.938778912395095 1.554430705681882 -0.08869508864456338 -0.5397388311329415 0.10076076155984581
Ni 5.708543091629281 7.87080698826315 8.030235175674585 -1.5483409494341849 -0.9375599668517531 0.6984805400829455
Ni 5.521609322992274 2.8671678957941453 4.5495238817916634 0.25040127953953006 0.0030863522348075875 0.32953752085106475
Ni 0.7934592371436678 7.314952599209624 6.828289931350486 -0.6713829125352051 0.9778337267701354 0.1433801388922692
Ni 4.988020581659323 4.4133371598867726 7.205660102808977 0.8141015065840753 0.11194197498764594 -0.048873585772251316
Ni 8.174739410255597 7.30957158361509 9.160716915413795 -0.5417818297048992 0.06479077122314003 0.15604642150602802
Ni 4.545475006696416 0.2997551260208259 10.289292238199511 -0.3430916053864156 0.8695835988117797 0.3097181721322924
Ni 8.094973767324857 7.229218098644611 4.505446581279663 0.27560683227088023 -0.269882013971961 0.5505449206095099
Ni 7.025544397460574 5.93079260126907 7.260763511241744 0.21113513495005573 0.0711809910202 -1.2593119302201279
Ni 2.5571580914831644 5.160204036960725 2.532256198307451 -0.6233559910339651 -0.5033929455140557 0.17084543419207351
Ni 2.457243032174908 5.402711487662291 11.298700222689336 -0.5734881596692446 -1.0195627310778053 0.41175522930140057
Ni 1.205772548188983 3.3617962754779303 3.8612042631309786 -0.3150555251848058 -0.2141878057334505 0.6481841058212384
Ni 3.79935875868859 2.45432190942359 2.5535406020078475 -0.6544411424745439 0.7107809547168532 -0.26437136856637694
Ni 0.8363545229696082 3.214166529990243 8.114510923608677 1.4578738564908633 1.6276983056175904 0.5215691022024501
Ni 3.7799871025482674 2.437699545284508 6.708209176962075 -0.213570998085058 -0.23982838911969018 0.7755719830503094
Ni 4.114225042620184 6.727164821812737 6.142684334168659 0.16940793041459856 0.30772736695450875 -0.32970207145338704
Ni 0.7038332222755819 7.25808566465764 11.198248870566363 -0.7667865235481954 0.6121385250515909 1.49300566719699
P -0.029146112702629283 5.638870244334674 8.05816400316877 0.7667790673490278 -0.8710270161265257 0.09686168361575576
P 8.588326981968594 1.5920932929817766 7.981247133199841 -2.6013380489110363 -0.1381934524850072 -0.07744985474804726
P 1.6685941516610434 3.3161073834046766 10.351079862810295 0.5089313588337816 -0.22250815267368776 0.24676985343452984
P 4.0349568044923 6.202719285128651 3.7983974108605243 0.25278623483193885 -0.4005465050697747 0.03946849040826751
P 6.993502484432953 3.9073136883557384 10.400702774687955 -0.5996915575374898 0.8497958746618912 -0.170004683458333
P 6.228502941363973 7.842852838342638 10.258226142957858 0.7720976513484638 -1.0525677252489165 -0.3795125672176109
P 2.6306293027268532 8.466535155058358 6.078341857615933 -1.248089322031431 0.012356207572507752 -1.9278864267722602
P 7.0628407139510925 3.9761092944525798 1.492682873455327 -2.2631294826485346 1.516395249765524 -0.3993959364050993
Ni 5.308340230974958 2.9112831799456362 0.45369196440872905 0.18891694698180367 -0.10679102691432575 -0.14868458182431812
Ni 1.4950903127011503 1.0658209241126555 7.130979745708164 0.40096122400969014 0.16262587449575863 -1.4496193297915552
Ni 6.769073437384285 0.6016988331742187 9.138439510852423 1.031371036566643 1.4582422955738756 0.011799049517457099
Ni 2.760650918193436 1.6516552571928713 9.264436669277716 -0.26435568483709315 0.514368727799269 -0.46605667095744246
Ni 6.504246076620013 2.0241119735715123 2.4216532663443706 -1.2153787191722876 -0.724316784419759 1.6690403588994869
Ni 4.102079321706807 7.066675252794928 10.494111779174855 -0.3280894755506285 -1.3941529212931345 -0.7253022882614798
Ni 8.056357067175849 7.262300039896385 0.1191709557853688 0.6272640678391197 0.3498813746147394 -0.045061668225328845
Ni 7.537482464283751 3.7525755760490527 8.223552908863157 0.11980775088896785 -0.292625992536696 -0.12703897853008445
Ni 3.0738622006900718 8.584456268230005 12.606999657587753 0.2506635320619812 -1.0460556351620114 -0.7795268539329994
Ni 0.14717303744142907 5.007256581944322 10.334957616591176 -0.2651488701623498 -1.1052043776080256 -0.34170372389995346
Ni 8.580467986083468 2.3447119783214836 5.9056067351695445 0.28620363395012005 0.4455894042420261 -0.33835794735617214
Ni 3.710431823661609 2.6370593902692296 11.279665897442587 -0.17853586085779574 0.5205172638991681 -0.041735432065573286
Ni 0.9926933743691219 3.2459280875835264 12.952138902193537 0.4354235194526178 0.9832363858429454 -1.9528222707819918
Ni 3.043294414623643 8.556764386296452 8.158270789419218 1.3070547448220458 -0.8267243375544086 0.7151973386169941
Ni 5.7692445650251 7.875989041936541 3.51521852598797 -0.5417741163954153 0.12683123339465255 0.180775805931908
Ni 3.2949902885925133 8.362749382011513 3.7723614347342993 -0.15105796715250114 -0.555815939200462 -0.06248860545252464
Ni 3.3168127938523635 4.254655984051991 9.18448924750084 -0.0025083682441505183 0.12457971835631448 0.013813508844324598
Ni 7.21868216054775 6.136745320822556 11.304669984695979 0.598538417769653 0.014216400709698098 0.5793852418799699
Ni 0.820222328654432 0.04767941565704724 0.3864835318191828 -0.8800176496609102 0.016146527852875417 -0.5916393766569746
Ni 4.517755993591798 0.257964078857226 1.6258806446812375 -0.042407775542249546 0.5992462424699551 -0.03922603538015825
Ni 6.104902369716078 5.749583509726753 0.26111852967970245 -0.4365504339682094 -0.2295923132139788 0.7237511417242761
Ni 7.868681713196402 8.89603968046275 11.320818457713791 0.7139984332128865 -0.18382127762645115 0.3616701397195513
Ni -0.0628620189849528 4.984900496986863 5.734407237005429 0.039003377846390894 -0.3395540245468023 -0.12874310570538472
Ni 7.955655203906711 8.917382868367119 2.529092703761286 -0.3358678339444668 -0.029277923028510865 -0.30616593600465986
P 8.53352201641754 1.5039260307446123 3.8178947747601146 -0.5535939918484788 0.8877319875860324 -0.14668580622673447
P 1.6382795898578866 3.046079881519637 1.721605746804708 2.3073838244812195 -0.022716724871225395 0.16836663363427778
P 4.730600030595764 1.092979226348598 8.190408565917934 -0.4123067309294964 -0.6457623837536233 0.4477272765206354
P 8.549710281819584 1.6320665516840298 12.507038475288686 -0.6836563305859193 -0.5867601941878023 0.5955500245652904
P 6.297443247039827 7.834252257115072 1.2792003495589679 0.09355524495034209 -0.24385473667026392 0.759299471142531
P 1.914456823850965 3.259394192155394 6.077984630530244 -0.5972425817763649 -0.09456543138241133 -0.7262394553637687
P 6.942504926554672 3.9951644202638126 5.828888827121759 -0.3576815873854485 -0.5787316674563711 1.220292097313505
P 2.2884419295329272 8.45121508713039 10.367069166291197 0.8289866512260239 1.0765723156936298 0.3014340777466293
