# total energy = -340889.6659341527 ev
CRYSTAL
PRIMVEC
9.11519493644528 0.00000000000000 0.00000000000000
0.00000000000000 9.11519493644528 0.00000000000000
0.00000000000000 0.00000000000000 13.34100916750879
PRIMCOORD
 96 1
Ni 6.190147081024077 2.019170626720596 11.762581103776215 0.9025690525988649 0.6905296606669848 -0.9768119703738404
Ni 4.650180480125224 0.7389934608582226 5.942551953713085 -0.6255532557956001 -1.8766080882132583 -0.22457840493915515
Ni 2.6755922716176337 1.7084609784632394 4.783152031678998 -0.5163479630128269 -1.1919654824546697 1.421765026583448
Ni 3.3751743643246455 4.524955932709506 5.107672111716059 -0.14752090053352016 -0.4035554670994276 -0.7049882592944762
Ni 5.293284825286174 4.414425079458451 2.4802135382410535 -0.2963659191951025 0.053060884380721526 -0.14920651576605917
Ni 7.248539705429467 5.825448133425965 2.783188032113713 1.4767694078437856 0.434928067873438 -0.9788824797496238
Ni 4.963405922172561 4.6898042323174005 11.247298225055493 0.3584297784053827 -0.702488375690758 0.4576363081042312
Ni 5.758487911754989 7.768862375405549 12.655934921000483 -0.9534583832495643 -0.32054483043415116 0.36356992784542547
Ni 1.8658348182603253 6.444242253812004 0.3893537267399113 0.6900817744962889 0.4170843548237978 -0.1045305130149232
Ni 2.6144566594821543 1.5682783962310132 0.4191996093722657 1.0526993657307742 -0.8978582773867569 0.8281633839937801
Ni 0.27017802265401375 8.889730545595429 5.000037155881947 1.043809776550628 0.6039534181376373 -0.5114109307225256
Ni 8.899593186467738 2.124569625247889 1.5278388340960714 0.23431748660378998 0.7843127053574169 -0.6763759948744223
Ni 6.818867648646666 0.7564919004909169 4.8231084884847055 0.23896758378129165 0.18055751927351485 -0.25792355605850414
Ni 0.9638315926037693 7.70327854816315 2.8053871777518142 0.7576200265575791 -1.4570138224834133 -0.22663760146102901
Ni 7.487093470927847 3.7241678311251687 3.80102715444802 1.2917057731698012 -0.07060326413985905 1.286298486111301
Ni 7.793828894212628 3.926762152777646 12.394664266794178 0.5592463050382498 -1.0608911575129472 -0.23199038113251014
Ni 7.881608221015172 8.976616583298632 6.889204138505353 -0.46995857711501 -0.5867396253625121 0.07039423345284651
Ni 6.92797653149469 0.5341075792100894 0.27687769089906783 -0.3288955163916916 -0.7685554425231602 1.7628488575112158
Ni 1.709709760163338 6.596602736418914 9.122435090532106 -0.4733994844757589 0.708892993665521 0.5389248198720784
Ni 0.22118202707467427 4.64430117942038 1.1952800636844358 -1.0511474478626217 0.4195022202366711 0.7240259926522176
Ni 6.188633958672133 2.171248538285878 6.970503473259724 1.0292671028497629 -0.030386839821973474 0.4561216712319176
Ni 3.753126805294606 4.02364755927653 0.28965172501963754 -0.7954656366504429 1.5516291332671535 0.4044592098606195
Ni 5.785687653310419 5.530106703755221 4.648994593269875 0.4255108883245962 -0.4336108917239113 1.4218668422686351
Ni 5.302992507845335 3.211647767975979 9.075781700039812 0.1471120951308757 -0.8129162280267226 0.6227450969228437
P 0.2438059407947071 5.565181973696675 12.47736551852282 0.8954861776101545 0.46073885828895494 -0.06456374281399849
P 4.149145562538985 6.067994354286704 12.719958226877504 0.4145770150209118 0.4293683143974734 0.7623554843600354
P 2.4559434203236647 8.470340428649937 1.259856661891355 -0.2152553277660164 0.22961159648768842 1.9258485704066255
P 6.267580661625076 7.927503227292515 5.757539019966812 -0.855129885280295 0.16481953971296776 0.8059174281113862
P 4.762652869888111 0.8133151139233555 12.88097085247517 -0.3523897428588899 -0.32029903297193224 0.008323432264030827
P 3.5551812330366555 6.481869778323002 7.997507924057162 1.4178001283984292 -0.9338457512249594 -0.24337291193783894
P 4.763947227562666 1.2464846709859205 3.7029303385480916 0.2782851504339917 -1.1306410725135752 -0.504129566569764
P 0.379984217911216 5.652268545687486 3.6210029668657167 -0.5936049850237777 0.25724812725803436 0.1404591085907323
Ni 1.7289610517736156 1.0414748226872663 2.728209734127259 -1.2450471927709978 0.382296043500019 -0.5303738449782737
Ni 2.0226252855843727 6.60146113529594 4.985241371534502 -1.2308379911501512 0.2269008824247447 -0.8470633062220767
Ni 5.710195609221253 5.610174575679785 9.108507072738307 0.3941012636650632 1.2692284180028914 -0.23886293988262736
Ni 8.580524904495125 2.3141383334007997 10.25898230745439 -1.0051712382428237 0.11946193751377489 0.6582088370470923
Ni 1.9610977200685702 4.991052308277661 7.191604375099866 0.40372001770174987 1.4535816568734128 0.4378426704170717
Ni 0.6073062402646228 0.23790932121957042 9.361906756156033 1.7358463607804429 1.9604083106593657 -0.14233472834689034
Ni 1.4163463277839914 1.3133628559028747 11.662857225588203 -0.4986477175195864 -1.3686725176338428 -1.0674904079970196
Ni 4.351010668600164 6.751059713850807 1.563392651769314 -0.019267847090676495 0.0754716479757539 -0.5013666591126462
Ni 5.847552481037198 7.994363181819687 7.964462608017986 -2.010665664153021 -0.6499154866900484 -0.35089233237775697
Ni 5.391118212053747 2.971589995320546 4.7960792010737405 -0.2442722838236567 0.6229399865424691 0.476264978949012
Ni 0.5803498744127883 7.53506674164039 7.050002557023075 0.768646716685386 -0.5485548867626746 -0.15748161129065782
Ni 4.795832179292189 4.578480357110809 7.003376512115455 0.8437041599418567 1.0391614791453392 0.24851717514293975
Ni 8.503009287140104 7.6311591261837375 9.325792353996981 -2.466825901932358 -2.688988498341169 -0.38207672840036133
Ni 4.68801765411872 0.22193494217268986 10.686561515490164 -0.5602809169503512 0.5567441074416863 -0.239074284562485
Ni 7.892710528392691 7.042153462702236 4.765688229786891 1.3525918100218963 -0.29796925912648037 -0.35701464322541093
Ni 7.330658496204558 6.32156084577094 7.090185982181573 -1.16908369276049 -0.5181310230551787 -0.13197498237912111
Ni 2.3190331930573898 5.275902148628599 2.492074229833522 0.3359794198216665 0.11045124937473237 0.4950445735493603
Ni 2.5335410744327054 5.460685379463614 11.456951353631739 -1.3316656013921906 -0.5669444450134559 0.5344176760303442
Ni 0.968380074854493 3.453792920261504 3.617628521716983 -0.45848580058872 -0.2896273149196883 1.0540394246984364
Ni 3.5607688475049795 2.944490520908919 3.118487741629141 -0.28352223046321495 0.8213551028226952 -1.8663131340451535
Ni 0.8653355311676052 3.1595270835879257 8.485121628685555 1.472614762245464 -0.19697195607579626 -0.27376952195182525
Ni 3.5626010016781167 2.551525353953102 6.989394714671798 0.13867553432774826 0.952195714487057 -0.4795696178422128
Ni 4.1215538676032315 7.178708197367754 5.8240708274779 0.6821069838209285 0.4871392026593546 0.8798723823322977
Ni 0.907516095526772 7.670372694605809 11.39174124937988 -0.18504255162806196 -1.235732857348607 0.4931707535654152
P -0.13189322399814166 5.655148947273115 8.167645771260437 1.9304315617916172 0.06293314918911097 0.8184186459021905
P 8.404738371017753 1.4971069545202893 7.993945705893669 0.516737999362394 1.7950845776164694 1.2836775035486858
P 2.011978737951416 3.169234766147086 10.571735582406362 -0.8657346573793349 0.8955201161718834 -0.20048074056000312
P 3.9904500194826706 6.153093813791227 3.6935252804593204 -0.5975002063131257 0.47871189782760776 -0.12507928370055232
P 6.923200169371685 4.212286517550535 10.286385317855895 0.5949478722049173 -0.808028560917118 0.5370509998881331
P 6.236506962240873 7.770548686460426 10.440113079696488 0.6091539885019702 -0.6096756653333951 -0.7564725432166972
P 2.320564545799116 8.715119872259026 5.888827906543665 0.48225179266006624 -0.9161920426989382 -1.1193991810511688
P 7.19335631555796 3.7916931948794 1.5348165157853078 -0.21627734127262754 0.010931816421155366 -0.5542822761647551
Ni 5.226516022707916 2.387962296824871 0.950208933838826 0.08435095274325473 0.6250961136535235 -0.5889075795481084
Ni 1.4949739989157413 1.157410986508821 7.043466050766574 -1.3290667303167627 0.8455949492066663 0.270183861483096
Ni 6.76694749854622 0.4802777957799306 9.301538643430396 0.607477886351128 1.616245069475326 0.5601636746461965
Ni 3.0530707224532505 1.896024343740079 9.122541738312334 -0.82149291395214 -0.7286380375029322 1.6757740780788943
Ni 6.758324524179116 1.8670653695706416 2.585634413236085 -0.6855607466974838 -0.5369993207145913 0.6334539986999155
Ni 4.0122079896880365 7.0041795607853725 10.284917771478407 0.15960817071535738 0.11576134873373613 -0.20446569334968012
Ni 8.549843158491244 7.126131753235138 0.6443950567575485 -0.12411512001507011 -0.593521681281352 -0.4734372796922299
Ni 7.769728318920215 3.7284610879189377 7.982566296591458 -0.5683873481075696 0.5186143904495004 1.496198720212991
Ni 2.940042305801999 8.455190974740711 12.526513737856842 1.6645087895777204 -0.42717284940805145 -0.08387298466557169
Ni 0.2844706482434624 4.8111274763196725 10.320057759303587 -0.32499103913096283 0.010823572978065231 0.05074791997682873
Ni 8.668659723898427 2.4559525355185556 5.843468873725927 -0.021970847844136356 -0.06351884648925189 0.3832949170781786
Ni 3.7414867014185056 2.5125305502084205 11.780190748786582 0.023276196919121205 0.09382726766480615 -0.6399943709215945
Ni 1.377998702876587 3.3185051976858686 12.763143285713685 -0.9395047492829496 1.773692742204255 -0.29552979644705235
Ni 3.023984135555336 8.678814051007258 8.032314295749325 0.5967383884464368 -0.7384588802480959 0.5793991258370409
Ni 5.7858517268184615 7.768269887737619 3.6269269320255266 -0.9843900398314144 0.21141152853989398 0.13016826818768548
Ni 3.3605991676935685 8.557080623234882 3.3716467839017397 -0.1224027653096537 -0.8245031615333736 1.0714049125600775
Ni 3.186353102152816 4.624858468717387 9.291318686918348 0.5985985815836271 -0.9454846210154685 -0.33085238300774633
Ni 7.513108237147417 6.3059647473120455 11.543948596712617 0.022638563335122302 -0.5387397004444656 -1.0127431370528106
Ni 0.5185142153096622 0.015538672731079785 0.41195394095322696 0.3645916842417205 0.5353401878446136 -0.41640584069953446
Ni 5.037712990925868 0.12872751681241748 1.765549444067013 -0.13764195085691133 -0.4803903139712952 -0.5366321671831596
Ni 6.638195370707597 5.578663346940803 0.3506414940368575 -1.3788797971841478 0.21188435441125444 0.651122362513956
Ni 8.011809664841502 8.796901400823142 11.503791605619304 -0.5748580434335777 0.8000350011886802 -0.12563901285876425
Ni 9.024516932452046 4.98355961807707 5.878088383922818 0.46282890804876414 -0.05289016313081214 -0.8512338926599985
Ni 8.16372350289874 8.958322387151934 2.5730536212472095 0.8209205863884379 0.954525391061498 0.4380673848333681
P 8.729348691484237 1.5216815199470455 3.850028619144294 0.18744807574576103 0.9954100450910018 -0.7571723974971992
P 1.8739108809339553 3.2179190220611456 1.6381691530595193 0.7577285271109854 -0.38667514640432116 -0.48551735078521546
P 4.8074175919989415 1.0146214585377027 8.287608116665448 0.9184057625208055 0.23888942224518858 -0.14768750801837144
P 8.333147630342033 1.5935274860797204 12.590764012086655 1.82685235694637 1.41192721455742 -1.254307535027001
P 6.820225812685459 7.686998810087412 1.7413486016307973 -2.4487957839035244 -0.9381343512979843 -2.082460891718452
P 1.695763511979756 3.2967563426753936 6.0350720933785595 -0.5446288122353911 -0.9832129888041776 -0.7059863615416874
P 6.960818578687792 4.198340269366954 6.088142581074279 -1.4937366318257437 -0.1471051531523402 -1.2304667238536613
P 2.484537786697453 8.73604835972929 10.425691929859076 -0.008493896403624081 0.4135398320056491 -1.4581412512196372
