# total energy = -381171.6819419842 ev
CRYSTAL
PRIMVEC
9.21029015299787 0.00000000000000 0.00000000000000
0.00000000000000 9.21029015299787 0.00000000000000
0.00000000000000 0.00000000000000 13.48019062930440
PRIMCOORD
 96 1
Ni 1.115154300767602 5.372933283814348 13.006375710573225 2.0457074862485025 0.43103490346661893 -0.909705149423014
Ni 7.8854912270661695 1.933488580797677 0.3155574350233249 -1.0752646526257998 -1.9318374410002084 -0.10632874256592656
Ni 4.147844959789132 8.673799961199812 0.08282169213634716 -0.6707712470931351 -1.1684285756749941 0.7187829990857234
Ni 7.046369322162399 2.445774129357641 11.435812166023034 0.9243992611000789 0.29377013344346825 0.4177068188991451
Ni 2.6451492802840453 2.8450033662983687 2.7143038228634246 -0.678820856870489 0.823959887435394 -0.12347645798980669
Ni 4.521230122562562 2.631766728692783 10.943219138837657 0.3315118709686162 0.45529686133777714 -0.6919746206436277
Ni 5.754285347569499 7.732489887056495 12.070203136276847 -0.9968179811821221 -0.6487384356628118 -0.7093966727748169
Ni 7.55116690482856 5.931113708203123 5.555456366849125 -1.5519384369774563 -1.7044513914089292 2.841114244636552
Ni 5.4736846477901375 1.2309460685620655 13.10224654179732 0.8270094728949952 0.2396368419341744 -0.4564710841515364
Ni 6.3677643540325635 3.5737583643073685 3.5457885551729253 -0.1766892945673602 1.3815038650705562 1.7160915467510187
Ni 8.781762982364839 9.474993891256496 1.897269114773836 -2.081250930570751 -0.796023566036442 -0.9454879634495782
Ni 1.917858718409258 1.498818147350976 10.499747352121439 -0.546980086076387 -0.30698920323690354 1.284655294080923
Ni 0.8826856562950401 8.217816916340736 10.749522131790135 0.5602482639402029 0.39056445415639834 0.15889288981588764
Ni 7.511599498334365 0.7832182067664774 7.744153798505343 0.7770750499583973 0.38095161365698266 0.08899719326601446
Ni 5.898923744120904 2.4194695406827296 8.418675845010673 0.8318858271506899 0.9469496355967691 0.42850956594160394
Ni 0.4923968480051308 7.054824368522192 2.089604840936853 -0.07024459524885968 -0.5184302994631523 -0.03128132661178483
Ni 1.865654793826135 3.5928144546324363 7.770575357865189 -0.5227795775707835 0.15243376445410523 -0.6702829946028069
Ni 1.5473103250027302 6.568530258771962 4.651434152387313 0.4964879908641062 1.5264084110271516 0.5177152756739988
Ni 5.121805512522282 5.755491895579447 6.529467576178113 1.9355562846126924 -0.37401323466593656 0.4947704939523672
Ni 7.011729420899674 7.537480413662272 7.401904942620711 -2.5187539582602168 0.16477814495207105 -0.5898784281018099
Ni 2.9563465639492814 5.162551836155968 6.341769231106768 -1.1351762413797675 0.8757231360506145 0.10414047666535613
Ni 5.405942963720118 5.015841124320301 10.95500002097144 -0.6145538193613029 -0.40682359632773807 -0.07587968204744996
Ni 2.7429625617012587 8.640090299242468 8.623102840085604 -0.20083426724467993 -1.304456130856934 2.0075356031644715
Ni 2.6696486520891103 6.951982268681834 0.9126098889997978 -0.4061314553567199 -0.5613358405774268 0.8459243075216271
P 1.542898596019788 6.757350417183854 7.332320279491221 -0.14558717384591702 -0.7394322999049588 0.48057877583301756
Ni 5.779208392721569 3.5697887292517363 13.262080996070974 -0.6423903819575968 0.7237087185221149 -0.8784415634230419
P 6.703543902114235 8.734228674888922 0.5813019367870589 0.29403804239287423 0.48368106890742507 -1.7785282159196854
Ni 4.3864835776347055 4.620553891564749 2.273596044221904 1.5764366792291367 -0.5168889231179614 -0.876895816202477
P 2.178905972195329 0.37738334972853466 13.504455307602312 0.16852167115490332 1.12303652069344 -0.6291291460723165
P 0.4842310047561193 8.366194690693966 3.8797334134562615 0.7448295596611301 1.1270358716608202 0.22291567252475158
P 4.018256177346553 6.325479911943446 4.779657969829324 -1.0157217600651602 0.9478965728910708 -0.6239866826394287
Ni 2.7840404557804277 0.33291514784431175 3.9286529485710817 -0.1205705971969214 1.1515096884324687 1.8180818098425915
Ni 0.5800521004133945 1.5720860055123633 3.377610499050323 0.8665725798995979 0.7151947675138328 1.4186565628614534
Ni 8.07640212134263 5.7393370466523494 8.032319830615787 1.412632725264877 -1.53667791127396 0.37057464129803275
Ni 8.284536258203852 3.1627123251012663 2.4041786169719144 0.30370487605867696 -1.4917671668041985 0.5633554421106168
Ni 7.233605310668099 1.2988995893055872 3.8760806123818674 0.24314485508743286 -0.01488128798720663 0.54110768645601
Ni 8.351154286875293 4.00382365267793 13.280926170751552 -1.0263941521773419 0.7116726132931872 -2.1455439362218662
Ni 2.2106814732206947 5.303764004770724 2.838065254726656 -0.1354804244292183 0.19265147432357144 1.0193925240485282
Ni 5.625055766442858 6.258079008609061 8.988672150635807 -0.9887578298818068 -2.3769352503177967 -1.1526746552748472
Ni 5.025604031881717 6.725593336738793 1.3036677565174224 1.7271220935335674 0.7475117344789837 0.6236105302469325
Ni 5.430423914944879 0.11536441033139798 7.978412923383508 -2.478986962774924 0.07825306737563298 -0.5496879719258533
Ni 7.6559892170516575 7.855834092775829 4.376074107704599 -0.6493084492336689 1.2336955152036042 -1.3989961083180489
Ni 8.50384247701979 5.7313793559607795 3.6582544871934006 0.8355859017100964 -1.8892494311263528 -2.097430111433775
Ni 3.1207870843280876 2.5616856309240847 12.919401098607212 0.41418312201660284 -0.00923437411407442 0.44868192712442084
Ni 0.5679645156175422 4.869756712214988 5.978168159562106 0.14618572666186436 0.6977953410904628 0.8908841600617688
Ni 0.9375338551808825 5.515490154791337 9.59172142453043 -0.15072732328595975 0.8158251741434015 -0.4055254463416048
Ni 0.9955955243008555 2.3235351584565813 0.5388111841985305 0.33779718975669565 -0.18169060443669355 1.156149244087009
Ni 6.052505332410172 0.8410855387642372 10.107905688911854 0.163322386342151 0.6193090746581013 1.1712889279419247
Ni 3.6239636559274473 7.614404757014114 3.0087383784515107 0.2871989079838538 -0.877971822875475 0.12537367501251956
Ni 4.054673664608667 7.761216782041457 6.9686657882636736 -0.23324019437921123 -0.8793185667113567 -0.372076679764856
Ni -0.22553790113297098 7.75743135278887 8.841804863867551 -0.05002081200281708 -1.068912742265843 -0.1117969647693494
Ni 0.4052546087583491 3.0946206500054605 9.742700184822665 -0.452249332760705 -1.0447438583291233 -0.33901563554482905
Ni 4.7598871609884394 1.7420803308529949 3.674497754905962 -0.40207759700232043 0.022280408664755176 1.2851003520381417
Ni 2.6658171713857617 6.722019744159708 11.572433926025893 -1.4053601028628637 1.0243555244807585 -0.7736421130174482
Ni 6.593434883343727 7.997377831836068 9.5497446061324 1.8465328660944327 1.0968660329456594 2.2613045136246535
Ni 4.020079814796704 5.825582203638298 13.017159118283514 1.3494702336737792 -2.4785673587390025 -0.7177507011664671
P 6.573715652127696 4.397241196532568 7.355264033289565 0.2996852133763226 -1.602280636875434 0.17518237100453055
Ni 1.8122443212330634 8.97704876446363 2.0682526252768225 -0.00023628438052217374 -0.04326472422590613 -1.2469438955730783
P 4.036667547360961 7.5484682898139415 10.257171335235764 1.2176106938265998 0.7718752509250126 -0.9143164229427801
Ni 3.261372953212489 5.965597034533259 8.789677384692693 -0.5536988928574592 -0.1577865441255863 -0.07283215347037779
P 0.7482080518396308 3.900686823552699 3.986591199803014 1.0873272402172889 0.11585930776418112 -1.50900512794904
P 6.385346797933266 5.634597627040621 12.684144499305557 0.8266798574697182 0.13851149794605824 1.1940984696372725
P 3.4507365187433656 3.7121798150059844 9.193625053278433 1.1214120977161397 0.3308415843744689 0.8746175616912615
Ni 9.009966341467878 0.7204906046553594 5.665603147809256 0.3478293771817171 1.3962388572878857 -0.4592902987678864
Ni 2.547685989892619 3.070544951547401 5.099097542151836 -1.331144695891714 -0.8557628908786036 0.1969570436774608
Ni 8.807561005081375 3.2367262167649877 7.487544983543655 -1.714768199953905 -0.46421267577016834 -0.3671738431465999
Ni 7.998630431296777 8.117148444976316 12.023238024732343 0.30128649642517147 1.8849778003341924 -0.5822787613776811
Ni 6.027545446097494 -0.18566563403473574 2.5522045582413275 -2.1642677378836144 1.4938289344292337 0.5154113101311705
Ni 4.268766859198415 3.105783521670024 7.073649280564437 -1.4999712998815455 1.751198931977113 -0.2941966794579256
Ni 0.9329287101047425 7.752660422489988 13.179056677551277 0.41949296426529037 1.9253554328202906 -0.7301372477562781
Ni 0.43287718995405194 0.6581968072104138 8.51636662956886 2.0376751028623294 1.7026459627690742 -0.41102143645916955
Ni 3.9680877268870836 0.9070496368348664 5.985662572659016 -0.7942795867621418 1.0657623695623193 1.2623280913386326
Ni 3.0329853883064026 1.6752873066686604 8.600024616051035 1.1172949902239724 -0.22014428042720152 -1.3801128982603006
Ni 3.715698145844155 1.1439825089442381 1.752330462763467 0.5663944860472567 -0.6439158174631877 -1.4748863318884597
Ni 4.928223634101662 8.463575088474023 4.8688154205614245 1.3945175037214048 -0.6277595194182995 -0.9450156517988498
Ni 8.358605411608488 6.508672583072295 13.539503224718784 -2.116331319213652 -1.4413342069646273 0.8449048651181771
Ni 8.252705495437572 3.388115755998014 5.044799197588084 -1.2897267950665594 -0.9397826855346846 0.25883681190139296
Ni 7.31977678533283 4.10393029634306 9.67254908884881 -0.06492961079384947 -0.44709401381201064 -0.7526246302255167
Ni 7.251602217625654 7.286011861634572 2.125852858860166 1.434143602753459 -1.7219192091763893 -1.0244105460884099
Ni 9.561110104180312 0.912869619182092 12.289296597390269 -0.5883925875849028 -0.3536747802189006 -0.6021436186224081
Ni 5.98111637343985 2.366620895788947 1.795103050230655 -0.09027837397128323 -1.088335369766829 -1.1563862997984795
Ni 2.5881560048217374 4.290134732351705 11.135446183576878 -0.029711153911187543 -0.2630495644311599 0.033419970221342445
Ni 0.48236131585520653 4.535146870982657 1.4554966265907119 0.9841079898146213 0.9380775299181199 2.0227490776801167
Ni 4.364544666491975 4.193067484436827 4.544496236516236 0.9141786118133353 0.25616260750333947 0.5580322301254906
Ni 1.9223533400035704 8.689070622272293 6.3607894013002415 0.208404366282454 0.20999073693296738 -0.6567636199601334
Ni 8.94068653894243 7.769036318380742 6.34349431845229 1.7164849255346952 -1.6961693539057952 0.22204663965623694
Ni 6.856775499377717 4.8035991980511605 1.5591455478484098 -0.26176735528462663 1.3501608319829006 -0.16471155338019378
Ni 7.999606722052919 6.0757981562052885 10.695560883845957 -0.18099640658314634 0.2717005552379385 0.763260255562492
P 1.8702046771613612 1.6185058678798543 6.485319892391189 -0.39193356658978307 0.15026992403356704 1.2887351205772515
Ni 5.877344034294112 2.4647289064910334 5.667449810984789 1.664251936371908 -0.13782707028452393 0.3213740112036659
P 8.392075606021873 1.0203343636498796 10.201673810894187 -0.24994645139029859 0.006582281203208019 0.777320333199984
Ni 5.912711548478867 6.085330806512898 3.7145744904455777 -0.09347116987696806 -0.05600993970671644 -0.3306261259295532
P 2.790220560472607 4.4868481094241 0.88607872718714 -0.7332945624383371 -0.9428374132006085 -1.0219129764775368
P 9.497927513735673 4.36315391267898 11.365620544772506 -1.0110459518560457 0.4374940288284013 -0.20979533309270967
P 6.858203094351319 -0.1890126534760743 5.932497093783995 -0.9596495996619407 1.9400737128670715 -0.37355892073733726
Ni 3.7560944784520554 0.44315034758990507 11.433358544726465 0.1577844872430573 -1.1819399798978678 -0.48973910217604694
