# total energy = -340856.7458207317 ev
CRYSTAL
PRIMVEC
9.39474036997814 0.00000000000000 0.00000000000000
0.00000000000000 9.39474036997814 0.00000000000000
0.00000000000000 0.00000000000000 13.75015216637258
PRIMCOORD
 96 1
Ni 4.022367394254298 2.6162566345035536 4.864060954671139 -1.0646848202274244 -0.3978090515339536 -1.096419175216228
Ni 0.9085587445577779 2.048090933845802 9.690144611719399 0.1401829721112102 1.0653391659819718 -1.37567723108645
Ni 7.986618925878689 5.599387266996192 10.836865656177872 0.05843731820128645 1.3679361536884505 2.2604899881431586
Ni 8.815545034418058 0.3575497183802612 7.066298906114578 -0.8974404731230479 -0.46419390671709093 -1.1598230933941702
Ni 5.530091663575858 1.6960230463489145 11.892175878879318 0.0007355926144438944 -2.18441695913798 -1.2534261608633124
Ni 1.561706446281056 0.9112418823474806 3.2580301243150918 0.06870810399967522 0.18892671717381657 0.7726941472818821
Ni 3.260134546110937 1.4893199733480738 10.69966674982892 -0.39160395116450625 1.0286706069163447 -0.11373017723632026
Ni 6.1436715381671645 3.4360228713869 2.0523204458658446 1.9374517018631925 -0.4278462213259922 -0.14227970673923884
Ni 4.546105368695298 8.880115083537902 11.243333786571377 2.3790810930162056 0.8439497002937595 1.144718376542248
Ni 3.9716827710909706 0.49058111799422843 4.23919893662166 -0.14667295071092806 -0.8835200063872137 0.0012798951536881183
Ni 3.507667159847241 5.815804501322498 3.9618727834158736 0.8860206613218806 0.1636895398735826 -0.271339572354094
Ni 9.202617723751194 6.428980402086923 2.29091302486587 -2.667438797194851 2.3666698638360466 -1.2123790131140153
Ni 7.031089298942842 7.518225365720389 3.2458470252755727 -0.15696173423144583 -1.2229827567717904 0.8740773729170752
Ni 5.09451393079652 7.799447517670537 6.9172335034694985 -0.3592728431319684 1.2356732077552655 0.08944327966449757
Ni 8.901863907008355 0.7077395973191598 13.802952351072197 0.8563061649765834 0.3491031016878181 0.8566188111209957
Ni 1.8365025959617487 2.5477689787369817 12.72584821014753 -1.0722808874071275 -0.05041496211744221 -1.5979730106390155
Ni 4.322717237170255 3.27733631534394 7.536595840629299 0.14014877643916507 -1.986739749465043 3.261378796960545
Ni -0.022228894692632024 6.851320945980788 4.34216059140544 1.3842379761722674 -2.432709419864623 2.352370673604555
Ni 3.626012701643059 9.087776420035064 8.610964233219367 -0.06027385718939296 0.8018311738571545 0.33430383189145646
Ni 5.662782973596032 3.687839486636175 5.989799786456217 7.317303032750108 -0.9681319261013392 -0.6494760851597847
Ni 2.0076089984962597 3.900808851323752 5.252200886486454 -2.346529127222114 -2.1652334442309935 -0.9029066384439418
Ni 3.598307612911149 0.8744004088099478 1.8981950361705762 1.0851117206232086 -0.1121234948708327 0.4057635304943399
Ni 8.980441513706793 2.595052705962381 2.408779434913527 0.2804356211180912 -0.046254660092165494 -0.45045007476843707
Ni 9.28010554059107 1.2978927478474311 11.493889627691178 0.03373930123397415 2.040399443772028 1.5215073741811087
P 6.1128661851824475 4.641161349634418 12.833992943077595 -0.8112360121108222 0.9168237627456662 0.6024598643112463
P 7.580240045516705 4.514726936560819 7.365021580034819 -0.8836184796382911 -0.10926391393485055 -0.728639837275145
P 5.5051392337108345 0.2570269381420238 13.433650752225763 0.6162939419808613 -1.551281777230064 0.377617149967111
P 7.620177085936966 0.9329935242399835 1.8718080294831176 0.15732117445339358 -0.31449039670995516 0.31700056472631855
P 3.6526843689573663 6.926272182977456 0.4466362814217017 -2.2874598318637833 -0.915709960856197 0.025093195523201946
P 9.280697409221151 3.3714528222670577 13.683641969461945 -0.44661887394780503 -1.1879746161277218 -0.19518786759218
P 9.253640557560283 3.983228906747639 4.149327912776858 0.9504558489778148 -0.551104906878038 0.5791890667087638
P 6.94726003249495 5.329626698041273 2.703912378618623 -0.3326225875342917 1.0612104885255789 -0.4847151665988943
Ni -0.014936697380421646 5.254506355721723 6.54827575211292 2.651262187434989 -1.9103928979731875 -0.13831378011295534
Ni 3.4874214948023896 1.020400307740812 13.232417296946085 1.3210004083688605 0.20324441934806936 -0.19678349421407398
Ni 0.5518038211950548 4.787305927563747 1.3220898406035881 1.7584862096671456 -2.622503884355374 -0.3916705427363835
Ni 9.266144956713275 1.8823677174229843 4.987345311369082 0.13411465442994322 -0.12745112636683859 -0.13997137032103635
Ni 9.066844938958532 2.714281353333241 7.341756445502536 0.16294957638376453 0.3372503161142902 -0.019198427305321775
Ni 3.6468126563573517 6.75702593899463 11.031292622211613 0.6398863845888205 0.555595852769856 0.260838415712454
Ni 6.591265143611173 8.911925673719741 5.360221608846406 0.16486376268734187 -0.23205671559407132 0.07659239184375842
Ni 7.409255774604275 5.016152403121763 4.84859251499766 1.677930205189949 -2.3086691189515465 -1.4679263556308588
Ni 6.729677850388801 3.375163744630267 11.285588509389115 2.6280993761652804 -0.7338177819316588 -1.0592883318022015
Ni 5.021723484036657 5.546175458729818 7.451496405311772 -0.6283331325335824 0.08971478815832937 0.9115961957981398
Ni 6.457127043606354 0.49598685148230603 8.354578955830274 -0.9695761147470334 0.8271822510274336 -0.3195472424075723
Ni 4.18981924286656 3.296651901112949 12.281223342594089 -1.1158405171656332 2.6201358983438294 0.34138336444605727
Ni 2.2361736318494763 3.955345317952689 2.9392872591138404 0.20622612768421258 -0.6384545372383004 -1.0043857662270508
Ni 2.586052544889078 6.756255570301509 8.488518826817716 -0.30543651403780303 0.8745486561265391 0.3030441025462265
Ni 4.7344886983840935 5.1707334577147925 1.4171044846860037 -0.32894153913827867 -0.8854704452453653 -0.5329914851067789
Ni 6.040968238737786 0.46325839518683154 3.19961926684416 -0.25045193027180734 -0.4814534651284869 -0.8393463971937932
Ni 0.11578641457622782 3.8972294553227824 11.496749386595887 0.14119958630118262 -0.3501600821974228 0.7485764282980721
Ni 1.5336725416435455 6.489961660465637 11.920666367888606 0.03481016570064972 -1.6480318749686198 -0.7049486643057924
Ni 5.458973480564479 7.281571861089392 13.24941238189557 1.0845090540422033 0.5834984927173951 -1.367609109366335
Ni 2.0622582020071176 0.691179488839086 5.600505241075235 -0.615905705403507 0.5937962750989774 1.5255005545009017
Ni 1.6957224146637937 2.128763567599925 1.2247002062087189 -0.34688655365247356 0.2383068102688412 0.06772131460637369
Ni 6.983824361197763 2.1415873879183573 0.11140752618764078 0.045475358723979745 0.36195218973634435 -0.34372049721966613
Ni 7.900863737697993 6.718366583236133 6.172539695730885 -2.0896029020798723 3.744257167461016 1.3399900620974858
Ni 2.249147768010469 3.5413566980610853 7.636504204861071 -3.3491112645815226 0.786728256777445 0.8923193498463987
P 7.882074257377946 1.7166820799608067 10.02933324993091 -0.3556923248695616 0.03203903071341579 -1.0845409357214033
P 5.052660363383615 1.9781752775749057 9.585272066787072 -1.4435744091490559 -1.1964957662248557 0.0008340658655211442
P 2.263972667982986 4.243388051259015 11.46956570594286 1.3061276050220862 1.5047052150221054 0.1422308557791744
P 2.5732287245706456 8.892497351068814 10.910016860959882 -2.5882861008230846 -1.7936085072915755 -1.049578046492973
P 4.2263835715693725 2.8759554367470885 1.6839395315550922 -2.4421214572071426 0.8518681838098877 -0.25484928800855466
P 1.9787765409451474 1.444601010186361 7.908935698443486 0.26717027146775274 -0.6933154509422381 -0.9631115900686122
P 5.307107505877696 7.7523610799885 9.011285385126168 0.1710686059464731 -0.14884861820600817 0.6119392645565912
P 8.620613570837728 6.805042455952512 12.644172218144316 -0.5411264555090874 0.30463124452768825 -0.8649640977618974
Ni 7.8423157170207265 7.956142388799572 0.791560408500907 -0.5905147761342282 0.19132272820981888 -0.2288227820378059
Ni 5.74904547774537 5.178512302567292 10.540962343779656 -1.7563385671965237 0.38807716895817035 -0.43719655219264064
Ni 6.305777779628373 7.376749973650592 10.89665190360823 0.5771406688201673 0.23784092637601617 -0.22775654555682065
Ni 0.4388987734259062 8.635626365613446 11.607520888874694 0.5667624109096369 -1.8842918300107614 0.48526332579288045
Ni 0.19666855103591965 6.874281690931886 9.737004636163581 0.6038459460254955 -0.3720982770314108 0.14080312219371235
Ni 2.6604119132556656 4.416777375652412 0.329709345390047 0.6573048371755841 0.12199987344428022 -0.2853328013093925
Ni 8.937159945789565 8.770187228925465 3.076692849746314 0.21326657947076172 2.0644477429704833 -2.67767770131404
Ni 5.227111293415094 7.309474239364663 1.847360097164688 0.5752341958260738 1.7163409437576636 1.0760262133821727
Ni 5.69364469502171 6.329903472359314 5.182926890968487 -1.601942279699409 0.5595964892888169 -0.3388413147504939
Ni 7.929376774083665 8.80009068685482 9.760462362869145 1.2650781432799438 -0.009508453711067495 0.08257020669374812
Ni 2.411592220117438 5.700145855212447 6.411791785490144 0.2737499815677995 2.0037563386276975 0.8858247432609906
Ni 1.980298488851071 8.610796067370503 1.64501336517605 0.39670964782218776 -0.5175396693280828 0.47299942082386287
Ni 7.015193398592081 6.322819838278655 8.526799574547763 0.8712193346429898 0.5297338974014296 0.6394868351575568
Ni 3.550582332898229 5.04315288634167 9.59946188232477 -0.18710689035625838 -2.5132867644980585 -0.13147207460077356
Ni 8.717604868249811 4.143785016082444 9.332117640539009 -0.19918284768418598 -1.114682749412106 -1.6371599652511224
Ni 7.063125362888521 2.519021073847309 4.000317939098722 0.3004555158834438 0.28457458298712923 0.6424415469105064
Ni 0.846294164673205 7.328818009354151 0.1607383672939091 0.11930561444156874 -0.12307022369032351 0.3648194839818104
Ni 4.762259550297123 1.0326980226102829 6.611692127141112 -0.45410644057410177 -0.29766098385744216 -0.028672428234028036
Ni 6.468870468806385 3.156923930712917 8.72454006543594 1.4312189729074964 0.7058238678218941 -0.21677047885896217
Ni 7.344009304192911 0.11267299768719599 12.065345366352968 -0.8609477775136528 -0.9433611469145624 0.20001871332192003
Ni 7.874276623045126 5.40001209132017 0.4985901339806486 -1.6707110617336902 -0.3370726528858453 -0.45978575034706626
Ni 2.5978899174907077 7.963864865211112 4.43816356215269 -1.1689345687771353 -0.10678074250168061 -0.675495906262314
Ni 1.439866061145709 7.789921251148273 6.541497447087463 -0.9352212914162474 0.3127330476992162 -0.5115991354739318
Ni 1.1376936386387073 8.934303944780918 8.57786750310962 0.8913364171078391 0.6271432259905392 1.9135892934232976
P 3.992849120671504 4.592336885022775 5.685838605422747 -1.5118531389207963 2.1280151833094836 -0.7766644447835398
P 1.3114681473786653 4.942469456046697 9.291087991838138 0.6167960784282603 0.19737741904433104 -0.6863457044926244
P 9.31161549908779 8.716205051965968 5.046814956056048 0.6925533759652331 2.7225401090443695 2.719053436047349
P 6.733520299114251 1.600168512496193 5.9456896024568735 0.8697314372435536 -0.3276418464902486 0.4174880180201197
P 8.98650112111001 7.645364384305989 7.8506356989064425 -1.0157708681355408 -0.2967235596448373 -0.053003034559592585
P 1.5770104780017349 0.2748346681153487 13.381675291764447 -1.1152867015446921 -0.9893934065832768 0.7538191647542501
P 4.709141689432348 7.849606035384904 3.959947801157085 0.9942191101066942 0.26939556125384573 0.023150212864218193
P 1.8341914898823828 6.194844687818813 2.741669839321758 -0.23955996594965195 0.5756478863247246 -0.06616142631842153
