# total energy = -340866.1411039466 ev
CRYSTAL
PRIMVEC
9.31683236763610 0.00000000000000 0.00000000000000
0.00000000000000 9.31683236763610 0.00000000000000
0.00000000000000 0.00000000000000 13.63612592988379
PRIMCOORD
 96 1
Ni 4.235525256784839 2.08064436741481 9.054442618899731 -1.4934412120725118 0.735397467713953 0.4894490817394539
Ni 2.9509483318827834 1.9212333620616755 4.119418889238914 1.5531802798043575 -1.6089138259212354 -0.9440656291807547
Ni 3.181260433129393 8.830549815297092 3.3392422363655685 -0.10209979208624352 -0.3771561511702924 0.8163622775937941
Ni 4.904641538634717 2.9128518034848305 3.4377761259923494 0.4259793433205825 2.5651279175390664 -1.0595760382459496
Ni 6.258712717711467 3.955340150765854 1.3165178220179024 -0.8458507739712142 3.0330478669574927 -2.4397131048759664
Ni 1.098025986258816 5.167087395431471 13.407816490921963 -0.20846684408927324 0.4539418899717795 1.2768710221498136
Ni 3.4179638815222475 6.7665266771955475 5.082770992313684 0.04285566171294555 0.8364935011260304 0.19867556903046427
Ni 3.1702199865283727 6.090702275891883 0.8063243434942438 0.390639787479024 0.07611133844228182 -0.47897389323974277
Ni 6.410055346054911 1.5281002947395905 9.800010965491092 0.5247696114176189 -1.1511317362677596 0.1250628286403201
Ni 2.9197928437529828 2.1875643380420793 6.40042919463873 -0.31700313582947987 0.02053900049361624 2.0223978649882843
Ni 1.7123127084065795 7.011130799611749 7.048608690326741 -0.04257978234373957 -0.10532344122986377 -0.7434334506445519
Ni 5.524229538517486 0.7601277608558462 3.6044374904551164 0.7869396014573028 -0.8218526112844038 -0.6936522654563667
Ni 9.165611065181064 4.28346967721425 8.05709618880965 -1.8518218824075139 0.2551447077617864 0.1958607252894885
Ni 4.993440269904193 8.973013502196844 8.695403568701508 0.1649601790558901 -0.5921754516661027 0.14032952499140347
Ni 8.581361811254137 6.8322755646752125 3.6147596092646275 0.2615408410961173 1.5648178640432857 -1.456632013663962
Ni 0.28764602554480484 1.3187137994557594 6.872253161569997 0.25765204756467236 -0.3210245982840471 0.35623585607785746
Ni 6.348415181740688 7.689303042724236 6.913025484283404 -0.3325554817417821 -0.39414805774259865 -0.2010155300175506
Ni 1.302427976115182 5.959754194054461 4.504694139967496 -0.6889990829550715 -0.924697509066788 0.9206097121506597
Ni 7.433779592530486 2.69349629734607 12.627938908374265 -1.371158003059858 -1.388731493167247 0.6608321336025522
Ni 8.852062381712075 0.17575366137241785 10.779221249291261 -1.0221677728008203 0.5296752762493523 -0.17751796111624266
Ni 5.7074171006012575 1.3522823472224073 7.495887461839958 0.964658879951074 -0.0089572091932878 -2.93639778513191
Ni 4.632273255145908 -0.06768678865520303 5.587130270279064 1.7505409866781398 1.2517873397083086 0.3124728520592941
Ni 3.7251864356730144 4.01764181019288 1.51339181115391 -0.2147555053114624 -0.5771542956669221 0.9463598245315702
Ni 1.5425227515652276 6.814778553099924 2.1842214585142767 -0.9349294712074414 -0.39130904563190677 1.1797702259400584
P 7.165389596551074 5.0296082139591825 7.406216675041491 0.33811934898280477 1.1397247799823982 -0.532726147260534
P 5.836296845607097 4.411669293442136 12.782368203349709 0.016874407157835454 -0.5737113314236443 -0.5406212337378948
P 3.340885725631746 2.583697425453218 11.083783847741952 -1.5227299337343003 -0.05168482996880131 -0.10107957835184526
P 1.7116232627960515 4.827609966907088 6.945696821073108 0.7981979479799415 -0.22420508076013645 -0.40673412193772535
P 0.9381305056117968 7.3889842615113235 9.92351396641807 1.1709965935124864 -1.2530584931112483 -0.8973787666471771
P 3.95903893329801 7.89177644823764 7.024991451433132 -0.19646416320144228 -1.4446637855584927 0.8305411401973373
P 1.4759260323212648 7.267641834058418 13.290491481675268 -0.05368617666954625 -1.0072607737820007 0.13935404845201163
P 0.044578248820172056 3.3714728869744897 12.756636975144898 3.4757373239439047 -1.2988277289265633 -2.1566151064343635
Ni 8.070724851499923 5.756833580577472 5.548116965555762 0.7197934426281087 -0.13669321379039684 3.1770782378392513
Ni 0.437477463644632 9.191949750869744 2.3458228512057233 -0.6498221556452938 -0.195959712761198 0.39517701322774523
Ni 2.1863717834725174 5.500229377805057 8.98154399410224 -1.4352224376399347 -0.6095432535205889 0.25693111023824783
Ni 4.412414640048112 4.4771945769400086 10.437963374061855 -0.38318615941445616 -0.6293263496847871 -0.5224818438247065
Ni 8.77465813668146 8.439755272951256 0.049092254202614705 0.2963926586679798 0.43197772699586245 -0.5823592369066294
Ni 8.57254808763847 6.658665706478233 8.082268407059978 -0.22922053169685683 0.8074724313033319 0.23356775292195903
Ni 2.457901552029605 9.09681557344947 5.772417846425174 -2.7349397682603027 0.20433945218446095 0.16527513919314762
Ni 1.2538313774055414 1.6137965207616907 11.231900056964776 2.173633238258915 1.4716115177919302 0.5228957914336736
Ni 4.925781431746714 5.813936447427815 2.7460292578185217 2.0382435737712896 -0.22657023855820332 -0.1954336650543989
Ni 2.2737543561906386 8.68189043473516 1.0158505912666953 -1.2427900213057048 0.7355813015899848 -1.0856992176955624
Ni 3.954436418006108 5.530397281681938 7.317363906143082 -1.1746807272322932 0.18213874771770566 -0.19468161737972278
Ni 3.175083373132366 6.331197675142642 10.81339352780875 -0.32550885930764584 1.1966911700651133 1.7359134665729525
Ni 1.5849329734452668 8.78569858328248 11.845430252307473 0.384495365144183 -0.9167090915446728 0.2900055241947134
Ni 1.64342404834924 3.537638595944282 3.0423287574587086 -0.5714310200298998 0.8625932835368758 -0.8420195731505823
Ni 5.604335664994765 7.7184740455156255 4.145437075887024 1.1401664955055075 -0.05312233374627625 -0.7016527671633399
Ni 5.971586571424331 7.064888923567773 0.9104352891002405 -1.6842229801771962 0.7981845782435028 1.3610821068810945
Ni 9.015917516203341 7.188066767037896 11.518763468573306 -1.249810418487596 -0.4781457409114927 1.64124647661567
Ni 8.072569584349713 4.997996201033222 12.470905558694195 -1.638745050350055 1.6599358254950571 -0.4762577798601604
Ni 8.580159939852 3.9776260142845388 4.0760015177575495 -0.27393355833351535 -0.36846505115419764 -2.6023448929089956
Ni 6.567640252223405 7.736772304692339 12.49528677785893 0.5292345891675079 -0.7940605287728002 -1.8868593336276214
Ni 5.501571001695813 5.848501896279956 5.542907924463246 1.2613873246919178 -0.9694002512908014 0.8265639007171441
Ni 8.846910173298266 3.2938264042969307 1.1031996233875474 -0.4552516099221385 0.4843976353584754 2.187136929172304
Ni 1.517404570943834 3.0111257534827773 8.748775044105683 1.0312478807252174 -0.04012952103103412 0.7695358041585586
Ni 5.68379893002439 3.610533494008743 7.5781541617913115 -0.9147895059244567 0.606896045705729 0.13370379214476974
P 4.688081082268366 7.840002809620026 10.625596928650273 0.8080288180274342 -0.4337186209463692 0.9349104450440481
P 7.143364604344479 6.013083743712049 10.566007399185741 0.2183938733949981 0.7465897368853465 -0.010359745967769255
P 1.0301901282824177 2.1014488545541177 4.715426917558372 -1.6112468449297863 -0.8802750170873549 -0.30203828698953145
P -0.05272395554023317 5.2357058673441434 2.2220477987675626 2.2589172443394 -1.9675855451340953 1.266262393396032
P 2.2889035259571027 1.0892308963082982 8.464352642631724 0.17080815319623485 -1.3049168725434364 -0.7046468167946575
P 6.888027490802224 2.747841381754301 2.7095669018541715 2.483692852891026 -3.071522111773291 2.0357436901675716
P 1.0341963662895393 8.23352718391025 4.224662761685995 1.512186868111131 -0.49161240793935984 -0.4506346799754175
P 3.1329153888992693 5.286324218722495 3.4733394076132407 -2.1147405776877646 -0.6900408939560244 -0.7266811708868776
Ni 4.995499289903202 1.8572174054409045 1.4122939292025716 -0.7497251971905347 -0.3857066118434648 -0.2474326838295093
Ni 2.9070753672885163 8.01490770754489 9.005502229068084 -0.6902254991630049 -0.30312612073707146 0.10668149791965498
Ni 6.883238638858828 8.473547424699696 9.964872317900427 -0.29342714828175276 -2.41212439662442 1.518698186867088
Ni 3.952628952486616 4.103897046169462 5.1261473697317195 -1.3316337197129906 0.8750050269376671 1.2281753567163234
Ni 7.64931519731362 0.014570594463574952 7.986842612780117 0.7954018732920429 0.8925630904260885 -0.7304321532888776
Ni 8.138672511467217 1.1362063661499409 3.782416011446373 0.5328217922981341 0.4039066797912592 1.756473550112491
Ni -0.26063745959400403 8.385568574696794 5.896178923614473 0.8314186577062842 -0.8188521338951833 0.961687713137892
Ni 5.31915673671574 2.3801805346914486 11.674323827023317 -0.6233642185640813 -0.7162239801092956 1.010986302262704
Ni 0.6504667780851 8.792947079025597 8.392204022856497 -0.088570390141241 0.7976865555611616 -0.22051451928242666
Ni 3.61716707880193 4.061524091619722 12.77747313951496 1.2837322680460215 0.36820125596984976 0.8318403186247351
Ni 8.81970502218014 2.7244933993221 10.430654318907001 0.6191740917421337 1.268587956205415 2.327285705611469
Ni 6.649181170917188 3.777239579267869 10.313220302719182 0.8607171495600853 1.8333379646707133 -0.257097460612783
Ni 9.091355909560697 5.156354404305415 10.137177819536948 0.6439361291781619 0.5943287505636796 0.7491484987514582
Ni 7.59899498457766 0.9012815010955967 1.5382910462097985 -0.3355487600421511 0.20922969039722675 -1.4014134595102898
Ni 1.8535931575693458 4.16535087383219 11.397278493582007 -1.4655079759973535 -0.4200917741915539 -1.8781841744511267
Ni 4.1765497065869805 7.600849034260024 13.051954480631712 -0.8442749448436622 0.785564575486647 -1.401382092051722
Ni 8.029283580207652 6.204898692759994 0.9451116082600203 0.4211793508287779 -0.5719362418010924 -1.4489459578736141
Ni 5.7340539249323275 6.084115275261571 8.724747864578786 0.5673414233415583 -0.01065439439005262 1.1876159472367225
Ni 0.2308338438707929 3.4386006656752106 6.045317189370743 0.513994889399618 1.5691506870906846 -0.29560615821094255
Ni 0.6787060976190189 1.2787073203799932 0.12717103791163928 0.16053813872879447 0.5299907506072421 0.11077263726989309
Ni 3.535029882823366 0.31516794897047173 10.707086604764894 -0.11982754838330978 1.1123702992288456 0.43881506163267003
Ni 7.187572974911436 2.71624800249349 5.555999005913959 -0.47197406488314203 -0.31008506855340795 0.5573292905211951
Ni 3.2081953961028535 1.0567244674551661 13.2288829945918 -0.7450995254930651 1.027289667408418 -0.8242385950180773
Ni 5.36547071144458 0.4091002549886076 13.324213757179399 0.8040472076718669 -0.5978881857801639 -0.3081752531252048
P 6.846567585844803 5.5998356348611855 3.9079230630601702 -1.466238683515791 -0.16143159707734134 -1.2563032253007913
P 7.24497398040417 0.47874451016775527 12.437701299081217 1.6059683701396663 -0.05650256307241882 -0.7887190619552287
P 5.036260432417519 2.2163906180282043 5.438128030278387 -0.22742461613869863 -0.7656287557946685 1.4376325897433242
P 8.097799566962003 2.1684927817616666 8.718366765948373 -0.2587144273909157 -1.174870474645596 -3.600410116234657
P 7.188197202693941 9.108647950819343 5.504099590056587 -1.8657300078481738 1.234166541302752 -0.8793579045897243
P 7.778409229468677 8.051103602097601 1.9779067229303244 -0.9255125487689158 1.4027208654678036 0.04771478957745976
P 2.4335846190096353 2.3164161325501946 1.2197429503812254 -0.18012891637652848 -0.14293456671441834 0.06693918502471051
P 4.236419672712009 8.8754755819723 1.4830925399377248 2.9806423567725826 0.06752128278042566 -0.2935150800098687
