# total energy = -340873.126417072 ev
CRYSTAL
PRIMVEC
9.26749129260175 0.00000000000000 0.00000000000000
0.00000000000000 9.26749129260175 0.00000000000000
0.00000000000000 0.00000000000000 13.56391027909829
PRIMCOORD
 96 1
Ni 5.150862248894772 4.470934234244399 4.189064421211433 0.012784296248861854 1.0223145827913296 0.06705128512254258
Ni 8.73363721245844 3.382578622259303 6.919275620404709 0.5061360554768315 0.6558344232776447 -0.17010007138561672
Ni 3.5186068556481316 6.2013416250262 7.745060042684873 0.3289546517644012 -1.0571275767054569 0.6293155510515097
Ni 6.783692226585485 9.141416085420822 2.2157597974395897 1.1815463440038747 0.6223877135834248 0.2825238711056876
Ni 7.048306898063291 8.623622826400478 11.424419871049947 -0.9648725386237771 -0.4929136432492866 0.24106766084342998
Ni 8.505517920670322 8.688958638186227 13.381515653004305 0.9323588822667879 -1.0379939411997994 -0.13604581001438507
Ni 0.1532898621877133 3.221973002649792 4.4799422355289025 -0.6921070324564338 0.10548902027345058 0.2660191885824451
Ni 1.8999376042565137 1.6584175204340408 3.6650498954603394 0.6636906860972699 -1.670082427010756 -1.1583966453602887
Ni 1.3598745642828132 4.018458252027737 13.42018703958864 0.9049475801333705 -1.0328455642296406 -1.0932168662288462
Ni 7.2837753102409275 0.36581289331565664 7.117092070011687 0.623865326570216 -1.4903726004495172 -0.29979602792257404
Ni 9.053893900101018 1.188277700307643 5.865238454465544 1.4399432401543717 -0.7707740474410338 -1.6212515215509822
Ni 7.353800472489598 5.357712648761147 7.256352804272979 0.40107692365194797 -2.0859663337685497 0.6283398174018017
Ni 4.941565231395569 4.148295801406228 1.7485911349385126 0.19798368516976225 -0.5962107980777409 0.12856441403567537
Ni 3.289060370240863 6.53351630613778 3.3687737676158913 0.6409006847859477 -0.054663452981151016 1.2356269278983625
Ni 1.502909020892922 1.267375736278051 13.281889197645723 -1.254663118594207 -0.5169043497369292 -0.012215311119269287
Ni 0.41178984308165456 8.447123459668617 3.7843855239997364 0.6309091207908748 1.6469856930922926 0.6378796385714369
Ni 0.6100131355450005 2.3116180909439734 11.174043772795919 1.0696902438618159 -0.8410929475712547 1.3860840282420708
Ni 7.060150751604026 3.2299801149026846 0.7104801523403139 0.216850183056962 -0.01675690774336469 1.20886945729886
Ni 8.960700010268747 4.843005464254937 1.1395992769053975 -0.7096586681869521 0.2963546063411928 0.9748363347047082
Ni 5.757697561764406 0.7616033398771809 8.770071426707306 -1.0596382589424524 -1.3278308010271325 1.2757502782818095
Ni 3.9032262685179475 0.1937035370863373 13.175426114151774 0.25474695810273545 1.5207213879447035 0.6924469322943558
Ni 9.268788482184418 0.6886663319458034 1.5273909519559599 -0.36018352787169583 0.22841911884148405 1.1054226642664189
Ni 5.822987036094989 2.97673665492291 12.403218911034132 -1.47858152135186 0.5121822616709114 -0.8818382478094167
Ni 0.7179145336473393 7.7265111593814435 7.961824804458821 0.35139601148705285 -0.2371395294336174 -1.0558651650532653
P 7.148164113948604 3.7074690554185996 5.549375484321921 -0.891096276072575 1.4601549392155564 -0.7990708375031981
P 2.5867328297626657 2.214105550290121 9.717510203783432 -0.18296792848722035 0.6028146765475038 -0.4809574993286749
P 0.814831174627742 4.925662216782187 11.076614639561367 0.2779575918912439 0.3125078190622876 -0.2709199683181721
P 1.7857435797424692 0.034055249300581 6.625454450935019 -0.011024890355593916 0.4131929901891916 0.19299317393370632
P 5.288771782963388 0.8298278286180542 11.587241347765554 0.6427930167126542 0.40214187458135264 -0.7951090246419725
P 8.121630639592148 1.889678491682496 2.987370174134679 0.09972177877237019 -0.1458784798340907 0.43052916747479403
P 5.2768537894943846 1.4208917252469804 1.1805161765671373 -0.7697216949171196 0.14259723797965765 -0.0023325047879185637
P 0.11295310746466684 0.07946780886264239 11.516695352520804 0.564209562580796 0.7949961532131922 0.6912099745634612
Ni 5.64015797298729 8.156615418243382 4.6893421221785765 -0.14651662763872186 -1.357261447583424 -0.2099323728912062
Ni 0.4382698452115019 3.518857077906034 9.298358265824813 -0.2741770418028891 1.3426151584251587 -0.6031298937950774
Ni 4.546084319034562 7.577202611341696 11.62177479960346 1.9310843648842677 -0.16826481794909087 -1.4690748674130054
Ni 6.921008641227963 3.8983979056895253 9.541017324295296 -0.757032015264593 -0.9083265239079323 0.4965656381795771
Ni 3.5115264924985836 1.5631477126102802 7.519967513468275 0.5904990924049442 -1.1883798219859403 0.5897277614565586
Ni 3.9148384347828475 8.315719704305476 6.906485556029459 -1.0279730666286877 1.7249384556186875 -0.16807224232231055
Ni 4.857193993027133 4.995483494228121 11.101083596136958 0.41706044356439786 -0.420095887956612 -0.9294270533319735
Ni 5.654559654053255 7.771022918815055 0.6918098649043462 -0.06483447997688188 -0.347787211089872 -0.9046634732340484
Ni 0.7723286072501807 1.7342163295965443 7.788559792097633 1.3538148837957198 -0.7396742407124357 1.575819871580744
Ni 0.3019626603425669 5.595720353481946 5.262430793199043 -0.8246607701571603 -0.32464831107956343 0.7620924605066359
Ni 8.188217562667411 5.654040674555382 9.562908991614488 1.1056265527471087 1.6778322461595037 0.48709138014055475
Ni 1.8743500615131867 6.66537416856156 9.997212350663677 -0.18810730659631475 0.8689845317752002 -1.5646520278893827
Ni 5.867220770797597 6.380649041541192 2.9533112178376846 -0.835119246486323 1.2912923397814664 0.14851077525061518
Ni 2.8405138042223794 4.093487859434465 2.987939198084132 -0.9333567274036829 -0.1558201644278349 -0.20919266651170426
Ni 2.8026746383328454 4.681834527692387 9.66086729858705 0.9326998105459744 -1.2367489573179473 2.1889300165169847
Ni 3.1468414528416964 2.220185024408057 1.257552195782605 0.4729009475727856 0.09117028965793329 -0.4368391688532218
Ni 7.472340950298325 4.096935366098905 3.0404182195591916 0.15030514814687662 -0.6122452258327842 1.8707948239655907
Ni 7.172037170850745 0.5827630049102741 4.5910854019947385 0.6036901371739216 0.5110085530777845 -0.29225626790210313
Ni 2.638399092274092 4.604951422078971 5.357161233044657 0.615309723690721 1.2601169426199266 0.11522707349682093
Ni 7.579083912021485 1.7615368931631246 10.995746512803573 -0.7998591377324482 -0.41493054170558863 -0.8335007370462935
Ni 1.9606118680524436 8.328203014727519 1.1395816686724338 -0.17129434880403402 0.8560464835572934 -0.7304159553389614
Ni 5.809410161731 7.032876525492613 6.992073615970584 -0.5344811822784279 0.8293157524306686 0.48146297821018363
Ni 8.04178193684803 4.116369294796027 11.720560693525307 0.5780104730196304 0.7543177016572234 0.37546796483459205
Ni 2.7311018050815896 5.699238228325468 12.205389486939707 0.31217203298942364 -0.7413842814250071 -0.6120493077718943
P 3.802970550518196 4.019588885933817 13.375289752528039 -0.1200005836260643 0.13332635420069294 0.23780698781428722
P 8.010939726688742 1.6125619748005808 8.75707747752932 0.020959375860486483 1.0984765719658889 0.5939970782558739
P 7.749846701803644 7.532653781943951 3.5445891935094833 -1.7372021034773888 0.391371523438726 1.8934297877562878
P 3.9086014133173426 2.5999204695032505 4.299868397505445 -1.9201278658727643 -0.10092685482406488 -1.1835659455370648
P 8.816127150147087 2.6194656080927747 13.255941149501194 1.1970192428284934 -0.6167971068695248 0.166223619149346
P 4.25415835148121 6.338380014937673 5.507774643821913 0.27533558088736454 -0.15060828120959224 -0.46442479178097434
P 2.4408347184232237 8.502079681496914 3.164080839662101 0.08034414557670679 0.6911978903786031 1.4690692109860506
P 1.3443144468376678 5.787789105149985 7.317227245875231 0.5605758224829508 -1.5599517942002359 -0.5212335732399023
Ni 2.089161236177286 7.149683982478088 5.452474598076274 -0.0709696463403423 1.3183454872445166 0.7112807771714073
Ni 2.1122372888505514 2.4045154210631736 5.749171470013641 -0.3359727349534472 -0.8734387108918118 0.950000506607951
Ni 6.338315142500439 2.7328718958689766 7.64776621481941 0.8221814553787324 -0.9907944006958613 -0.36847584978747505
Ni 3.8835050475987876 0.37117042988208815 4.622078672257871 -1.30590751859148 1.0012878440280173 -0.044299593248323714
Ni 9.083401591551489 7.1852062756092625 11.186264813221715 0.51361488035238 -1.5217392876862568 1.6705287705195555
Ni 3.255298900406042 5.88635813978165 1.2072732766788843 -0.139094881253354 -0.7037389602684073 -0.7059148848738036
Ni 4.8975261140046635 2.595713028574069 10.149859975722775 -1.0726614106749979 -0.0644236176917084 -0.1706546583375061
Ni 2.154107813339632 8.230051017192357 11.574654241443936 -0.47348715909355876 1.0874128579525595 1.1765848862335415
Ni 6.774767632720283 0.9716964348561563 13.310359856849553 0.08774455180583599 -0.3744642061604261 0.011862041544908603
Ni 5.740478563424275 2.168361214549062 3.139610956337407 0.3129927291185061 -0.31960946310407534 0.16884922969765112
Ni 8.552281680425057 7.893770837552964 5.785550079316305 -0.3906433870234498 -0.16711450639473152 0.36949066420523463
Ni 2.65334755531103 3.7432786407718113 7.7094682433709485 -0.5667636964612175 0.10425103410129144 -1.1195259364370205
Ni 8.953777194466769 7.307045980225895 1.850876433474587 -0.3172268218045117 -0.584840094346954 -1.0525708105727098
Ni 3.097825692765834 2.460352054539648 12.061476472179628 0.7689043412221468 0.1705055343541515 -0.9511713869876006
Ni 7.791745028765826 6.408201292383607 13.18112284089003 0.1594292219353319 -0.049163606208844364 0.4932471153293054
Ni 8.70260038498745 8.733108965469533 9.5800677512629 -0.8796363550620916 1.8551368057133597 -1.3858762831066391
Ni 6.919581447608812 6.144457765062946 5.181942633573618 0.5930732808900238 -1.3498607842439785 -1.985549071591051
Ni 1.9351911401477184 9.406225374210328 9.25853493010502 0.8868107613233437 -0.3927655755727752 0.16269143762637142
Ni 5.482555020472613 5.52576006367051 13.392733024151179 -0.008809113651197732 -0.11767116416193928 -0.816595990871155
Ni 6.141251213165376 7.438523875517304 9.411752505862673 -0.9348271413016223 -0.3938575230853733 1.356719973257657
Ni 0.7402241648121388 2.945885177272589 2.1832744611200736 -0.2980330224848803 0.7008474976532252 -1.0474070069835832
Ni 4.823488128138513 3.2100272067076885 6.050955267779263 -0.5043684220534475 -0.3458167176270625 1.5086402884104535
Ni 4.39151183608782 8.966343912308112 2.3292077889254426 -0.3822335656931998 -0.0628174495468531 -0.21296601751120742
Ni 1.0190903840011671 6.418061902843188 0.15475597926920345 0.1747303710687765 0.6256067347413548 -1.26409083966601
P 7.732924263176584 7.300123164423915 8.024273792787655 1.1840729670804704 1.093918263171245 -0.9308879541482161
P 0.7064997649414515 5.152539664771825 3.210984538531443 0.6710975200843022 -1.0674335866171552 -0.9528289771956816
P 6.760245474270883 6.0943113710810035 11.344474786399083 -0.5804638196561294 0.4928660778408028 -0.6474096895490592
P 6.908441923386618 5.42820118556149 1.4985134498957615 -0.07332837638050597 0.07972013883946272 -2.435264582186309
P 3.450351784186848 7.420174243271093 13.352231308087738 -0.5771087871409675 -0.16801927759718804 1.1084699357331746
P 3.8695296711203606 7.941794976088249 9.532594101695002 -0.767847103602226 -0.0768181347013193 -0.8539466636054712
P 5.046862464517511 4.2910151633212 8.366613058064713 -1.197038268991887 0.5849413958115087 0.3850882615331755
P 5.365914378325741 0.6151454720793192 6.178753969130397 0.27115650980901046 0.6668462010071161 1.2547816464499422
