# total energy = -381166.20903199574 ev
CRYSTAL
PRIMVEC
9.28302980820278 0.00000000000000 0.00000000000000
0.00000000000000 9.28302980820278 0.00000000000000
0.00000000000000 0.00000000000000 13.58665246733437
PRIMCOORD
 96 1
Ni 1.8231777683126238 3.421594819277475 10.212108833575106 2.4644311764479365 -1.2517143203785281 -2.904939566622629
Ni 1.4998591236527203 0.437636371651586 6.947032394728227 -0.010282612872930679 -0.5735475521522703 1.386885955318076
Ni 2.443952536629172 2.8616424621645695 3.7507450632533317 0.2838510745575434 -0.5025048864821474 -0.2850407239902704
Ni 5.350831202974962 3.3561494592369248 0.16746121595056787 -0.7496889446359605 0.4674319540384143 -1.2928442576496186
Ni 2.9697619101634753 1.471248825830738 0.33339351689423097 0.5450903252528418 -0.014507963808187916 -0.530138589039016
Ni 0.5153817461678423 9.287392816988532 13.174719097586065 1.1114395598844602 0.9198769477496932 -2.1030338307737977
Ni 1.4272843967311573 0.32894044750253565 1.8843195157411459 1.0721903845758503 -0.3545175878351701 0.561536129513691
Ni 6.7416147265600985 8.201686784520081 1.6143931452385796 -0.007311960280380956 -0.624503217264531 -3.267432202243476
Ni 1.5566341338666216 7.162739373118901 12.249848054401948 0.7797561963349862 -0.5125005642422786 0.01071250132149768
Ni 5.312204516006347 2.043055611989286 6.979734652082957 0.5454410237240412 -0.6237097748289581 -0.43450332163119365
Ni 8.213160609344213 8.268914486280885 9.624390934351378 0.724662597794952 -0.9590770149879224 -1.326464002586593
Ni 6.1922914385601615 8.243701777363135 11.05790424407363 1.2095685402484135 1.2759870768829638 0.8272696685349172
Ni 5.878218691574072 5.838264531345061 6.51365879035758 -1.5494997456289767 -0.4206859561321271 1.0844450335734872
Ni 4.854838921135729 2.6134142455001284 4.323259216282105 -0.28604653954696546 -0.16947709308963715 -0.3243379789279962
Ni 2.9054397967278764 1.4415616965527696 11.366375610882633 0.9499218308512155 0.4738070043268227 -0.1646393053813616
Ni 3.2385334717597942 5.5426185984980485 9.865281844267445 -0.07957332884895328 1.1864170418326148 0.3368795630384327
Ni 3.541188092100511 1.2821535089476166 2.5964504368564265 0.4980949303399099 -0.6520309903711544 0.4638869169996333
Ni 8.869712174482927 1.4635624771621458 9.127173292579473 -0.08766510471815225 0.629445905981787 -0.4764619254511665
Ni 7.959093366939983 0.6397780586057696 11.017266852851854 -0.45915865828602864 0.6057745305067761 2.09875268689994
Ni 3.883277023001832 8.040719047909707 10.89907717413352 -1.2979972626054677 0.11869163500665365 0.6442788572295614
Ni 0.3013791320471607 2.2831983097040367 2.826091242966372 -0.323891635419197 0.40387299833984636 -1.0066323961693826
Ni 3.5499976873740544 0.7277124866228072 5.211228359433145 0.2907336606099896 1.2786813358856752 0.7772601693860098
Ni 1.8278378492687026 5.64941985626635 7.431260292910809 0.44098121604605345 1.0236086190124047 0.005405487286287465
Ni 8.38865628758061 7.160947748368855 12.338759057153208 0.10553221480656019 1.3056869179402415 -0.7105991777233505
P 5.156156785186256 2.9810686404513325 2.1777774384659514 0.11695485482120503 -0.48718625384720615 1.6138508582115365
Ni 3.034241835105555 6.272515382031146 4.3621439714789645 0.49746758116855616 0.26835503580447334 -1.1743721948529386
P 8.69825461420648 4.20797883910089 5.896689135953177 -0.3515687896194913 -0.9037959830274306 0.7230152919995161
Ni 0.7589303875136392 6.542345209023864 9.501567167160383 -0.6084690466198037 0.7510799114462161 -0.4386623381048897
P 2.8779713115704317 8.961799830029348 12.688642948171701 0.024725527771138064 -0.3107484131690197 -0.47070676813494416
P 1.5926522894634068 0.9661034766156211 9.246654240742014 0.2832355524607316 -0.2590640974208506 -0.422081293817757
P 3.3667321132009285 2.66947446241997 6.367248701068566 -0.7002664283387747 0.3620200668598023 -0.24976210329363435
Ni 5.215679572218881 7.850305540795983 8.89692073480617 -0.3553969051163299 -1.6952162459639064 -0.036418647838350186
Ni 3.7843756235873607 4.808525885498522 6.020123726504551 -0.017128946370802756 -0.4031232646580154 -0.7425834439394308
Ni 1.3988040613262767 9.09127024655212 11.012783149461843 -1.9307205537869463 -0.9417490652324362 -1.1832550991648654
Ni 8.38735666340959 0.6974024660457292 6.945388370151889 -0.919026941044572 -0.18718916565741955 -0.10594744796710785
Ni 8.473493896858706 4.14887378840895 3.543847680136202 -1.2421076505266995 -0.7811826443688675 1.2457992404456737
Ni 0.644486411316772 3.7918948777196797 8.016980484123083 0.6495714730870684 -0.5878919937994005 -0.9738372040162324
Ni 8.12090585926152 5.31830346658034 8.187601643415183 0.15463000077447564 0.412752045997031 -0.5908590468475243
Ni 5.154114518631799 1.2266966889643194 12.18748558855565 0.28028032648714957 -0.06304447795599466 -0.39960599553337633
Ni 2.3846618253413716 8.12445197664244 8.969554873118406 0.2011970499007374 -0.38216157480468377 -0.9427098864838088
Ni 7.317116158576255 3.117529178408224 8.022483464184367 -0.30385554270392834 -0.742759821616295 -0.5739697272913534
Ni 0.08799383940771267 6.16084981665132 5.7591239174509194 0.8997657788221151 0.14791582197909364 -0.7654773178184687
Ni 5.373918098070117 6.165129293385886 11.076871330546659 -1.1494427786011108 -0.799650878376384 -1.1706618358808871
Ni 3.5231047500637747 1.7353603064709777 8.900684075084246 0.6420291419634363 0.6436180837171109 0.5747539137555456
Ni 0.8542800997293138 0.7312548907918106 4.399575004210242 2.0534192530704636 -0.21788196675558608 -0.21283154881587216
Ni 8.893634542259452 8.41231873052293 5.252368890869699 -1.1912897965438838 -1.1998268874806175 0.5516260694888305
Ni 1.5285344026832537 4.50271503502819 4.767760388465605 -1.1945939212164522 1.2738432910670836 1.0271073761942826
Ni 5.6980350832922175 4.807606865549017 9.023711140627707 -0.5805013577622842 0.8559593231601258 -1.0912857106444043
Ni 4.7325257205833475 6.375436333345979 1.2315879173622437 -0.3560633350557352 -1.2504871328396465 0.1687353298276062
Ni 3.5559388264415657 3.9591286594403194 8.236568697270206 -0.3385721202495072 -0.39241899086663384 -0.21153905525669375
Ni 0.41270029702166744 5.651369292522878 13.647520514396462 0.6218477819195548 -1.604610056339559 -1.3925632082085113
Ni 2.3928680236783713 3.465865588360224 12.668806041807068 0.23002220166254578 0.9060572682577814 0.48519750555195157
Ni 6.401920817345368 3.686513923509704 5.5031647935748795 1.318926299448651 0.15824857136366938 0.9854663036147286
Ni 6.570444940207232 8.230557007176268 3.6999167619248174 -0.9743136294320188 -0.3109546156425548 3.5074989326262176
Ni 4.307929220881968 5.24294383072088 12.69468898547587 -1.0814520123834344 -0.4667133307048349 0.45569461099682806
Ni 9.285257720136146 7.681502927040328 1.02170418356071 -0.7229163045278066 -0.8961700910510566 0.8466511583853225
P 8.495689621093737 3.8126888644559678 12.196193998804448 0.5540215663042006 0.3277776007371645 -0.6001371297153407
Ni 8.571615521770566 0.6455158993208141 1.284759255410508 -3.321254904490886 1.1004892315205435 1.2210767979983295
P 5.4849524174240205 1.7208602139343339 10.003037364880457 0.2190201941250873 0.5558629903883137 0.6855792586402452
Ni 6.247070597368571 4.9403170594695425 2.234705618671437 -1.4453554123088785 -0.5094823462412451 1.069650648873132
P 8.630339968240996 8.569053405547702 3.1213027300190728 0.7155256684906902 0.0562181990627806 -1.3531209430524889
P 2.6458955667457857 8.700733183161207 3.897643439909457 -0.2196370017734798 -0.4547780127198297 -0.7781474570869695
P 1.8829976122986245 3.0522416298741546 1.4973851962128895 1.925320208706981 0.6654475208873765 0.797263351980814
Ni 1.1757142893412411 2.487304285762416 6.096113680086953 1.4996895069750689 0.8705302789957652 0.2089350419749434
Ni 7.388966809173966 2.9495527543041455 1.4920864428070535 0.46592374492400407 0.276068345288331 0.5824780218726808
Ni 6.561551797665553 0.455161803597764 8.552132298841048 -0.3204221888133579 0.7326358458084156 0.5273461138955434
Ni 6.38958367075049 6.346983847030478 13.246700638903857 0.8517146889511589 -0.42724226919340613 0.011485632042096348
Ni 0.018533568981696207 7.493011007093751 7.512264010884404 2.005618074426785 1.7230407243753423 0.5426030400546138
Ni 8.69523762952376 3.756396571791302 9.847442645914263 1.6516532737712908 0.07129000579423851 0.9044580420914616
Ni 7.420789035304321 6.208091155267825 10.360610389476479 1.3363000148404083 -0.47319765287759796 -0.5260505350125714
Ni 6.78057560260126 3.893274846088878 10.713551182205801 -2.3326112315894405 -1.2084907338032025 2.1946746323102464
Ni 7.267776855226535 2.096256655732888 12.882700972782152 0.5821052119142943 -0.052721241653115654 -0.1946332806402906
Ni 8.506634313219665 2.206910370865279 5.116461621488469 -1.4881480819943727 0.6396853243216081 0.3438392821857175
Ni 0.8909944825605728 4.849686839600622 2.2603434903537054 0.22752360361040813 0.23534027144134953 0.3770337666598152
Ni 4.9063690195165925 8.279339328738407 13.359035510731758 0.08693054054497286 0.3306772908824628 -0.18329240170617467
Ni 2.5094814439378594 7.861658686232804 5.973439369675624 -0.8498025595301106 -0.5134207620637029 1.0216828627446017
Ni 7.2854703100119655 5.768047693990916 4.769091574937918 -1.738749907580483 0.21909424189613236 1.6284081872004212
Ni 2.64970160896091 5.261881211498571 0.7402714976297378 0.22597605661763018 -0.6371610152378576 0.12818543342970182
Ni 4.153747379050268 3.438601329858225 10.995025641770841 1.3070647721243747 0.3963201256932529 -0.9135646323784202
Ni 7.236028893334524 1.3903936363338314 3.50664686654379 -1.0102867050925182 -0.498093130567697 -1.4481244904135835
Ni 4.926299684482133 8.020157136918245 5.531588502498023 0.6065096089005877 -0.34929747708681136 0.12629901504026636
Ni 7.1574944612858635 7.2802346812087215 7.584925069983042 -0.9953887049347631 1.7964567753736482 0.13314046344213198
Ni 5.500947077757336 1.0601684175079467 1.266864358878569 0.8089505585107551 -0.46003977533940127 -0.6302439764030501
Ni 0.3160834512392503 2.5774425050523084 0.23312936870614961 -0.7651926966985144 -0.05681238100335377 0.1687371295998191
Ni 3.993475869674367 9.264045997059172 7.580740280152362 0.12270127038667901 -0.4187077493598337 -1.2291171518043027
Ni 0.6370033610006463 2.2605848491283234 11.57499870923828 -1.9007556319937393 -1.7586062801847777 -0.114705396665396
Ni 7.962231031010012 6.295268088053754 2.880465661675807 2.474547696056648 2.436865865235158 -2.995497162397228
Ni 1.010049339655616 5.15856108990264 11.050377563517477 -1.015663138913083 0.27872789439836515 3.2216642519797416
P 7.884504222553343 5.159730751656555 0.8846253958196053 -0.7580841106781911 0.03663384917294981 0.7252009867969254
Ni 2.6892380328492367 7.624505124111395 0.8089724162186879 -0.9684000921610612 0.23961344489540667 -1.2946337454498738
P 5.160872564321092 6.361502505626707 3.848677314357415 0.698623750529029 0.3109708135924709 -0.32838309553164735
Ni 1.4731054317893353 7.312103322488042 2.742316540599571 -0.5348154256893951 -0.8956342731522446 1.3441686189552076
P 6.566128331353495 0.5022787496150428 5.40862920307205 -0.2140865042688958 0.22949589684543056 0.9624338472752973
P 3.8155016224832425 6.646556501479924 7.488718534117474 0.47818764989302165 0.3107838943926454 0.09906589035592615
P 7.087231208782754 9.173452909309423 13.205899866357726 -0.09806727388808273 -0.292178106366 -0.8058436374506573
Ni 4.149013033855844 8.151632687876301 2.3826501927852317 1.005847438374242 1.2393084905150076 1.9635710246580633
