# total energy = -381163.3244638064 ev
CRYSTAL
PRIMVEC
9.26124563750089 0.00000000000000 0.00000000000000
0.00000000000000 9.26124563750089 0.00000000000000
0.00000000000000 0.00000000000000 13.55476913154640
PRIMCOORD
 96 1
Ni 2.6263225735676734 2.7840230650752806 1.4611634018111312 1.8513338870275018 0.6977786289199144 -1.4646546268581226
Ni 7.906445836647528 0.437131722410631 11.609849431018374 0.9814800652734709 0.592261840732322 0.1962780153325652
Ni 6.856155747359106 7.290906403504374 2.7760306100499657 0.9470041429837884 -0.7016802779671657 -1.3237643442672429
Ni 3.893325811862321 2.0826504069325673 8.36111002326259 -0.818295490060765 -0.6831603647861074 -0.900010033622437
Ni 0.9984919421776598 3.0937654269775554 8.735140248205106 2.4728492253083023 0.5818918103519076 0.28763599552127234
Ni 6.092362293306053 8.616746335629644 4.4553713638099675 -0.11122052344058911 -1.7498755851799992 -1.27260427645366
Ni 3.9113018897350167 4.689978165602302 0.23958472134749836 -1.379177788040541 -2.321226643901583 -0.02696701550714711
Ni 8.207695636257549 2.73521630032046 3.692183595224649 0.259808688896359 -0.4190275945930977 -0.18573237860623495
Ni 7.53482909233027 9.11844653682474 0.4230981568256252 -1.088927494824873 0.9414274202269594 -1.4065952608215453
Ni 7.524150876056588 0.4067826203040753 2.8655599982020212 0.762988232848028 0.2457193006828284 -0.30071853973684337
Ni 1.5453962835564914 4.259145016381377 13.32692698256708 0.21189335327231892 0.620344457901151 1.1597151070613962
Ni 1.8562870399235853 9.118715112949577 3.1705142960856536 -0.853518060708485 1.487320958107387 0.3571784224967849
Ni 1.8692435226355386 0.3156214006624948 0.5646053602547119 -0.08677396036245057 -0.18555368693652557 0.9197293664282354
Ni 8.32706383187897 7.032073109127194 9.563472545056435 0.14888101410584037 1.4845552224367915 0.6143828410010773
Ni 1.114850232951772 7.898620084044524 5.271043537811234 3.9987128195755783 -0.6887142047248009 -0.47587879925418686
Ni 5.579872740889064 2.9496141379056793 12.61278028825239 0.9231743875540422 -0.29231643171607724 0.31574046706697234
Ni 6.593321594846427 2.9126895513634645 1.4168529718359053 0.216490228614382 -0.7675401138847685 0.22489207952483206
Ni 6.829057342487644 0.8139032760756175 5.739875578073721 2.7636399644084726 0.8651674720219551 2.554821393406735
Ni 8.899881138681708 2.947641492574981 6.248640257476593 0.9098781846657684 -1.3173476421076213 -2.581756270124367
Ni 4.948107605307495 6.290765959594958 3.9604327980887786 -0.532671896983831 1.7704228132037316 1.5619019759480715
Ni 5.634477045442085 0.5995915680752597 1.278998403704599 -0.7011480596127796 1.5267601379396156 -0.8883115142385863
Ni 1.6622732040889092 2.5968625510467844 4.6780487550367065 0.17035229660573886 0.23573879243134882 1.824363014865613
Ni 5.773599478107536 4.970630954811049 2.238285640652637 1.2544432892739168 -0.2806942740961166 0.8127167104214068
Ni 8.718425551994573 6.972236200762697 6.507156817251379 -1.1457506744615042 -1.2753985513693455 1.0102499383173118
P 6.547348771270918 1.6000654168293014 9.146419203288774 -0.4258500168315698 -0.5078160142824157 -0.46406355178681374
Ni 6.588765061969886 8.79319158840172 9.954744431088903 -0.9341391140956621 -0.08630987624183846 0.8586839211801406
P 8.437105953096577 4.629937509832756 4.676829048980121 1.2708502698770305 0.1846895391640174 0.8899050839779512
Ni 4.876870103505961 4.844909544650386 6.179781969691286 1.6490135221555988 2.7521116520538986 -0.016412122809436252
P 7.373924209815989 6.900313366780546 0.6236458014903825 -1.2537028115634665 -0.7445477667546532 -0.044909716028496846
P 3.293391577696752 7.968477660239139 4.535452429115178 0.801346263800936 0.4243063264935337 0.6918082702690924
P 0.895420760586421 8.136930457985901 10.457368904603266 -1.772275293031438 -0.9971995328912568 -1.0635499352920328
Ni 7.236079829054936 7.223327093748031 11.919128730636448 0.7387375878307793 1.9379384116916238 1.0235636247070823
Ni 9.40775859074805 6.300425438843397 3.356811662016399 -0.8460225236623883 0.3307284558353723 -0.06312881013968483
Ni 5.663622185609718 0.21368657391668597 12.216587902388 0.7623493137124483 -0.3816239571336589 1.2888662468384773
Ni 1.120073575517563 4.737784715823248 6.11232027775513 -1.966987249428464 -1.1459015982170717 1.1675549148207893
Ni 4.312943592559889 0.38132252979411735 10.48118419787974 -0.7199325393091343 -3.820440496791814 -1.8169245563096967
Ni 1.5730503631689954 6.0852311341293515 11.346629084560671 -0.73497195014076 0.03921317986435182 1.5551039791896313
Ni 5.583317924283522 5.221666280322277 9.341187830646698 0.23542743183851714 2.1504236329116706 1.1634447493071576
Ni 8.196887762544291 3.244575551696247 12.811913740701197 -1.2490051489774812 -0.2515266513932249 1.2640782412605198
Ni 3.5138184862222728 5.649165381096952 8.020031310463843 -0.5308258449140277 0.0926666716978017 -0.9041929613555331
Ni 2.2184480523974512 0.3435181249119202 11.366039729389824 0.09939781977404817 -0.47348253110786853 0.5257270902348816
Ni 0.459521709976334 4.110251969519279 11.351618117610657 -0.14175674435623328 -0.7505358660172882 -2.1468865662926895
Ni 5.006314534431604 7.074258083217936 11.362705680943575 -0.8397765427526763 0.2097883911141742 -0.1278370489513476
Ni 1.8674931472012577 0.18213165762207004 9.011996852807968 0.7220274741649501 -0.5058303513109547 -1.3686298373213655
Ni 3.183062357862941 8.05525553229847 7.2457420866770805 -1.9414027160911402 0.7603999032955614 -0.34437021498852305
Ni 2.698949262221811 5.7745533864129905 5.195204123029308 2.4217930300624353 2.058642706252932 -1.2304921777749582
Ni 1.9961966784721776 7.002122240585052 13.397656041980563 1.513481932773471 -0.0144673403782396 1.1567444544688466
Ni 7.535820045618461 8.687724522552024 7.902118982663951 -0.030358814797515458 0.0551128818137438 -0.8430395297746642
Ni 5.704056784266179 3.4732357076348674 8.11151296920609 0.7350596247585599 -1.1944447972330978 0.5097345714613672
Ni 4.457409763985022 8.611856397908477 2.6203129512433083 0.21461486596854007 -0.4579049883845856 0.8675722248087059
Ni 3.663758053846666 1.3072711345287957 12.9196609252383 0.8922298754563859 0.02777228501726185 1.1952783488779866
Ni 9.091246258250754 3.6191651558780773 1.4960403269326077 -0.3591913391617556 0.7425086248374374 -0.2625073187744447
Ni 5.123932354618743 7.534514209977013 6.205956102243482 -0.019711362385998313 -1.2221854576814757 1.001344922518198
Ni 5.7828885075286145 1.6697562906016028 3.948761776277768 0.0858157102142393 0.8750556776699446 -2.11755542142874
Ni 9.120900766931008 1.210694864535765 9.51627445867693 -0.7248554305320485 -1.370212351317137 0.46068255112972273
Ni 4.653970442382806 6.681803536111619 0.36984321576876616 0.5540868723244974 2.803362222698759 0.7392471804773463
P 8.911976325545048 1.5170661330090538 0.6190938992366832 0.16401195621000786 0.4079173436125491 0.9685163060239514
Ni 4.376151594353372 0.44360440701919723 5.684694297914583 -1.3552917254515628 0.0032850985091749875 -0.385728980440968
P 8.573172174686297 7.896462213800147 4.412538102521344 -3.791464164164122 1.799709992203623 -0.7577172142570757
Ni 7.328358881050578 5.170377501724137 11.128099805275808 -0.5976274759196094 -1.5811307422706964 0.6136552188064335
P 4.56200627274042 2.7932009595481517 2.421491602774054 0.6320923424656985 0.4161677565467994 -0.34238480912737806
P 1.2979450601249807 5.929466242969705 1.5369750328560061 -0.4254957188159446 -1.6947130810752427 -0.4585827311779005
P 2.5656984593200343 1.9516130417492727 10.011308415228665 -1.132400478406843 1.4621228615752044 0.6198700893678937
Ni 4.679985281509237 2.4054881702320556 10.483054969507913 3.765436629752108 2.5613321979420602 -0.03813588763977303
Ni 1.398040603477942 4.435312431782934 3.304801432379473 0.6735351829915175 -0.5028581560565082 -0.4734354799200169
Ni 8.607142423855308 4.884075352648135 9.26350542797365 -0.9779203729466707 -1.8005139761621571 -0.7326409880147382
Ni 7.436474663165907 4.669103317830506 6.960523503346108 -0.09313872623821379 1.0267546208405542 -0.43569785615992707
Ni 6.374654323000872 4.110113050834019 4.364269416140765 -0.5284959112292704 -0.9349544109081059 -0.48195251625209257
Ni 3.6931162026650304 5.460643463952904 2.522136337996078 -2.623559836423714 -3.645685186022373 -1.5535039816923633
Ni 3.2623941883923147 3.1709671709996026 12.029166221231213 -2.2823479645585145 2.555468540072431 -0.299634048423413
Ni 6.784195868394218 6.2039788262899425 5.145186913463585 2.355266249984795 1.277743140342122 0.44560045998561965
Ni 2.68307548711939 7.295046180325134 2.5205230289979204 -1.6696515101209244 -0.7500915793910179 -1.4154236577464527
Ni 3.9802055576241755 3.708489870500515 4.365218693823378 -0.955039354583439 0.03272808636064041 -0.744863498222859
Ni 5.2348728166677 0.3333363114069012 7.765052546540355 1.1410702382666993 0.03959678845601568 0.70525565402325
Ni 8.159527897454927 2.8637160841863314 8.218595196303081 -2.71354844706872 -0.9226336845592239 1.1132994959113343
Ni 1.020996769189845 2.0022164881667948 2.5901805622857594 -1.557692308742098 -1.8726753288177553 -0.11105854394142807
Ni 8.735994135057172 5.520971218338654 13.14694671231741 0.3797771337329072 0.9890766466738063 0.3033960865690065
Ni 0.7807887660078114 1.8081563461036985 12.392298738377333 0.21866923854357176 0.6799968794564611 -0.054564465509441516
Ni 1.3804720204153431 5.705723808489304 9.169814962135764 0.2056345168468007 -0.6792517737603205 -0.9748103665627792
Ni 6.222538362640732 5.025392700540699 0.1150904262399688 2.731083884849322 -0.12208549117955105 -1.9354570400306668
Ni -0.0697306971287426 7.895452738020588 1.0443443695592765 2.577848193319212 -1.76879247668916 2.500448989303442
Ni 0.368317888604607 9.095673133687718 6.970567324290436 -0.03163999550278422 1.4081628624189813 1.2172306847793617
Ni 2.8136220062814306 7.36479262157154 9.999624427673696 0.5484543566290683 0.16792208989769145 0.10169741444150228
Ni 3.465687792402386 1.3835189702453878 3.7930450435956793 -0.5747649694991392 0.2063171447361221 -1.2597965831660303
Ni 4.664083722669763 7.623125808681781 8.970532403631443 2.62359994563303 -0.3530284048841533 -0.9454938769868491
Ni 0.15257902264434067 0.7747050537179743 4.426960640425079 -1.1896417194174993 -0.5579697523186713 1.4143018854371838
Ni 7.572818722126148 2.6742032137540916 10.672631742535373 -0.3959709698839503 0.5242409926076584 -0.038429507620791885
Ni 3.293058172852127 4.103806142523197 9.748793775692086 -0.7310579597983345 0.7471839188259196 0.19142325834342516
P 1.5260495413225597 6.607685786902353 7.252574107618187 0.22696387445219623 0.40011018886330446 -0.6933211073691931
Ni 5.469089720016736 2.6176910925901606 6.017504570566633 -0.2236990876579954 -0.5861917232788421 0.5902872335044543
P 3.49985252773076 3.498509647106576 6.822196611684918 -1.9173927263297885 -0.5815930481645661 -0.16729731182949897
Ni 0.5235928598675679 8.473993494656055 12.462213734295187 -1.7942242864987035 0.07914549728291531 -0.19564166730014693
P 4.930622373456053 4.9528215793606645 11.832852818093192 0.03808755090034086 -0.5685752957486595 -0.9697509497620007
P 4.008285654538145 8.658838697263544 13.560462258233773 -0.1292043616125194 -0.6965529840429294 0.7927973457896604
P 6.611029096594286 6.649305825006369 7.57028391918243 0.034779569573030425 -0.11931769862642676 0.5641743384674864
Ni 2.0346586317979405 1.4444394443549158 7.015664034024236 0.0140464507907371 1.0664869064331697 -1.234082466229378
