# total energy = -381164.42371092376 ev
CRYSTAL
PRIMVEC
9.29208810688099 0.00000000000000 0.00000000000000

0.00000000000000 9.29208810688099 0.00000000000000

0.00000000000000 0.00000000000000 13.59991020307701

PRIMCOORD
 96 1
Ni 1.2031395864078074 7.588569709852209 6.865221524899571 -0.9023114280621041 -0.1203962764025862 -0.1430548943423665
Ni 6.358529527965172 7.280834331240425 6.292665348042591 0.8761270563572525 -0.43676049309648657 2.6254580818876914
Ni 8.27305280649693 4.095766658146689 13.715917657449182 2.2235818022628995 -1.576713329929291 -1.4573236404143481
Ni 7.224291974248677 1.3770410179773322 7.9432858866480975 0.8567152274895438 0.70462007732178 -1.3138144321433824
Ni 8.634905307067617 3.4523638836483155 11.230806266351467 0.8757948698288144 -0.21272124849025298 0.44972425234600605
Ni 2.709703022480123 0.8980115677585353 9.415789173245763 -0.6716539068084045 1.83110007647913 0.27410427958342476
Ni 2.1537480904878032 0.2240907878258156 3.28239300540788 0.13086915090945203 1.3658700151880412 0.4667079313881962
Ni 2.8110146606528468 8.813861634644294 1.3969688304349333 -0.08982020338794208 0.47595001881175447 -2.211285244283734
Ni 9.545762257620796 8.055329886747767 2.5262651207412254 -0.13112831810810965 1.2301803029614942 -0.1704155457435065
Ni 4.520888987600995 6.7785783772358315 12.012515269966071 0.34720614177542136 -0.17973116671747755 0.402228777868204
Ni 4.436396029157945 0.4572023349232152 4.153385038957606 1.3215364833779886 0.6259936857671283 -0.9385886652265836
Ni 1.1368033684022054 1.1712491395391667 7.173979962427508 -1.149493172223072 -0.8052240015887875 1.2260444264162496
Ni 4.466112127376451 1.525472835657888 11.045833311633926 -0.08565578759760732 0.38395003416367424 0.9727588833503893
Ni 2.9634234921037343 8.687043214229606 7.762175653015434 -0.5796189551573308 -0.24586688200428627 1.088367251446029
Ni 0.997635762705343 6.597680003215232 4.5860804203343895 -0.45447873631185604 0.5353635848833812 0.251794817452947
Ni 3.3142462839235267 5.086684241048411 13.066576309351232 -0.3934865128991998 -0.6384820480421262 0.6346662738404618
Ni 1.9265007802839935 7.341047063090305 12.541443234078981 0.5999581809353152 -0.3362450147782274 0.18796795280497305
Ni 6.739114878444713 2.374267928799744 10.28130073314656 -0.44157514087631045 -0.540927966345036 -0.055027521188789105
Ni 4.267484448977831 5.6607866213899305 9.064735008428583 0.5324713509372507 -0.7368802229070665 0.7472679938992937
Ni 4.0758258367655404 4.705113929214535 2.8393889813282787 1.1867803387093043 -0.3645919413520366 -0.5323577081775218
Ni 5.031526405205681 4.510723443057204 11.096139748202146 -0.023533821455882047 -0.7322481234516937 -0.04630453949349445
Ni 1.542031336916605 3.0790449461790534 5.949022552812366 -0.5478753441971467 1.5191213904474352 -0.23974354271536774
Ni 7.1018222511342595 4.111925599610723 6.8368109650799695 1.9890118333286715 -0.3944133955888433 0.21857230795439128
Ni 1.2045705679980667 2.402051272662575 3.7514808504096724 -1.1425391095027417 -0.25710106015720885 0.5718112861874539
P 8.585211219114969 1.7431307107893095 12.774287169034828 -1.2435312703471033 0.23916710138660746 -0.16568574436800496
Ni 3.553684813909288 1.9746988420286435 7.20683771568281 0.6582191214597374 0.869623708021096 2.145365501662473
P 5.251061282163287 8.619759203222664 11.239088304607298 0.6211990925919624 0.43470618167061903 -1.0586537835419962
Ni 4.70604313803938 9.146964414174313 6.662051873765114 1.7698468860956036 0.7260705338860721 -2.391545544031804
P 2.904957672844559 8.360965253415404 5.062757113808683 0.3914183175162613 -1.1665876658115135 0.13927408714369563
P 6.303083637386741 6.251819186520105 2.723803766397128 0.3794642304781788 0.7168168764982881 -0.6568572081152042
P 2.2404525659339822 6.488655931796304 8.606934263022168 -0.2509898050531484 0.13240975592369453 -0.004807448690972366
Ni 5.552580253736865 8.111927996269007 8.617283790913278 -0.6327837121057682 -1.6612730562492422 -0.5462784320236722
Ni 6.951522723715767 7.979459986199267 1.0623570157733664 -0.929556379820986 -0.24152557431645502 0.6556984119204127
Ni 7.973578094338006 7.533978691392633 4.504059157365424 1.0334068360497493 -0.05118063663887314 -0.1517832753542999
Ni 3.6891634605715202 2.0058737981021544 13.464917911264713 1.0547667897827642 1.7358833846659651 1.1866587255297758
Ni 1.5146103844954633 3.2668473417682424 9.828655238300378 0.3735046704606342 -1.837320603467545 0.04468654427409723
Ni 5.608472164551222 7.7395754359775815 4.354922070186811 -1.0423825571857983 -0.6902524957461983 -2.868029838080474
Ni 8.320210154357753 4.09980871653476 4.736427337402948 2.626813567474321 -1.582983736319035 0.24233547181226006
Ni 6.62803725552288 5.305066899063211 0.7512346709950267 -2.6743995447834004 1.7754097248953618 0.424016820277573
Ni 0.13476129744945278 3.7170118490520907 7.813746742794266 -0.5267830423032217 -0.01698856413819655 0.11588090503073592
Ni 3.9150448338028103 6.333273632105916 4.877662432735089 -0.4520446729490666 -0.5600171217660033 -1.3456364617499856
Ni 1.4546206627635447 0.9927945847279066 11.439469400058398 1.7350799149280636 -0.856025657621687 1.1660783302752629
Ni 7.10919087711527 2.2014350873787896 3.7689155955902174 -0.2365983122181667 0.006056233496408925 0.595171301069633
Ni 5.039638398246567 2.174079179575387 1.9592851260421338 -0.3784998096823804 0.5793186503080926 1.6119595547260945
Ni 7.314378769817288 9.178947781925439 9.693050219237968 -0.3708132396714001 -0.2101637721757219 2.2611960130712476
Ni 8.605756026232266 6.9342394395736715 9.162885478179188 -1.3959899745018733 0.14178245538784615 -0.8196707731417366
Ni 2.7821627266414457 1.2489402893843602 5.425929090910649 -1.093290142668943 -0.7908721037424896 -1.8338640123775125
Ni 6.354626850900828 6.608319444259694 10.247600187487121 -0.48083280082535257 -0.03737329844213564 -0.3630703625011876
Ni 5.814245458812892 2.0651759053036884 5.875202486931473 -0.8930045488388815 0.7805905193108235 1.1432284222602827
Ni 7.388018569186162 4.638313106796512 9.331850952471143 0.4631222709194669 -0.6730464162805571 -0.3108072914314131
Ni 2.731836776687903 5.8976047824896325 10.924331824114995 -0.7937599668132458 -1.4800377941824125 -1.0566951171537284
Ni 6.836979151877267 7.316134974496243 12.393271594869384 0.6906505025155654 -0.22057416887576853 0.494364259652884
Ni 4.084411726307097 6.673271141116278 7.0513903713746835 0.4065294621260869 0.9516948635912383 0.6467021219590733
Ni 0.7280202469239531 9.094324734246909 4.984721227489471 1.9127146041278285 -1.2128700938178207 2.893080610401514
Ni 8.705088449608073 9.04993642868412 11.664547936865024 0.3206790420191703 1.4479123744027773 -0.5227039871378417
Ni 2.229469317624328 5.506798134936809 6.2620785811552055 -1.1101136419841848 -0.6297675509872638 -0.3080451553052437
P 6.2276132966329225 5.870378963921708 7.925347510284486 -0.1257074042028545 -0.08374134418371383 0.2624391845406706
Ni 1.157208794195776 1.7609808123145596 0.11276227852127482 2.438415469110465 1.0564683458549031 -1.308886912934778
P 4.903109745612262 8.907442255394317 0.9809490306287973 1.0317469318488233 1.186043717653596 -0.00745131407172265
Ni 6.755478245850214 1.316633152274234 0.7331587717253395 1.1909157010339169 -0.11102152005590558 1.483750210036993
P 8.533454287571166 0.45790481679479716 3.994062893849881 -2.154017006689884 1.5003423100677193 -2.9766856861176803
P 7.47895094478538 5.206319877247056 11.56019592741741 -0.33054539329028876 0.5704843398459143 0.5777027119712245
P 3.7744462465156885 3.041411988772878 9.512199234867435 -0.2952567452913238 0.028518162044350884 0.987676166781854
Ni 6.253528930757818 3.1344536684044915 12.835812872954213 -0.058361984878660775 -0.09765435472038021 -0.7814127581018027
Ni 2.607759522306505 2.415478340181569 2.0038379015669214 0.7992832106243203 -0.73944284142792 0.23498854452888562
Ni 1.2436995516122409 3.954118064887494 1.121436112856938 -0.48631644964774307 1.4162471820890126 0.26413996928186123
Ni 8.713070353413482 5.961599394256628 2.884187067982825 -0.7698499929648678 -1.7887082417764806 -0.4975897085687173
Ni 8.65993819280891 6.593387058444454 0.2966034568901545 1.4921631166910367 -0.22160158169901836 -0.09355884449476791
Ni -0.0645428449736533 1.4775721207371877 10.006148061977925 -1.5832501026065442 0.09589572015806065 -1.904777608668939
Ni 1.0092601651041395 8.554723877571842 9.165904477651106 -0.3763249135182487 0.12174944799637095 0.5561326991099326
Ni 5.028497184436689 0.9553753453514452 8.847040894152993 0.10400729352160153 -0.12604370449635066 0.4077903311163815
Ni 9.183668162755646 7.0106947416818235 11.385463783158475 -0.03704214035496201 -2.234910597012157 0.37663601700076427
Ni 5.46437045999444 3.058862530503445 8.178469569424898 0.2732763843654907 1.4341567153795818 0.6007577940184751
Ni 7.587556872233129 3.797453457018822 2.2740137302696923 0.2977787403822291 0.25811690301623286 0.29632426732388967
Ni 2.4827902274532563 3.1287018657787082 11.943862534360134 -0.021767987804710898 0.5777507916003405 -0.5587865917930118
Ni 3.3399482000187075 8.090054420532182 10.434585808519273 -0.48228933076622105 0.6904874945751399 -0.8544058626300769
Ni 0.7274571463760978 5.300532359997973 9.905821385159534 -0.2902721475925388 0.45152222478669335 -0.4393061423364757
Ni 4.267038428741906 6.813888312579897 0.7636730603243865 0.3740356032634397 0.03161171336801007 1.0587291168646218
Ni 9.178947781925439 1.7051074856766995 1.8306566068366503 -1.730434702846568 -0.25278494928035816 2.0504779110539526
Ni 6.817512226996787 0.14907761781382187 5.3550871393133805 0.9146846049154763 0.406775516698622 1.082135411603704
Ni 0.5716325432850847 8.872262409285728 0.04056832808385732 -0.4358721769542622 -0.4152802117355235 0.9920164460284205
Ni 0.9434907644816923 4.947089199292121 12.510366774140905 -0.07283292480132618 0.31650999824314524 -0.35208660979617423
Ni 8.518401104608698 6.170652795669995 6.810019087033247 -0.13156103477015405 -0.29506159856138214 -0.4899576459447562
Ni 1.975683803382978 4.652334867963406 3.824063210135875 -0.3613965743431905 -0.28607225057857827 0.15192545735911903
Ni 6.688844681020662 0.512233798365767 12.298820305450482 -1.1518999818923517 0.38519393387310435 -1.3728181643711002
Ni 2.632857452665537 4.048163290049939 7.900038649522215 0.4066312778112739 0.26643236486046373 0.6735698928841948
Ni 3.4155672141844997 0.026147007122280883 12.796822341454938 0.4851923633456289 -2.409341177452328 -1.2499772830827633
Ni 4.9586113887201835 4.446254934789538 6.331329727244343 -1.92197108972909 0.303135119598136 -1.0180758621196337
P 1.4727588190244967 6.934927054104056 1.0333025142381491 0.11687592195415356 -0.23927585905032983 0.32136912610765944
Ni 2.75202848445176 7.158726999567695 2.9564302664879594 -0.30251856906005964 -1.3373703650864517 0.14884296177905335
P 8.552038464068044 2.177052647814887 6.27106867653557 0.20348558882459794 1.4475102538683522 -0.047934876008065834
Ni 6.64600815419536 5.413635658157966 4.63079673661235 -1.8747273262507778 0.6708915747210833 0.1712598960216728
P 8.23293886152842 8.699977801071432 7.887322426754227 1.0677097230966774 -0.768674741709844 -0.9528986540913525
P 4.964846379934887 3.209905424981812 4.334726645587655 0.23654766148588938 0.4447543099352405 -1.1800880142907935
P 4.746259295978621 3.926975875113805 0.5942522737082583 -0.11886107070498239 0.16087263925007778 0.41320456015341744
Ni 6.685183598250776 9.36298688177401 2.9764760884663155 -0.5785964274300874 -0.12691325158549757 -1.3962931075645888
