# total energy = -340868.0210060745 ev
CRYSTAL
PRIMVEC
9.24956974011076 0.00000000000000 0.00000000000000
0.00000000000000 9.24956974011076 0.00000000000000
0.00000000000000 0.00000000000000 13.53768027548804
PRIMCOORD
 96 1
Ni 1.82539337376744 1.1747693761582527 13.289616491026898 0.4802175358388569 0.07308797823492574 -1.3938477313478899
Ni 7.689093476358546 9.002865389246029 12.807349465239028 -1.8639415484891837 -0.07279127293011334 0.04781891925549184
Ni 7.105353118827152 8.307380977534049 10.62054024640567 0.23538886529109787 0.22562458681548236 -0.6816022762703681
Ni 3.92583195861955 4.347825086993101 12.845797152517601 0.2410740886013332 2.00902067235043 -0.8639613675289959
Ni 3.713230594051984 7.283546083299379 5.2655350407724315 -0.08312556497658588 1.760866536973864 -0.8577398120993163
Ni 0.6108878452410227 8.801946231485026 12.063481478242451 0.6310687862971907 -0.85309665690035 -0.6053569833533833
Ni 1.430806721061224 3.4540298962370217 0.21838697055133868 0.8412585266148415 -0.49089018506135457 -1.40800422535393
Ni 0.9346042932347436 7.564372275582863 5.089179965842931 2.28774162477026 -0.37718649018759554 0.05142077767413725
Ni 0.9291377974131456 3.037124031318427 9.205948021410878 0.7327721142759638 -0.3936346084412898 0.06959256348715757
Ni 3.4728250223106043 4.008069884761392 5.746366533309011 2.2237152425169704 0.5613001022434849 -0.4898324332208016
Ni 7.684450192259659 8.382912965485268 2.4745799882113544 -2.184701066037302 1.1010250494193554 -0.3652298320463516
Ni 1.163540398277677 1.8552972333126625 7.074480829311504 0.9122209738663322 -1.2754682282650163 0.060901463471062865
Ni 4.8912003214019 8.384059912155113 2.9551265939944558 1.3135452376423957 -0.9041001445314106 1.1773220215098819
Ni 6.401655089027897 6.129144260100787 2.3952214531850173 0.5457966072912472 0.19515881412645744 -0.08155436383472407
Ni 6.1580214173851 1.0341019168437628 4.8083130754518075 1.560447502889732 -1.3763004664927458 0.4981941749219355
Ni 5.904490705929933 3.307609204433473 10.505754933636013 -0.8108272067081778 0.41105486080026626 -0.36915436391173845
Ni 8.764235734928926 0.6735102084575461 5.73177256189223 0.5966016057582564 1.009484778016513 -1.0646148862214375
Ni 7.6350759880368315 3.8102123346432797 3.5519893163686604 -1.0276791895373527 2.686027358830316 -0.30453919903451426
Ni 5.779103536120148 1.2805012098920725 8.62275801328961 1.7822887114033823 -1.5286984926129092 1.8415490397265961
Ni 3.881582016131352 1.6499475315608882 4.8717373763802305 0.29375496393481665 1.3924379954845567 0.7059251692864488
Ni 2.609377670455817 0.12203235080049032 6.324411930641831 0.1544659643927856 -0.186478255633324 -1.5401566138511797
Ni 3.515641281461497 2.827445530844981 0.8747124030580438 1.086284143664755 -1.5622537028605352 1.4861336226675053
Ni 1.7499446319454848 6.5785716128514276 0.11929355314774043 -0.458307880249959 0.5396249312628965 0.43021497866848485
Ni 0.3574977272486119 2.6507787454092395 3.6557963146025236 0.8670137812020746 -1.4143749047669643 1.8176280101346245
P 6.925171496822531 1.7119381491520052 6.718709996766602 0.6109470758466511 -0.06456939924095331 0.16533273190396042
P 4.268695016343742 4.636652157255743 7.88634887947499 -0.16881631957718668 -0.4714045655329171 -0.6651011932915514
P 5.962356015337578 7.647683151835205 0.5864763803131687 0.86326974077861 1.798218238149445 1.864893885100124
P 2.977640047175115 9.0367280647162 12.082839903124047 -0.03664079115148528 -1.1769612957363538 -0.6644473617576363
P 8.686067619551048 1.7972284333668205 12.883742588149621 -0.2766463292789881 -0.9271397999596936 -0.5893423530926818
P 2.3747438303433324 3.1187237371359195 11.557239567226864 0.9302688325069784 -1.289232114818328 0.11627582647630942
P 8.827401047899642 6.967886010704325 12.225987172133578 -0.428489768447262 -0.7735500675242742 0.1161876376378773
P 5.781332682470411 7.942531692114531 5.224353180626069 1.2066295122247477 -0.16763926854994998 -1.6173020499849304
Ni 3.8094446203400776 2.5052830105975006 9.745031455377676 -1.2172188577048197 -0.6425796151502675 0.4183966458773181
Ni 9.221663965658724 4.9049914301497894 13.014530581834586 -1.9674490195562309 3.2813364710293937 2.807120147079295
Ni 0.7434758052320506 8.484861725122583 7.546024828693317 -1.5299022831130231 -0.030579929669386042 0.14439315353781584
Ni 6.648202375194896 1.1196049411666944 1.0735864809101552 0.17140542046060156 -0.5139804912219148 -0.5214161215643536
Ni 8.040493887117146 7.687243562374926 4.497894734129341 -2.2316877191994857 -0.8626493335857918 1.616082575755533
Ni 0.5027890465651605 9.115737890956625 3.5888932504279025 -0.803933564912138 1.546097661925963 -1.914263693782503
Ni 5.339406730923351 6.755552883664384 7.007143960307723 0.07787794342440137 -1.1501760572227095 0.8140971357087011
Ni 8.110642625376027 6.924829262735562 0.7212268897510489 0.4599117344019692 -1.0312255121277143 0.1294252193740739
Ni 0.5802763935970652 4.4082802759778135 2.111187510053936 -0.6198878299797066 1.905633786021647 1.1562739425903312
Ni 3.6599623208936363 6.766994601653075 12.144693627080375 -0.013489035625370318 -0.5093059685643809 -0.5259561755265523
Ni 5.316042317310226 4.145980972240287 1.540533444042672 0.5203815096522522 -0.3062227573845242 0.4238777235965474
Ni 6.129606738596692 3.505402007562158 7.8828691912718 1.74141459889684 0.3440904789645752 -0.5371283900932878
Ni 5.961690046303475 5.409148488105837 9.262967920128007 1.4794328136085617 0.9300652011366047 -0.5440238316615404
Ni 1.9193412554255982 5.17716002498993 11.44838322877471 0.37721220121920845 0.6585353671485755 0.3212534264654016
Ni 0.15695595194026668 3.535148624418773 11.417382370237199 1.8078344210829704 -4.480305124274774 -0.6494904833374878
Ni 0.1557026352163639 6.087141963102687 6.649897821360884 -0.7160180347460765 0.197751257443982 -0.2354228038528268
Ni 7.601296558695925 1.688425742420191 10.748972374632494 0.22789512801721398 -1.9562930029394114 1.5021240845584904
Ni 6.942098209772658 3.2736355341242853 12.575909501619265 0.17254416205073508 -0.448514291198305 2.777600540353623
Ni 2.394741400506268 7.036471571647049 2.921255593911359 -0.7316817094252624 -0.5054855663770262 -0.3810171767875954
Ni 4.937660911100524 9.351592674298299 6.729675361904511 0.025318681270446716 -1.2149881686020882 -0.32452824056193147
Ni 3.0223709672990546 8.048087784019906 8.077865849414243 1.1018349469151605 -1.745193863433614 0.15907363836812602
Ni 5.117250560630386 8.462172530113481 12.349776016261515 1.0723204823958112 1.7306216220463937 -0.41724530588169434
Ni 6.3169660268577585 5.5127344216186565 4.841426535758612 0.7907245224210318 0.25591758137206894 0.592097804350632
Ni 1.4752416549477843 4.68899547342228 4.787668035394605 -1.241152742812598 1.1999708692576496 -0.6610293372150228
P 7.592130234907087 4.412479580720632 1.1646882699045138 -0.2630130547662696 0.2766149618204204 -0.19138057803094785
P 5.41191410951135 5.385969065891074 11.362567568988545 -1.3531520534007406 -0.6959017236121757 -1.3004716922878894
P 7.531369810115076 1.799735066814626 3.2559337072150227 -0.21330848845229072 -2.757706372532857 -0.8209275283669732
P 2.273433291030365 6.387383002644266 6.370561734791206 -0.7994973835176554 -1.0542422847378619 1.155238045126649
P 2.6107558563736135 4.991687648992156 1.4847178393288796 0.6792332618175593 -0.45611807168749186 -0.009662977011060779
P 0.031108153548559423 8.805646059452267 9.660949164994165 -0.3476920802729044 -0.8308527579004853 0.43444161515532276
P 1.9932453190712303 8.7713764029057 1.4532563522094486 0.875054392118364 -0.5050700761061624 0.9924921001132584
P 4.9350895306632925 3.7052759639224164 3.808812874714671 1.7048123742927734 -1.3613492444995523 0.6344796117509525
Ni 4.137998593400965 6.64014599979623 1.2358470611984531 -0.32191317153658755 -0.5570163872664665 -0.37393353046793665
Ni 1.7638282363925555 1.7054911989190884 1.9175986364530277 -0.05547617869043349 -1.0160421195190565 1.8275172442238785
Ni 0.24680442421072235 6.403255264623729 10.19580924533636 -0.8025865639659404 0.19398073465795626 0.7193273016249676
Ni 1.6708145612961252 0.9409124999188889 10.537784344348413 0.9813432825852907 1.163747625259557 -0.8602479232331508
Ni 8.473614248102171 1.2652394195272048 8.51620296783308 -0.22269430054256484 0.14102269440368617 -0.8535813098462525
Ni 4.387403996672658 2.1241452325522046 12.303016665454537 -0.13557298414302457 -1.2137666374901612 -0.4069722060904604
Ni 4.18421869428172 0.12913509554060057 0.9373828640381414 -0.8399945723007534 0.29015850483280997 -0.38664763560049537
Ni 8.896264095939909 3.301513737857444 6.248410989495764 0.1410257797274797 -0.9365916894012127 -1.2082387656933966
Ni 2.1501365240220705 7.567970358281005 10.269752157175649 0.2924529572939415 1.4003132844675754 0.7478338937050927
Ni 7.301046269584428 8.688620500848446 6.8940772176288485 -0.4105347266307381 -0.7113509682877104 0.23058141660012546
Ni 4.229208602363365 2.171678772361329 7.370346822281821 -2.779918132743206 1.7219233229414475 -1.1560919084865122
Ni 1.8037678792989182 4.025856807713901 7.185273102747517 -0.3148092135019546 1.8856424305013848 1.1826709445266212
Ni 7.789710297927655 4.921307671485321 11.199885208311983 -2.7139960761291 2.913546334455034 -1.5353345098721882
Ni 3.792406912550934 5.899403442474978 9.67927903770087 -0.9987722766950154 -0.3208407644080152 0.07550995741285704
Ni 6.306588009409649 5.746878034525483 13.140904680754634 0.0707457032549943 -0.6181831885837741 1.4514910928929712
Ni 4.289978276725294 5.649054583071639 3.816312426004268 -1.2953824506904401 0.5107954086257138 -1.6573788634011584
Ni 2.81356192639791 9.25530465145086 3.6421911222099883 0.8181103706331524 -0.8333778383151842 -1.1911527567453872
Ni 8.760970636747835 2.287335394617272 1.4335723424667364 -0.6046427308951781 0.8160036087027946 -0.3079785637333664
Ni 2.928053102844172 3.280591210702698 3.2798817686899793 -0.9540237688347312 0.8125765852991167 -0.3943943694254498
Ni 7.912442841170946 6.974314461797405 8.715842910074409 0.07843381592787138 1.206904106042373 -1.1447834254522284
Ni -0.06986662637638072 -0.20922804641843445 0.9601155320258598 1.7868313364687423 1.065086169430901 0.16748654502216961
Ni 5.245218360447322 1.6167415755549033 2.8170157158053293 -1.0916577492718427 1.525367114246831 -0.5897285327875069
Ni 4.498380336550041 8.293654615775587 9.994517329907657 0.14017114503666828 -0.04017811488078242 -0.23370453561013943
Ni 8.706851403157023 4.901374848311812 8.415157891176761 0.33255599596241436 -1.462623455360707 -0.0629226076661497
P 5.341783870392303 0.8845594951928547 10.706369780546709 1.038550842144534 1.1450521057325829 1.2839580109035822
P 7.987493851486422 3.403166511257381 9.628147415193602 -0.4222617852596792 -0.8369408730760941 -0.18020939190547675
P 2.6001558492474692 0.8964100441719266 8.412071309695092 0.4534207273609869 0.6186454729321732 0.6631520399849805
P 7.544920430045096 4.762233568033809 6.508618965474809 -1.9803811542368668 1.8980780851615764 -0.10690826921848039
P 1.7560585976613499 5.157467690634292 9.265676194200026 -0.2677269153021712 -0.23614245562767072 -0.6411801636995796
P 1.7013381420258606 1.330855868526218 4.829202304154848 -1.4367072497155773 1.4255147234338674 -0.11980569400643884
P 6.112735523066074 8.008730864018384 8.572059270654512 -1.1788351157202988 0.3666069148995364 0.6993652566807439
P 9.130500204545914 6.0878726791262165 3.5363806671318643 0.40052567913416826 -0.0429667333695131 0.43019492406382687
