# total energy = -340894.5435366147 ev
CRYSTAL
PRIMVEC
9.01917982663735 0.00000000000000 0.00000000000000

0.00000000000000 9.01917982663735 0.00000000000000

0.00000000000000 0.00000000000000 13.20048134895757

PRIMCOORD
 96 1
Ni 6.410724857113376 1.8157593398928782 11.315914988786789 0.07430745246432365 0.06150001628701021 0.23582389594598743
Ni 4.395984369821224 0.2962160242008713 5.995368171920745 -0.27744414258993505 0.008938697250526541 -0.3632125445060067
Ni 2.478272220110496 1.59073982006401 4.735012637267262 0.7802583327823853 -0.0817166004442012 0.060644096044618144
Ni 3.440266969578086 4.211551159633219 4.8979062419698645 -0.6165924470578865 1.5811626239498962 -0.45831096557375267
Ni 5.1439629989625795 4.567935034999682 2.7087519514630483 -0.0860108569441809 -0.0652402000557328 0.11193271901626528
Ni 7.390090547107256 6.20271551061399 2.5422019712208006 -0.3315110996376678 -1.2270109040945771 -0.07661450333094548
Ni 5.184188541406636 4.7440976572008715 11.386564028937634 -0.4281195295920369 -0.8018571419990835 0.02932111756162047
Ni 5.806015901004268 7.78735836505195 12.252066180111061 -1.0944494530843667 0.5044198441166732 1.2331437564651926
Ni 1.785355684381911 6.424848892868397 0.4322000036935889 0.1928761887398678 0.9205567474255373 -1.1918284426561732
Ni 2.942345103724051 1.6259416792925188 0.5714119476797432 -0.2560952446005138 -1.6825995856411602 -0.33110229423502335
Ni 0.34183413431921 -0.12960741928914196 4.379325944508629 1.4247824732535332 0.8736202307749987 1.5488266308213519
Ni 8.657068865576136 2.344175053057082 1.2809733799510423 -0.3078325250738053 0.4395252003258172 0.2067542322735407
Ni 6.8074876009825385 0.5991982371778705 4.666925044213749 -0.7748428181937688 0.5457580407438278 -0.0033192941812200897
Ni 0.6197736923298043 7.389260782554598 2.431238098744687 0.2187288881369136 -0.40277230907649997 0.15893145636330694
Ni 7.7385826400435525 3.872258630215519 3.8261724246593225 -0.1012623837866127 -0.2364813270243282 -0.4238576689918894
Ni 7.335028453694485 3.7985899686273914 12.55914941419777 1.527962128667517 -0.13155974921857344 0.8116795274061441
Ni 7.553545144800894 8.779044254816812 6.782486434243767 1.307381532033845 0.1481657332063706 0.06827333045510178
Ni 6.903469713693221 0.6995618674937822 0.3976060371917008 -0.8563084789694284 -0.03214547438429302 -0.07187107510868912
Ni 2.0716154358688827 6.257741527307081 9.239677223208806 -0.35519198819437536 -0.4135421459984943 -0.038866595158210476
Ni 0.19855724594302515 4.795966960921895 1.3264111064709772 -1.259152007603496 -0.32700806956099165 -0.6438044886963041
Ni 6.359522972706447 1.9544653078855097 6.759518190659006 0.6720578271150427 -0.15852573628445601 1.0075525939908068
Ni 3.4609389299551663 4.558320589204758 0.6351225327179869 0.21789533649202472 -0.7254598968852667 -0.3079222565741342
Ni 6.109385036799844 5.527205992131376 4.718696940791634 -0.9921084915215945 0.9288287576263423 0.2915070484409044
Ni 5.699192734029515 2.684676152584088 9.054646041392093 -0.8454496818780536 0.46107747257529624 0.4839898583970956
P 0.16598267382526802 5.696441884153857 12.24145331109897 1.4199559983991674 -0.7494020095231609 0.991337674793841
P 4.106955730098753 6.252645690652172 12.562792260967536 -0.9672050434116956 -0.19374804982185986 0.06029185491152197
P 2.1807655512630455 8.479968248663248 1.3684540136689518 2.282290114737386 -0.8317739841631739 0.12255266062395669
P 6.03026879053992 7.645766259484857 5.6407105675910065 0.9174014896260072 -0.011043402298355175 0.32493396064078234
P 4.756688432369459 0.9690748057049412 12.529712614774247 0.6347562624511068 -0.019913193984159253 0.6742131828951485
P 4.112087643473343 6.137930741247251 8.028031573550303 -1.077568361058312 -0.3976889810163215 1.306055099912938
P 4.673639823664332 1.1584415073092909 3.9443570525795413 -0.5247546990192834 0.23644198914596057 -0.4230531708127231
P 0.19556197629152944 5.557438283223858 3.6705257310225945 -0.05549854728793668 0.008544290025585285 -0.2766949231287364
Ni 1.2788655976036933 1.0101120743418144 2.4696652167126567 0.42578779613506673 1.3612188895692752 0.42261402639277545
Ni 1.753247403866028 6.457002269283881 4.90158967504927 0.4263197573791368 -0.07488132268992265 -0.37337405842004084
Ni 6.007251843383591 5.656099092370837 9.107394715155335 0.47646166834085046 0.31258366660554554 1.357410057346146
Ni 8.617808375383541 2.1872593608055833 10.116967442537923 0.2164894572834336 0.5245207286316063 0.7855874583047825
Ni 2.213965152549272 5.197915733245168 7.0489644184117815 0.25381699008929837 -0.004661410031411327 -0.06271023454502749
Ni 0.5759197338038551 0.16495178156039006 9.13384887177925 0.4885085722030555 -0.3373091943766836 0.03238484408860874
Ni 1.7640072855108169 1.015631812452972 11.440540213088015 -0.7053119611824821 1.4066716225854357 -0.39306999418707145
Ni 3.9808856331743105 6.811925037503274 1.7199702376324877 0.05100477318264119 0.8797960205684073 -0.9724482940885057
Ni 5.573753979699486 7.857969524647133 7.879618262209569 -0.9111909899399211 0.32779894089340317 0.5759044824202212
Ni 5.370930661654209 3.1387377464862305 5.015667870351826 0.21823960720532093 -1.188453355536353 -1.3136424253418926
Ni 0.6028979047811333 7.449184213944354 7.360113498806514 1.05495833696828 -0.24397737829105723 -1.9282574369584342
Ni 5.2441931454156725 4.455168228457523 7.27193387864479 -0.060398555692715336 -0.1670188613571317 -0.9383240987112872
Ni 8.113410738346808 7.237233485819844 9.002900300435977 -0.8285156251268763 -0.33024663110294733 0.6100371624378719
Ni 4.540976706218229 0.3263509081502165 10.35003567852757 0.2867687624249706 -0.1886850334766557 -0.42209106400976987
Ni 7.942298856900926 7.185328105379139 4.67715459807923 0.14487549249087306 -0.556289536402771 0.503571894294081
Ni 7.182189430766912 6.224929750757423 6.955769232296437 0.4600816843209302 -0.8290653269827593 -0.25144617586427664
Ni 2.0995658744415575 5.324734422102987 2.557540890511071 1.1404089505336168 -0.24493280022579103 0.8749271225118802
Ni 2.402132303224236 5.140833343530273 11.440026119832563 0.4133781096168042 0.7049255243773408 0.18511197141341668
Ni 1.2457832456564295 3.461011083394528 3.8952638524379526 -0.9815494850588257 -0.2936459491607782 -0.5010470709896984
Ni 3.5702062946882913 2.820189330884972 2.7691308514387734 0.12818183388527601 -0.4998977878766036 0.1868592931218266
Ni 1.0553522808214972 3.2615609386394038 8.377870230048684 0.3812933132671175 0.17818387683501571 -1.0406295790504336
Ni 3.6308783180114226 2.825790241615411 7.023553780904632 1.1973090061547702 -1.2255836847297472 0.5902954610345705
Ni 4.052831631397682 6.791740112841883 5.954988401500054 -0.4918384079072368 0.06462030708354677 -0.7213939543460092
Ni 0.6651654210321463 7.373946215050113 10.815352307052118 0.49664842770137047 -0.75955323902455 1.4289618014422036
P 0.22317239178121295 5.484554290288787 8.294615082123384 0.40487907100685755 0.5624198176702249 -2.0296013247152596
P 8.534516248820568 1.5782572750544643 7.884251414934571 -0.09768160841388983 0.4485487439806662 -0.7321319095888037
P 2.01604826838058 3.2011865482536392 10.400553909096548 -0.1730226443490504 -0.36256539784031105 -0.219867372616731
P 3.8555100131037228 6.103297090353714 3.7305348446215914 -0.24205136491293797 -0.20795982254586765 0.9298417722718889
P 7.014225243113178 3.844714054739253 10.469830230063543 -0.5598880523873067 0.7115898237713939 -1.4633978716328861
P 6.4200506891508535 7.812170129012397 10.192197324170236 -1.4217781392095707 -0.8325843958796113 -0.6061509400095884
P 2.0589434880810127 8.335904887798023 5.82369619940182 0.5104364826243983 0.7931575573425566 0.2535853336944665
P 7.030558977948646 3.9748698401675426 1.6142870949996468 -0.07678316769832583 0.08378890959219763 0.08405784698286814
Ni 5.2574513398983544 2.885758768904767 0.43513845251158745 0.23432957078864808 -0.14029301532651323 0.3211498110080018
Ni 1.5982708352973702 1.128696251932498 6.919969401439221 -0.6882051262988663 -0.21174654328180953 0.6223653449859218
Ni 7.056299717440873 0.5067904254695601 9.08682827918332 -1.1138376278029913 0.7734569935898357 0.10129375124518038
Ni 2.7526807691823354 1.6167150582341625 9.016826816150743 0.823318397196653 -0.5218511522192432 0.8177208485042174
Ni 6.164762801509823 2.1808286855224863 2.6473827455320866 0.8774244350124372 -0.41033957990079645 0.2093489895839104
Ni 4.10209439212177 6.793092989829913 10.356596230001518 0.5945025571373826 0.7639513680922456 0.23827364303806062
Ni 8.07029905832829 7.1092513227523195 0.26801485242641515 0.23556472874732978 0.4227035007827882 0.3480126968371168
Ni 7.692738148509216 3.899036575398569 8.226408435894925 -0.10198614932651466 -0.20487269898011165 -0.2154209068096032
Ni 3.1782958696161923 8.36590268021258 12.458125579911702 0.4537112620182121 -0.7076776332011813 0.30332075324638086
Ni 0.19286704533137608 4.700399730487541 10.239401908036534 -0.44969879842470933 -0.5183050867391977 1.3685123379068949
Ni 8.653803922445027 2.308386947133761 5.716072129250154 0.11870449052246008 0.14266202977932205 0.4227736918990913
Ni 3.6554555832939455 2.731016699014034 11.822668435618676 0.31250679062102305 0.7620922033963198 -1.3655730527729126
Ni 1.2181484783809613 3.3242081623650566 12.468105302493392 -1.2865360560434038 -0.11337125123500474 0.6212248036235754
Ni 2.94697194302311 8.146186438176786 8.121477492867427 0.9853326062503417 0.8616167785562194 -1.2881995597887557
Ni 5.480811330621908 7.843205127117778 3.4779572205465765 0.09277131559646602 -0.6227787783742564 0.8800119932339553
Ni 3.064221281985605 8.512265931957455 3.7796280447631796 -0.17275319273774764 -1.1317127083111993 -0.3860405981441158
Ni 3.572857933584828 4.228732697381185 9.228681039050109 0.5567621051638153 0.02570126142084606 0.037013601109871744
Ni 7.305301236677532 6.141376067976764 11.329801820109907 -0.018819189589032104 -0.8543014758417288 -0.6433681724898339
Ni 0.5140084751596897 0.09066801190170536 0.1752309409154328 0.23127818555683394 -1.6560177213875735 0.9969043702483412
Ni 4.538316048141772 0.27527078267220956 1.8304317417870464 0.05251941005495471 0.3851787643644528 -1.0109407937367492
Ni 5.872703717334168 5.514957945799754 0.6218941015290415 0.25728155159913113 1.2153962026737843 -1.233564903163011
Ni 7.992436478077273 8.79025509545761 11.38814779693162 -0.17750459137980398 0.3191579773889536 0.01515845290799325
Ni 0.0569894921617167 4.850082040443047 5.805729993000798 -0.2328002786283152 -0.20078618761556385 0.7191506668377873
Ni 7.809211837998575 8.831364517533846 2.563045296016364 -0.40920778028919846 0.42659203720391686 -0.7255663405561439
P 8.402340167090156 1.7270557053777904 3.573977213812924 0.05428858614023554 -0.05642697263947702 -0.40611859984091353
P 1.8829973261979087 3.1599508576585214 1.4625736657261146 -1.5462727540512466 1.3125566484768814 0.877219775200799
P 4.800061668605662 0.9826306331249898 8.027080951986715 -0.5026185292418763 0.2202684647098916 0.9556592475556251
P 8.638047415124452 1.5918311408343533 12.358871308725972 -1.0087473856298563 1.9486429425933214 -0.997468213171611
P 6.273867821004384 7.709180113503726 1.400320580162974 -0.5937332830715258 0.35135230273331103 -0.2902973444035194
P 1.868891328802729 3.2428551594849258 6.0986756625626075 -2.1016678036642062 0.13310806754229978 -0.9203541444964278
P 6.988574695420152 4.092479946326845 6.088484891170784 0.8273719984407364 -0.494284041234252 -0.45215882992942774
P 2.421785096270334 8.463733724806902 10.178719963615492 0.6076264961138503 -0.4612368809712959 0.11108502630398932
