# total energy = -340857.7618261849 ev
CRYSTAL
PRIMVEC
9.40126862578262 0.00000000000000 0.00000000000000
0.00000000000000 9.40126862578262 0.00000000000000
0.00000000000000 0.00000000000000 13.75970692862836
PRIMCOORD
 96 1
Ni 4.424895101019167 9.017593445623204 8.073343187282491 -1.7739058866563255 0.5585680480243025 -1.144580822523119
Ni 0.8799784854252579 8.023437492944101 6.595206165577303 -3.007773151551104 0.05818329320895141 0.03824207420033414
Ni 8.585708566523795 0.9121355247373791 3.977504709586039 0.9910540821151512 -1.1560494852843508 0.012178030123430638
Ni 0.14736112509918847 5.7272434415743 7.844986372521076 -0.040318754223704754 0.6797981331820937 -0.2694212722854586
Ni 0.7534477512057265 3.8217097064085275 13.722390636989374 -0.01761102821354386 -0.019865628575675465 0.792040670129294
Ni 3.1879137811736324 0.5531198787057222 2.7651641147915407 0.751099451830242 1.4499977961768964 -0.8585923899075989
Ni 7.657775149998639 5.844101210511492 11.989313773374997 1.0152250229344 -0.054241534952384006 0.6856085692162838
Ni 5.400004083475684 8.840708576552146 12.17482242615049 1.1546407778622823 0.06879012219052023 2.9279486259232925
Ni 0.15330366699341205 4.4852888506291855 11.069423142153607 1.0899232830792391 1.2492069805756423 -0.8581771567470511
Ni 4.619670584272646 8.637471951541347 10.233342000292179 0.7519756837876082 -1.0681185284993218 -1.7244262918689592
Ni 4.880301954203924 3.951287391787556 12.364073723963301 0.6581797835813696 1.2674412441954817 -1.4875263892499735
Ni 7.941213997600201 8.95008293566842 2.0311807501350945 2.4403116576919133 2.4116325445896662 -2.7759624905295675
Ni 3.620964417581829 2.7278909050968267 6.6201665337613935 0.20875583608460174 -0.23376778474790708 -0.7418252256171676
Ni 8.668815781117903 5.827686595502293 0.2774380178418984 0.8803650056979999 -0.25196631003380476 1.2104774252159283
Ni 1.9983806640494175 9.39836362723979 0.08051152432833629 1.1880934010937731 -1.0492196347122897 2.1882556161577793
Ni 2.540965481140416 3.5533410924036133 12.017205457114569 -0.10260424252648781 0.5836540444586529 -1.581059779823445
Ni 0.9289647356926863 0.258177638821655 11.507600290339875 -2.4222956807304667 -2.09465640534338 -0.11631953523005127
Ni 2.9086396955703955 7.385025544817157 6.731344996325701 2.650102877019565 0.7089446728390629 -0.742024229001851
Ni 6.773670447776396 5.927039202270454 7.286342308374686 0.15929501035031274 -0.3706795423070132 -0.8527063634404669
Ni 6.186758649145666 5.020672295957843 0.29735460541176506 0.23353869945623648 1.3900137023137804 0.40705602405351826
Ni 3.560880909836246 4.092926904805073 3.8638085872854986 -0.9534972069072999 -1.0770947638560031 0.07365567781293768
Ni 1.442925510218675 1.8074879047356853 9.92662373133565 -0.12953192015526724 0.7596769090866078 -1.0021661328679128
Ni 1.7818882502854865 3.592403363516568 7.831667595268194 -2.0732175187433133 -0.8290851244771013 0.4833653374392192
Ni 7.545693225520023 7.6979279682714274 10.179472731103916 -1.4641604608305236 -0.6737334150452526 -0.48797506829708864
P 8.24069140946619 8.615689212150562 5.548478318779392 -0.9554790132240192 0.38774215421625485 -0.3437078988141758
P 2.511586516705281 8.588914399122958 10.295797448110397 -1.401436342328425 0.7961629198277836 0.0527585226489543
P 4.774970140593924 2.3404928291036753 4.589137144051069 0.11280895097363154 0.46958216761219773 0.7848194697905064
P 6.98415545089263 3.7955177720353164 8.098495341346414 0.42997997983954334 -0.6506289678173052 0.04997736035939135
P 1.5743458442470748 5.549625273550939 12.778254133998953 -0.29299314606812765 0.1114272401347565 -1.3489866091691411
P 1.7457121686386388 1.750093159815206 12.683368069951795 0.2188687561488876 1.790250132342304 0.07814688081507187
P 7.266917407153606 3.718634197267146 12.310451708139725 -1.2238078237762473 0.5872785285851176 -1.2666711987986765
P 3.848117869959981 8.534772493144734 4.379687220609813 -1.0740310373290147 0.9199103720907901 -0.04366221677464093
Ni 6.545219620328787 8.518668119999973 7.663358563431608 0.642386782413171 -0.7503810856069787 -1.0163215984326883
Ni 3.3969227851166455 5.623387627137521 10.799649978616975 -0.1745205690508156 -0.23507956158079513 0.67934279081223
Ni 5.674756158873065 8.463078418654387 1.8977250414506288 0.33117994155049413 -1.1215655925748684 0.4989673056425342
Ni 0.47591666080449757 8.056435945797645 4.161554285471824 -0.34035543740217516 1.6712288819103733 -1.027167797118573
Ni 7.5623146684388445 0.7819448766443763 13.363743520687592 -0.5149917060952486 -0.32518438608869155 0.7306992909073351
Ni 5.054714289628123 5.5369711659894385 8.937755052128006 -0.9110374950811924 0.9851917097971034 -0.5692970044060325
Ni 9.326594342600488 8.145936023052839 13.731458160572634 0.973648485044194 0.4138491357159518 0.10066331675003308
Ni 5.628163471596096 1.874744580437751 12.566162454075691 0.7384658222266314 -1.0777933325849243 -0.8799240615058393
Ni 5.860196182387637 4.565829518890241 4.504886735192859 0.10214684327409504 1.0622085907727898 -1.17457865443679
Ni 7.080085995883387 7.698228808867242 13.43046432407836 -0.8931171631573458 -0.5838386496656333 0.648382852095606
Ni 8.241481116030208 5.119047170789604 4.904344758570777 0.2677472270171453 0.4108527720917892 -0.5027995349044309
Ni 7.262423600753608 7.670495066440475 3.51383038077752 -0.2750527595396231 -2.5297153423677274 3.3021724339381393
Ni 7.77191595230487 1.2524934130672862 6.238320847014767 0.4141543256611964 0.4286512337257908 0.591600038778607
Ni 3.5469294272052894 4.055359435402577 0.3258930964323395 -2.27745232702911 3.479080015163892 0.27458867541901094
Ni 3.5707334393492127 3.8122050238344727 9.153810306901143 -0.17573747217705218 1.0742392966850791 0.6029954250997421
Ni 5.481870330612054 0.5651027356878096 6.185415207859975 -1.1886011939681274 1.0262589121510584 0.6506287107069891
Ni 8.917836584304416 2.530642888196487 11.81601078764787 0.27121204563729423 -2.3238622817522168 0.2996656729922968
Ni 3.0514731697025566 6.466465193105388 4.449228404586354 1.2844051257433298 0.9665674098276966 -0.2841866035200912
Ni 3.31910848475517 0.4531091831342138 11.82846370806092 0.6565836427388435 1.6368527184233488 0.11618018143870959
Ni 0.2470521775376427 6.90714965963241 10.878726869354017 1.1177282211066493 -0.1523005813103506 0.9439116201013936
Ni 2.328280581167278 5.13299865342056 6.208132433351515 -0.12383924064586414 -1.5472963102197546 0.41482538358629206
Ni 5.435681897885712 7.516615101680704 5.335738891448263 0.458121732381082 -0.7165345693711789 0.9413793405978432
Ni 7.260787780013859 2.244393061277772 2.556773714323673 -0.5645018970102342 0.007318902258916428 0.48381528049244427
Ni 2.0354968725581895 0.5175652209146067 7.298285680028573 0.40002148580424013 0.9132892672298465 0.6721696701025586
P 0.0005170697740583725 7.112275939635675 2.2029569698384575 -0.7215621044927574 -0.8633383892330164 -1.4962874232720553
P 3.9496891761222845 5.704332549949204 2.3675506203167185 -0.4704293461038414 -0.18615326819373745 -0.39971295342488583
P 0.9018251534426551 6.300175553768215 5.090183395874804 -0.16236953551057845 -2.1883923988459597 1.1243863498531153
P 8.41361834444855 2.9029049217126572 4.765536907661375 -1.3876932817107197 0.3704046913790717 -1.3764711877426552
P 8.222424744539001 7.454096665362736 8.155391819030074 1.8587075537837539 -0.8914112362098325 -0.4017906618895209
P 6.1002575765800096 0.9412362116213844 10.278528257783709 -1.768674205943741 -0.560566309401254 4.087968665819618
P 1.5853829336060665 5.356363394545157 9.37809355196984 0.7817662847864795 -0.7505286669284363 0.6626833278786781
P 2.8681860367017924 2.8262751811972064 1.975495155849594 -0.6277294375113124 -0.06015995731934801 1.2572213662396863
Ni 6.321732662712139 1.298738253405343 8.387999887461111 -0.8710038761980743 2.5408150518253145 -3.663962901285638
Ni 8.96474891471444 3.7669473167014362 6.6432005820054005 -0.8506304547480446 -1.2867615417906484 2.2023486039157363
Ni 0.43686285083329973 2.8043608240457507 2.855331682118701 0.7371247348177047 -1.3004714351775732 -2.0971172081790463
Ni 7.678448539692354 3.330380605829643 0.49715506674222976 1.4981206198260522 -1.745628122757555 0.7126267496763405
Ni 0.5981792190708927 8.528971910406662 9.188209548778953 0.4039501314346849 0.30495828884980386 -1.2167555449151561
Ni 8.44664500110795 4.525328853678541 2.3923455261731106 -0.5504798716995294 1.2844598902406654 0.24821584185243709
Ni 2.6122647023487557 6.575595119237562 0.5705723937704852 0.8888103082518757 -0.6735331261089884 0.25433661003819424
Ni 3.87446962589972 1.7280189810972233 9.473668729006791 0.7236971485578891 -2.0913414820375333 0.07954530382449526
Ni 3.8143673156168987 1.8292142365147563 0.2392152800166416 0.021559985558962866 -2.0845450279409907 0.5672036122121136
Ni 5.044748944891725 3.5752366470178303 1.8538587220732403 1.4053786148056246 -0.5799187457859367 1.6078763857956566
Ni 1.8787495208695484 0.8810079243390652 4.750002251394938 0.12885443447226844 -0.5576568490639429 0.25195088341483707
Ni 5.695109905433727 0.38563063749273424 4.005409555101676 0.3980417363700499 0.2534166693270861 -1.8295967524607266
Ni 2.3739895491940386 7.613466970996147 12.248684433184435 -0.12999240473145357 -0.9049681489586608 -0.6318277759504021
Ni 3.0872637993360152 7.141175439371229 8.955120135394612 -0.42793312461284366 -1.0778378126696146 -0.4505027823832434
Ni 8.143971157911418 0.5993948031033608 9.643545892449065 0.8167122047340452 -3.363413025916175 1.547394783470832
Ni 6.050083005959109 3.2314698586865855 6.328447048760003 0.15089161677796595 -0.7761093436110182 0.09535373161166158
Ni 6.202863022290429 3.1730785792924663 10.483933755464967 -0.9374625220419402 -2.4200721907165867 -0.13559715251274065
Ni 1.750309388993449 5.719308770859659 2.665213587339195 -2.091759543411559 -1.8758706958266016 0.3790996480499084
Ni 4.6089343355094705 6.366971567307938 12.930134448923413 0.4008460385880645 0.9330754487178382 -1.1264247204393825
Ni 0.19836206723172056 1.5456437711525257 0.3370881271041342 -1.008205139973141 -0.07085883179409086 1.210748676599444
Ni 8.449549993111296 2.5948159477914405 9.281458851959503 0.9581136226333887 3.896420966083186 -0.7120443948103091
Ni 7.099828659983797 5.002085987897599 9.779257905602151 3.816673316439898 1.4683117639947358 -0.6897696425725088
Ni 2.3159931230819275 7.902367955665488 2.384653408188846 -0.4422405423744513 1.343761099104144 0.4930038889702477
Ni 1.0695917320799109 3.2768685848489105 4.90903693173864 2.3418957422151605 0.6721321319964036 1.2053275055838728
P 5.98982087410976 6.276587770802534 10.923775868323705 -4.520386565676692 1.7859386494511436 0.5463745912819041
P 6.126477714759079 6.098772176138169 2.338008073807609 0.6012259919041453 -0.04275101781428121 0.07303218529632584
P 0.8479840880602497 0.5317554957684922 2.160755615133537 -0.09923841137804844 -0.08290830675945722 1.0533714520971342
P 8.177411470390066 8.831147486366374 11.823234722454897 1.1237829119411615 0.04356425774419594 0.5553140598633791
P 4.497341276999055 5.596396584931673 6.46719943218455 0.7995292651968553 0.37974062406801695 -0.31366841502929205
P 0.15938816804378622 1.5673607016629774 7.679856849731517 0.7823560958516784 0.35718973535069454 0.46956211300753975
P 4.112697772711341 8.721716719638385 0.6453425633530497 -2.346979841606287 -0.21822006682129516 -2.199640975176586
P 5.940614634156642 1.0820390117317888 1.2435076805210137 0.556583413494106 1.5880344113690652 -0.5802280494962394
