# total energy = -340860.5627970574 ev
CRYSTAL
PRIMVEC
9.38806758743535 0.00000000000000 0.00000000000000
0.00000000000000 9.38806758743535 0.00000000000000
0.00000000000000 0.00000000000000 13.74038587462948
PRIMCOORD
 96 1
Ni 4.545355053113749 6.04368128027671 5.963231172374717 0.5777106823910244 -0.13420669992311726 0.9018774258484791
Ni 9.33121362622111 8.208400721574526 0.7084911876048889 2.1578392086494516 0.17146892670868533 -1.6518383931989036
Ni 9.285146377700201 1.2848978946024647 8.87432453232115 -0.18485254710444293 0.31405150940032367 2.041462852039536
Ni 1.2052495276875683 5.513856287913544 7.152668377526363 -0.7248346045964421 0.28231689730120413 1.4480123903157514
Ni 3.933581617233358 6.20955904960949 3.721707009887903 0.20296416910348913 -0.41068924993073147 -0.5432262754609096
Ni 6.64460210982122 6.226335526704837 13.215888104434766 -3.4852763737825914 0.09200204153060929 0.3496124372240689
Ni 2.8203163775033753 5.756744377119368 8.821891235049062 -3.6896690478024907 2.0928563760201633 0.6074894563153537
Ni 3.3265303794385632 9.238384412164711 5.380364535948317 -1.627465620781494 -1.4344714184065228 0.17731972906250754
Ni 4.612019722310198 1.860536657656896 0.3870766055820396 -0.5306420110379958 -0.7193748670334514 1.8225581004463902
Ni 8.769544308000409 5.529130674166554 10.535743089111135 -0.5325238014417409 -0.02386035155736536 1.6725008066442615
Ni 2.861154472279401 9.315282075224578 0.9480990859337596 -0.9879168220377503 1.4208545989540369 0.8024328119968954
Ni 4.036390347323532 8.395035508734844 2.9297662267302296 -0.22067469900937475 1.3844079260912288 1.1834867555596973
Ni 1.7456360962859132 1.5180787217396878 6.7837802144314665 0.5419620640365053 -0.4981065003041357 -1.312355845319985
Ni 4.724995729789438 8.196449711310185 0.2628565093411348 -1.9527865324480498 -1.5577517012251236 -0.839796083136702
Ni 0.3110135417464452 9.101572100631143 4.783729359338349 1.1427342562326837 0.46584378361568807 1.080585550618081
Ni 4.343173625735247 4.5853106695199015 8.244835812568953 2.6449699266683737 -2.3542511784567197 -1.180559040389941
Ni 3.0086879572001455 9.114405589265356 12.317005963756943 -1.3348823085572752 -1.5704292966927922 -1.2897339941554111
Ni 0.6019309856359799 8.678583319429165 12.209611162563759 0.8427801054656904 -0.729901220486072 -0.5628070258063146
Ni 0.09775231679215801 6.822834576332217 2.9901690547276885 3.9154422443806958 -1.4363143851525328 2.582158647769108
Ni 6.885697078084003 7.690958590592873 6.301011034124824 -0.027156248699817746 -0.7940049929445164 -0.40694726638979595
Ni 8.858533802341086 4.911837054440578 4.231255653493078 -1.3739965009499175 -1.098090906491696 0.2746048733689271
Ni 2.3537387976703434 3.685417433943828 10.958576028388219 0.9187572323229531 1.4561802708385243 0.3565862974387407
Ni 9.119784952094474 7.055790089843089 5.665298964251471 0.1995497441053015 -0.7847261387457518 -0.018552823301522886
Ni 1.6082605006864694 1.517149303030992 11.104402762589359 -0.35717379451109454 -1.8695822917147287 -0.7463416254302824
P 2.171985805747619 7.512022018999528 13.377392911802795 -1.2870096532457123 1.4612563998098511 -1.244320084796986
P 8.063420791085754 6.9819623249422476 1.709468565222778 -4.972181841619115 -1.3552295047550595 -2.3712770235907548
P 0.5960521776017852 4.380697732590367 12.527398195202366 -0.01642523543555881 -1.1887536603855915 -1.1711637152179701
P 7.088939357119905 4.498987386424371 11.897772409660805 -0.2834638664214537 -0.5922353583697606 0.1952122930722122
P 5.815269591563906 8.46962370712462 4.395618188688651 -1.828287803841316 -0.7509919797181002 -0.8260638211522742
P 1.5829596580608631 8.63988570410347 2.9493600629617336 -0.2453860857131258 1.1058754355331213 -0.4000204573629756
P 5.910220508935107 5.995604985254176 7.843905235386687 -1.69813881892734 2.000406191208542 -1.5415838332160097
P 6.018971885920274 5.0554369389679525 4.301510319802713 -0.5061347699252509 -0.5573195203291821 -0.10626292232499764
Ni 6.921127645827617 1.8281008835301908 7.906987417924165 -1.2050750232534342 0.9322359835356783 0.11087368162413162
Ni 7.341684917478562 2.7581016524273476 10.166552630234216 -1.8143804497316043 -0.8536931528337683 0.7848693491918354
Ni 7.861971632992891 7.626180923017108 11.706204192890187 -0.7279011593369077 0.6593887162878064 0.6019181328751634
Ni 7.3284759061337645 0.4540369989130744 4.766663729755853 0.8481565392862555 1.0169456051699326 -0.638661511042784
Ni 6.1311217434362275 2.4518253296749215 12.49752724118895 1.4145106590138803 1.4527830722315174 -0.7249459333633257
Ni 1.4504846338345423 2.9973941116793275 0.3468787770275601 0.20954979274080685 -0.18066807670945015 -0.9996600786166074
Ni 4.744410253926637 1.4860841867979189 4.72151275664877 1.1734260288895857 1.570557080519908 -0.13990940673484936
Ni 7.930945766859433 1.6965083376737429 2.538068814194452 0.9225382966319402 0.11988359843222579 -0.6540832449144929
Ni 3.2505809112229205 8.106108335211406 7.6958394470236895 0.05242273657609036 -0.14614947410729023 -0.4339245663095882
Ni 8.36045925515781 6.556814288154412 7.923572378437113 1.0216586943748855 1.278151174413818 0.7069155582241761
Ni 8.72831191437827 0.9528888781072604 13.394348700992445 -0.36815549033357886 -0.6699829468638848 -1.0980885924988508
Ni 5.731659460052347 6.9637306973433875 1.9956675662538232 0.8907059826126917 -1.1814414429948945 0.34075858637786477
Ni 8.741802567756006 6.0029182900428015 13.219749416706348 2.239625485989323 -0.23711176151947552 0.4626802982860419
Ni 6.577120678729249 7.134208619880823 9.728701598954096 -0.14346112864184968 -0.9163619926178993 0.2864903119526034
Ni 8.11313060989933 3.1162658257147378 0.037272506639029014 0.8977289508977442 2.133474663762158 0.4818764115985185
Ni 4.024101366619666 4.313422838989218 12.710118158104844 -0.6608694145983909 0.15173545283549997 1.0415934856255995
Ni 5.965732153627207 0.1487548725369197 2.2109519198113823 -0.37150795174557955 0.7188958705145039 1.5047075290149505
Ni 5.3525880598531845 8.80362299398592 8.865145818467697 -2.4537245886637096 0.7368928213125566 -0.6401887463205878
Ni 2.1928648684560974 8.554811034020632 10.008414383966576 -0.3561463816878447 -0.3493794952776563 -0.7043585961302773
Ni 1.8388877733917202 5.519498516640071 0.022604589563612425 0.5772008326341415 -1.4841813840371407 0.42121174672861006
Ni 9.138673744436858 3.471576026401688 6.301863470677849 -1.420928903835398 -0.3731395738117316 0.8653726460542258
Ni 6.7454581218163545 0.1593023666704518 10.541376868576673 0.3754913618733598 0.25252578208170057 0.1315936877803024
Ni 3.63219647778629 3.8307259468043617 3.8387339686075688 -0.267030660566095 0.5818319036482495 1.598497515683918
Ni 1.8209096236225044 1.2962011281910475 3.804877779828079 -0.2685635522708536 0.24598849518381505 0.17934447280202015
P 7.21102179033081 9.044389379876943 7.995805110624749 1.2928504282972058 0.011575877763057482 -0.10310895007704822
P 4.159589960598424 2.1920011662217536 7.231262464431294 0.6580291169361183 -0.5954062998985746 -1.1642577321267562
P 5.334234387373384 7.530094049446391 11.737532175020668 1.1517130626925263 0.8869298033997112 0.11234589529428392
P 8.768389575665363 2.2611442853080588 4.502106102535773 0.27233330372593095 -0.17903594042266585 0.1794167208008523
P 2.029850459791521 7.397018188883135 5.93025464554477 0.17141673331451124 0.8587055184466953 0.7042243845452582
P 8.60681154136877 3.4688253225466594 8.559147382521104 0.5622372693457736 -0.7239594010803404 -0.8446999481962226
P 8.728753153563208 0.6552786807083396 11.133684145947157 0.6797839921147066 0.5475382725727023 -0.05419191266137118
P 2.0181904796278833 1.040610983299716 8.80046954202379 1.3057128860821705 -0.8478495495687979 1.3116382504276702
Ni 5.48625536868561 0.12513355523440073 6.301712322786839 -0.5790000906264093 0.6845328196536017 2.805865448736587
Ni 3.8828766632367344 2.565552382575329 9.377771870686109 -3.893818752573649 -0.24884036281031338 -2.6078712220438636
Ni 7.82881297764831 4.763533747963136 2.0232853840037337 -0.525965688608249 0.42244073403970467 -0.16970566416067545
Ni 0.05589280024334369 3.17257545616683 10.761800250428575 0.579777335112066 0.5975151187114612 0.30932813578272533
Ni 1.517177467234286 5.521207144973229 4.9701585478146235 2.189693634155887 0.06855203803778516 -1.6781448923039164
Ni 7.16530190031719 4.8999705367861175 8.964887466819174 -0.7050767052432244 -1.9063909759026458 1.2541301289088722
Ni 3.581782553890369 3.6190907351869037 1.494486507447239 -0.9769585232540337 0.8128509220064261 -0.05023369934457155
Ni 5.812847470080638 4.002790452794016 0.6695842183680425 0.3297342102429031 0.6492030340040562 -0.0002668805081414759
Ni 2.4675785073839265 7.084066949950076 1.6928291539167948 -0.3526275699013088 -1.3682878806009144 1.8595853284030168
Ni 4.188082746263995 6.197767636497148 10.433996149485138 1.8586507324038894 0.4836993237398701 1.0828000417708963
Ni 8.835439155640163 8.250205787330307 9.569244329165528 -1.0239534039463334 1.3061291476839827 1.5381472967306349
Ni 6.796726359878855 3.152597647963754 5.230992867359263 0.23689090375792105 -0.4708898306800277 0.6615219605807252
Ni 0.4138325987111597 3.156897382999942 2.6109896917492335 -0.1077762736457305 0.4001186735037367 0.09651869845404022
Ni 7.375125214856079 5.313561862155728 6.335129149994945 -0.7635587606395172 -0.9720073498963454 -1.7447650034263114
Ni 0.7362470099509394 1.0754031624353366 1.4629660699275828 0.40748874071556274 -0.6951519899303448 1.004258239510251
Ni 8.667139264824113 0.8309209793230838 6.792367480015749 0.0872745541479529 -0.5575828012928977 -2.3192939456552444
Ni 6.125357469828761 2.8690686134049614 3.039002028012051 -2.175923834065304 1.2394668704697427 -0.5790720815149253
Ni 5.135920843913899 3.918326007115877 10.746575620934719 0.8741871590220621 1.9073006322011088 -0.34546319094238565
Ni 6.811240312642932 8.594109485683264 0.32109914294595876 3.3002250804037807 -0.23256887934379944 -0.8710743244246932
Ni 2.0511332094138774 6.336457561583637 11.315386442303952 -1.1203114084527932 -0.06706465485898128 0.2990478369026398
Ni 1.3977049168619413 3.367030503775063 8.471882476228783 0.42632207137198186 -0.05248958525828379 -0.004100395321618745
Ni 8.639003225733598 8.896264446687027 2.7745683232864624 -1.424539504004792 0.9935516517260244 0.2520251882961982
Ni 0.7704834154748956 8.306055402461933 7.732690429420088 1.0875393562280948 0.1744472926107189 -1.3608458225005726
Ni 5.045945602457939 0.47417064904104317 12.250584445515596 1.1453220715645178 -1.048130258302853 -0.7685019635774054
P 1.7890559096972045 3.608500994748431 6.065542334873366 1.914128710866536 0.5506022562100066 0.21066205196837912
P 6.8356117365598426 1.3977612452685286 0.6649605949939753 -0.4672987708946597 0.5530543172949249 -0.632781141002607
P 3.040382073973447 1.7915906879936476 12.65196846637089 -0.17641701474258004 1.713552582379249 0.8460086397053173
P 1.561667520370742 4.988002448214806 2.8665601216982597 0.765741884333765 0.3417523177497017 -0.6552476975362392
P 5.274591992864859 1.8313022146379205 10.48655243044494 2.7523327669257696 -2.5610277793277634 1.740661522780899
P 3.688374675289678 1.8786931807136393 3.0324623000072273 0.5992943220990711 0.10274102521466821 -2.824580251537271
P 4.007174680440086 5.93286452838333 0.5348626295256522 1.9858722592584248 -1.0924465637217249 0.5886260437519475
P 0.7803549687293763 6.531860804036095 9.344025522299466 1.8155729273778087 0.4664611054847128 -0.8465377727359099
