# total energy = -381173.1570972265 ev
CRYSTAL
PRIMVEC
9.19655635063957 0.00000000000000 0.00000000000000
0.00000000000000 9.19655635063957 0.00000000000000
0.00000000000000 0.00000000000000 13.46008982131860
PRIMCOORD
 96 1
Ni 3.669775479204251 2.9938837619526675 6.294543493869729 0.7072248619344788 -0.7802696456362949 0.09555042100349996
Ni 7.180836787777867 4.692671663151574 12.277109445466067 0.9374792342124886 -0.5887229743411281 0.7937129156253944
Ni 1.7460030218396339 6.947428185934926 5.885505495179851 0.649632922452623 0.009126902001932669 1.1814458138702686
Ni 4.263909809915891 6.975919117712287 2.7823087046974058 -0.525254007253205 -0.5162554032990205 0.2466693233009236
Ni 4.80443741327755 4.564729170289517 12.475000026774035 1.051713090558105 -0.12396136804602524 -0.45322249530725167
Ni 5.762957702311532 4.509715369807859 6.640939148530717 -1.3570902121128823 1.0956144199267452 -0.6219971630132255
Ni 5.481589058758152 0.5325826982737115 11.566510843955417 0.7066671896587958 -0.13180734645300526 -0.5321147389287804
Ni 4.617177131531058 0.44008281418401507 2.7284950548280613 -0.9153790598793398 -0.9982593416143387 -0.850107492365039
Ni -0.0011688823204979483 8.598090507407901 2.7081026106307977 1.8444029642356234 -1.2043438015143646 -0.7498462961494311
Ni 0.5964472646503122 2.9532625722623496 12.550685846768008 0.933112986823993 -1.7424864918047798 1.524265653652536
Ni 3.699305621856642 8.20754954263791 9.986848696982367 -2.4743386653696353 0.40291757640511255 1.6086909112771521
Ni 6.563775441920662 9.257989413051728 7.78444081263126 -1.3496044452587983 -1.3167925409351 -0.10718234881547346
Ni 4.828274887508318 3.7783132380281437 4.2791512628644455 0.545996382006879 2.146387515169084 -0.03853903661546266
Ni 6.637329500137362 1.9375764885453206 2.708506339457469 -0.30816651137445633 0.8590515889322043 0.30829146698809484
Ni 3.6242433283876867 0.3206857615438832 12.790221194495418 -1.7079216093457166 -0.64296862305857 1.096075418723564
Ni 0.07137171537913789 8.35234012685443 -0.2756557427076428 0.6888214197266267 0.3788271111148121 0.6364395636908007
Ni 1.2306004106070099 6.027689775308024 1.063568874353572 -0.5353484153747295 0.7347791174036635 0.17373278304219758
Ni 1.9464695585997778 3.446878541345016 1.419083834356856 -0.522202879131707 0.8025328279098696 -0.11243408413271604
Ni 0.7903023970028559 7.365411675050833 11.070076130331188 1.4789273347270528 0.4304548625934329 -0.5065451179897921
Ni 4.929896835907235 7.000786606261669 12.267876102824209 0.7460755162530893 0.6808479146028468 -1.4423423365141674
Ni 4.746407142291381 1.2881616572159529 8.768938614574058 -0.026485962105670512 -0.0025330508344988635 0.4260485059956211
Ni 9.145616690202283 2.1789952910267654 8.110148813634025 -0.47866098998501433 -0.034833819849733556 0.5023861015160961
Ni 5.569857607240758 2.844182216609901 10.932823043753379 0.4596777640142922 -0.6200387537352741 0.5875618641534913
Ni 7.111991366446258 1.3647781687192448 9.449884759231981 0.7811301938643773 -0.19045189556909137 1.547904890338031
P 1.9153392151309694 8.991785891028647 6.797749631983199 0.2890076790578184 -0.49468384777583185 0.9956471008024723
Ni 6.018079373853102 5.891985388830701 4.266700045132564 -2.0978754265013095 2.320499278817255 -0.420345799183889
P 0.46585064560654227 4.365945603353536 2.9136116192739396 0.5200907178847107 0.3930298849777554 0.2288700903359736
Ni 5.982737007545679 2.287018042691351 6.916197600001181 0.3960732997897695 -1.1454154026092724 -0.31195168944850143
P 4.383952460816439 6.218987345321223 9.49254022720156 -0.26023909156555824 0.936646196788232 -0.6655678485153247
P 2.2256310286132726 7.740281707687633 13.21074201352655 0.6150145610478053 -0.6330480215107485 -1.7082283419528579
P 8.346454330748069 8.794951994052898 10.44636199556251 -0.03709073420471032 0.31839435975005165 0.09989121447069893
Ni 5.857636250616225 7.994400954579838 9.943452906221282 2.4599625991536214 -0.0508978152911317 0.06101356356889492
Ni 6.532176074074628 8.273967073075646 5.553929171527914 0.29820322951415745 -0.07884184999956743 0.47520182779182035
Ni 4.460421827417072 6.641118481380833 5.86464218729408 -1.0168124220261778 -0.1093436181328504 -0.5749004666357389
Ni 2.819930897340404 3.542366386614333 11.937107236825614 -1.0297239878815232 -0.8515066867054111 1.2326341638186256
Ni 0.6585322973603799 5.0796535605885 11.985671492292598 -0.6026586105856137 0.9662694189713036 0.15091989891274007
Ni 0.4047404478765909 2.0289350799837673 2.9805211654799413 -0.09107875838539153 -0.14267591373639296 0.23005742577585542
Ni 6.14891878198626 5.2639893373946425 10.307588718209105 -0.4792973380174326 0.848529606354958 -0.21084999960946912
Ni 6.257419754584489 3.3990472514244034 0.7286965048820717 -0.7981817500300253 -0.22188414593644368 -1.0543854951839455
Ni 7.747574576925674 0.47974572269576604 3.965450285918659 -0.37463132786590964 0.827381511522433 1.171737585443569
Ni 2.3332951145776275 8.155588998886428 1.796935390583786 0.20609602986425152 0.23892953145450463 -0.29675749820656633
Ni 5.7884597532536315 6.883263811819157 7.780537794088229 -0.747732592240538 -0.12830601816796613 1.3442434380572013
Ni 7.786945034943389 6.650508165481765 11.221340170609066 -0.14423297381086775 1.146848021290741 1.0608389641187732
Ni 3.433405586195295 1.3806054423115106 10.753225332812857 -1.0914633738728494 1.0494831727863214 -0.8067095849953785
Ni 2.417480392011445 2.7892695782488213 4.402983814664106 0.3235525069122234 -0.7393081156222687 -1.6645712673845396
Ni 6.340069207096802 3.536894435546699 8.905236178940225 0.2687782393848209 0.07273342310898442 -1.469821772881359
Ni 4.06713109227864 2.598349067048684 2.2697349542184027 0.4447316842274212 1.1631770974680677 -0.35890594671085285
Ni 8.795890042807349 4.3114376134747685 0.8179996659615001 -0.6015098416931511 0.5237036320469497 0.5021341334062901
Ni 1.2894491751142196 7.321764818299587 8.588923379972242 0.9068949336677286 0.5999350410068635 0.34434476106722633
Ni 0.9924831718789778 0.7322592508377045 11.479949176343656 -0.055876242342329574 0.14069539297125447 0.7836894699511213
Ni 8.38942983888093 2.037074032412097 0.9333612696462071 -0.12127687923532662 0.25849768339441936 -0.8011022661109299
Ni 6.860134472432435 8.245338192952042 13.016579716189707 -0.01674045268313246 -1.3614978542622747 0.09161637605641641
Ni 1.143187141871109 6.440707123959187 3.7619065813816577 -1.121074768981379 0.18737171398187086 -1.0637203994316262
Ni 8.615085743665023 4.605230804746425 9.694979425312978 0.2851847057673024 -0.1262391083366084 -0.45013999972718605
Ni 0.20508412773671358 3.2690907127072 5.034503986518848 -0.27668206761292996 -0.2661248609223739 0.11930278622809132
Ni 1.5533259683640044 1.8050725037008324 6.3794369061475935 -0.17238886741979342 0.1431564529172373 0.41663801131499856
P 2.3637173232023887 1.1809573990724078 2.551400646544027 1.5039367122871967 -0.2157322674024349 2.445565449891685
Ni 7.701453846498471 1.0105268155675458 12.226122817039059 0.6302619741251791 -0.49036593712676835 -0.172599954989335
P 4.941659231563545 4.975189876256979 2.2051668512759632 -2.143813069573689 0.025723887128665378 -0.3741369047279944
Ni 5.006651295756771 1.706448632693594 4.631912773876721 0.9606749556026615 -1.8064791926066563 0.5149518539962487
P 7.851541647210718 9.275095007985843 1.277642635987113 -1.089027510737847 -0.2775606135631414 -0.3150902350774832
P 7.212399369398237 2.7528144286150384 4.9263929479126665 -0.5566127240701446 -0.179906001732445 -0.15207869510753164
P 9.413871044306175 6.115452513187739 7.26332070227469 -1.608713022764339 -0.8817847688636621 0.12621802529068585
Ni 2.6575289075868773 2.5107334740716274 8.432180951037239 0.7357538226121071 -0.5808106614725868 -0.03149832771859737
Ni 2.912622989459199 4.917288357060637 3.384405413954185 -0.18495153457615243 0.19067043933780065 -0.3430491821842544
Ni 8.025614067056393 6.779995679821742 8.94328785076786 -0.36519332238146135 0.27892149846640996 -0.13576170311506297
Ni 3.624086986928611 7.96339016634444 7.747210393291592 -0.6760666911641194 -1.0558047441289753 0.6092763730124474
Ni 3.481319645123653 5.698581807398192 0.45755994999734556 0.3759611024209267 0.45182741473193794 1.621227610291582
Ni 6.787031045480129 4.367610180064867 2.6967696941591255 1.7075372294231044 -1.2812514106056967 -0.3168159595193382
Ni 1.2707525759201022 4.294138890855912 7.521727383768123 -0.22841114842168406 -0.4276839847165151 -0.4235416804133673
Ni 8.11759802433114 2.88453670616415 11.200504452392543 -0.7256732984476535 0.7884269846361066 -1.9935729703367924
Ni 8.575632516639562 8.258921506778757 7.244112774543832 1.402547573114733 0.010063040662956862 -0.7209563525879583
Ni 1.8136344977243066 5.225860414493113 9.882397887829828 -1.6240098010224093 0.24686267025865224 -1.2559782378612048
Ni 7.929280138596786 5.007681310075384 4.528162742323097 3.0089476314751793 -1.6780227649037551 0.42329896827494196
Ni 4.190466110376185 0.4999229674728904 6.498517597247008 -0.02694567535090843 0.6614052324972028 -0.8445721643691066
Ni 0.685268526173532 -0.002875763191343103 4.956462928426689 -1.2783136681336114 -0.03408100084410905 0.9990579262562342
Ni 7.382581645879862 6.204576341417051 6.395400288774819 1.3082377093865534 0.4017875765657274 0.27394461407710885
Ni 6.211657689857518 6.040684509524102 0.5549275713981321 -0.003165285101859065 -0.28745858940314367 1.1691605687450122
Ni 1.45585166690879 0.589229807174885 9.250944850836925 0.28260151842115844 -0.9515220854587999 -1.2766054271932532
Ni 6.5398460021257305 8.070741569390645 2.7546482219644264 -0.07146278392667693 -0.23711407551232064 -0.31076898199430997
Ni 1.6073189510834651 1.1942372265373884 0.7289540084617251 -1.335483946697016 -0.6451926272930824 -2.6572418020571913
Ni 1.2496004961628615 2.83271411075891 10.097274508838503 -0.9235813931844739 0.550795088947103 1.227974553559427
Ni 3.0148243209123358 6.031018928730685 11.602665266194393 -0.9171438650892462 0.8758218664120078 0.2583786413180518
Ni 8.163148568260537 6.344354802386747 2.385423955311526 0.43235902159468115 -0.6649330431448033 -0.5837915984777817
Ni 7.920810110137474 3.930507050159698 6.933454018460523 1.3093972769122932 -0.25788627506266554 0.39556833512889295
Ni 7.898269350361387 0.9574442919332878 6.188249694811386 0.8172266824766183 2.2742086232808316 -0.09006882906363844
Ni 3.787169521856936 4.249802292373453 10.004575059474575 1.6878942583811962 -1.5051988668290721 1.6535983133128036
Ni 2.574897848187396 8.488669879168054 4.03264308606228 1.6305571152226241 0.285801770526011 0.39053102981530163
P 8.354436941717323 6.390475532813948 13.462243920462708 -0.028796869627034274 -1.1148910087681703 -0.22641262993441652
Ni 3.684903814508886 4.599390991422143 7.905191598375855 0.8540201971558841 1.8519172703347977 -0.88638730063268
P 8.2306604889118 7.19594672996967 4.501175447519784 0.2926550460024186 0.9661935714280457 -0.6335159622861025
Ni 5.855548632309749 0.9614631870871636 0.696903089695656 -0.051623380603246574 0.6541719479735573 -0.6752143704661532
P 4.63726241074402 2.3877203354486487 12.887834363952516 -0.38027104265019024 -0.19309087585383522 -0.10865327693404514
P 4.838446278904627 8.352266554403101 4.370962324878569 -1.067103456971246 -0.1267654131537236 0.8219839946559456
P 2.8702268643805557 4.986474050979646 5.9717710336750125 -0.08839709778817034 0.3050027689344941 -1.559971848804894
Ni 4.825699851711785 8.094808957531818 0.8016022058714305 -0.7732410209242876 -0.35838735520322146 0.3922819510681373
