# total energy = -340873.73941635183 ev
CRYSTAL
PRIMVEC
9.19224116363900 0.00000000000000 0.00000000000000
0.00000000000000 9.19224116363900 0.00000000000000
0.00000000000000 0.00000000000000 13.45377410896198
PRIMCOORD
 96 1
Ni 4.233495773764233 3.4901560149943713 10.91943272106342 -1.6439057686153882 -0.12239428066922146 0.6886612399996784
Ni 9.239581017084141 8.900607938851048 7.355232285782808 -0.5322114124076447 0.14404785438325515 -0.47191287262790343
Ni 2.6973803842552733 3.581968117863233 5.967259971068087 0.9108842573327798 -0.1088167990951029 1.0633966975436202
Ni 5.172317729130932 2.5336665724716902 5.780602325808265 -0.9046717007641646 -0.5255080322455401 0.3034102276363936
Ni 5.869540014923913 6.774690791595314 2.426993373616836 0.9374604651594113 0.4178482295730159 0.5815632233678952
Ni 7.205200205467988 8.576893980638209 4.351891837535852 1.0155343266447026 0.328206460744467 -0.7469715457047974
Ni 8.29773481443632 4.79950801186497 5.506280116807978 0.33334403908134846 1.2892850795434507 0.39697987076443886
Ni 8.398858657413928 0.7438618780573015 2.347225864098902 -0.17446529033284794 0.5184583244876103 0.16012239134761455
Ni 8.335662000703534 1.7373886979207138 13.179531767518958 0.3138324514109821 -0.19683234517413842 0.18529040597280994
Ni 7.453684863532773 7.315047485131875 6.705805056944837 -0.6854766716241097 0.24167109875538376 0.04226225110332076
Ni 3.430856868457825 7.990640427908192 9.2037000236582 0.4027080314974677 0.48046667573518553 0.7189030696033555
Ni 2.96409325617558 3.767495117483001 3.037997035174887 -0.2942113347459449 0.4700786476326421 1.574004158528244
Ni 5.770787770118129 9.321391961771052 2.294783210106397 0.8923540597390762 -0.13849992798183244 -1.823023470118583
Ni 1.7458179828957585 1.3457808478587145 6.505290108413608 -0.8576634503354261 0.8172721910025732 -0.4721715256059288
Ni 4.534780663995492 8.745222297391773 12.145650090546555 -1.6140925419086976 -0.777554560697977 -1.0727765960966233
Ni 7.53445708498939 4.592075901999258 2.8482039165181305 -1.2604576137887968 0.28528060791521836 1.4476647771683455
Ni 2.3437548739063434 5.5806462655283795 1.444639722659822 0.855149682774637 1.0392974905025714 -0.3755844358077983
Ni 4.629148209855697 5.707600305648709 11.657089836461882 -1.3872975889341979 1.7376363628013298 -0.6247407871966337
Ni 4.236501636563404 5.811711626943536 5.476587340007117 -0.4164914584348053 -0.37861011000799955 -0.799936527937603
Ni 1.3372964094378132 7.648348950682742 9.677151910474624 -2.2371988788257022 -2.3882463044552416 -0.5673560786295777
Ni 6.565659231799768 0.6139019751378014 6.546807784006069 0.5567968150564927 0.33278688102629783 0.26273794672801204
Ni 0.5892483848400153 3.1474141179610937 4.97325515467392 -0.5327513440715148 -1.788308692345217 -0.9829491936198298
Ni 1.3595967860457288 1.3755729008621165 0.9126727874621084 -0.3600922537094702 0.22885312105510908 -0.3813560481842529
Ni 8.077690949951457 4.206856659415618 9.157109150271053 0.30716789490661295 -0.24180171079597715 0.5048646449635756
P 8.615308355677152 1.0971215372153844 5.449276272843153 -0.44810291469249924 -0.12261873797520174 0.40727739603570506
P 9.169830292557817 6.117629406626728 10.36322676563594 -1.2057057148588977 -1.3415134407205476 0.3358994585133505
P 7.573845837571796 2.396334492289392 11.262315259383632 -1.0424974854971079 0.3360408691872213 -0.4261924877726531
P 0.7534126164314252 4.868707201932731 0.07791251528896531 -0.6084955289823649 -1.467192562788628 0.7638798914243619
P 3.823365558135478 4.434373815814016 12.94955292898717 -0.37953467870479796 -1.7235942828859672 2.3483497253706203
P 3.2018505690213055 1.7699476154579092 4.82432154715574 -0.34531175296618594 0.29725423533732676 0.9256081938065155
P 0.9355127486153184 2.5166057732201272 2.71764927560748 -0.034473865407153526 -0.42272381249776225 0.1428450923244056
P 3.99449750838674 4.60778544182734 7.5666584243526165 -0.758365646474352 -0.3842508532335447 -0.13941189827314054
Ni 3.181682792319836 2.8573437617206245 0.9492615834432075 1.4637022902471823 0.36593225743001495 0.2408522023985142
Ni 3.123964711231171 7.991274692535541 5.087302369239767 0.47703708122834615 -0.23092851552689908 0.8315225302740002
Ni 1.9322182454082513 9.014527381267328 11.362707399979545 -0.4727808770551535 0.9313808346242346 0.9190140855287655
Ni 8.758744083867553 6.405870506912961 3.9010831979157508 -0.3087426955929005 0.643984208807278 -0.43814966013452933
Ni 7.656759851175835 7.841744508578015 9.304764117069464 -0.9680033709432749 -1.117983531650565 -0.5655424224596067
Ni 7.38388817780157 8.723160919049235 0.4096228039268767 0.6770048867076727 -1.3418325146228633 0.21354528705344514
Ni 5.392499477230436 7.202258688355649 10.066436881241973 0.8244008316275545 -0.8961770330295922 0.7923959965861836
Ni 8.931539829735481 6.278521200430661 8.09169165218209 1.0043988788531735 -1.247791074064722 0.05221756254381975
Ni 2.331281002901833 6.21065488530443 12.510233671363043 -0.041856273914153724 -0.09118263095310748 -1.3264534610636316
Ni 3.715310765461923 0.33825516421286433 7.144209686591847 1.375888575766308 -1.331169121371746 -0.9945908916238161
Ni 2.467399707275292 8.396496251483082 0.30472830370089 0.47215687031790937 -0.09038995984848304 -0.6458582859015393
Ni 5.9060056348759336 4.574629028626701 6.791949224027862 1.4863840481154142 1.213448077808478 0.8213749003170371
Ni 2.8507437326998155 1.2183396189666538 2.7715580920356664 -0.5064782693075986 -1.0813070021651379 -0.21158764910644204
Ni 8.769278392026115 4.321437943182175 11.747687644297807 -0.051089876697279754 0.2905518836164867 0.12034896810441854
Ni 0.3116123729678594 6.821902141248345 0.36101331442138734 -0.868338156440453 1.3715346696729864 0.21796527049801173
Ni 1.6345091369166789 4.363382138755925 10.239949621906035 0.07330086557668021 0.8353208209741678 -0.11118529932727947
Ni 0.573520460529981 2.2617233154360066 11.094789425267278 -0.5290882933976307 -1.789550278061802 -0.8773753269420567
Ni 0.7102614796175187 4.642293114451459 2.6632017938580965 -1.1543512716463216 -0.7887152053004868 0.18075446577566934
Ni 1.2266034436041295 9.353932494826298 4.512961041590624 -0.7791298756048969 0.19803022213698152 -0.9473489279177167
Ni 4.862759822021221 2.3610546714232834 2.8763229816638907 0.9184114189477602 -0.6638938032470115 0.45159138746173194
Ni 3.5658908883961087 2.4268527323299023 8.115961926031174 0.7550941748119318 0.8688721745670519 0.4482337838434087
Ni 1.0480073936803094 8.219260653223717 2.1191305157431106 -0.9371853571211536 1.4860050675094407 -0.07917609341053461
Ni 7.035097786206045 5.939777928221968 0.5701551811086464 -0.1347923972232582 1.3777924776572401 -0.800988109130569
Ni 8.307092515749947 7.6535517590751905 11.843504806559938 0.8908584490301561 -0.6962693913642396 -0.7371085368677887
P 8.063360246269783 7.3340110782654815 2.120206927161407 -0.8515822771383529 0.5735321255333026 -0.4227158420779623
P 6.120534154775162 7.495353291877242 12.425111681476556 1.0739122523629634 -1.5288764129516703 -0.20863987933202777
P 6.571624996193229 5.99433387841487 8.538248880350766 1.0730841000347133 -0.12660677608867227 0.07567193691201807
P 6.332911690285993 4.053667963549621 4.746114880155541 0.5289342843182696 -0.9106045213088316 -0.8478608624227075
P 1.55085055179358 7.104434859888447 3.697365672628463 2.222471085697224 0.26478660172692464 1.5459835049456019
P 4.18521812415798 0.4544643938562801 0.7145193256376285 -0.742134015106838 0.38430176107613817 0.9588749262794455
P 5.935200192215892 2.0160974443147754 8.307866502440131 -0.9449490602269726 0.0068270502241624354 -0.5830115257786476
P 2.162290844797993 7.968827240072009 7.44576207103551 -0.7089099629463855 0.23373873128218456 -1.2123610153918862
Ni 7.98952816675009 1.4908987561477334 8.612110375041583 -0.045148057291548055 -0.5477570734517276 1.2836741611145763
Ni 5.640974943054244 4.102230572626133 9.31245986121462 0.0993872782510869 0.001150311554359309 -1.1337407944848217
Ni 5.409624622168831 9.021458330963275 8.827384385683969 2.32501105064468 1.135839071774747 -2.0250101058001513
Ni 6.12321828914017 3.81382401200233 12.58100105774132 -0.21541370772075158 -1.241019045448211 0.31622614845413927
Ni 1.778873281445661 5.292497087651907 4.769833619546061 0.05601173947892934 0.10324856097870606 -0.29403444284844843
Ni 5.402822363846549 4.126672741381469 1.7642070609683613 0.3848159817083953 1.9274207999897517 -1.9336274430210958
Ni 0.8893897602938526 2.767296569119166 8.60798030117104 -0.11060345868188048 0.16292386535215167 -0.7994601025218168
Ni 7.753305958147366 2.954956168645379 6.791963012389326 -0.1892069674183967 -1.166720334734636 -0.1145264478853705
Ni 6.6062521679500374 6.142889684828933 4.770546937445803 -1.5447642878265204 1.3169023270400868 -0.5330063975051142
Ni 3.6616372704027236 7.908075719461245 2.672713005596023 -0.6053112177171123 -0.26974523128378064 -0.45679324337764554
Ni 1.801431040800906 0.5799945558494183 8.827222602242792 0.27105135168971384 0.2121607480010927 -0.1255179138998677
Ni 3.399327481909948 1.6565061695723844 12.344725534140933 0.23323890882763057 -0.7308108767845349 -0.07409019424719498
Ni 4.825209517634027 0.4855001570637429 4.229718681947171 -0.45843463563581044 -1.207745628107062 2.706267340026275
Ni 1.8819826484740974 3.3808326930661203 12.562542118637298 -0.13117614062690958 0.8063401174711017 -0.05135727142605348
Ni 5.953364060384581 1.1953957854904145 13.031083510324313 -0.75334299644878 1.0529418207588832 -0.6882933151372984
Ni 4.2693271290889045 6.705197449816319 0.4947006710566788 1.0864427807298063 -0.10975782285213356 -0.14559180183160733
Ni 7.977081872468508 3.9081915578625357 0.7382169228739046 0.8822601658381837 -0.8876306861214777 -0.39440645361030785
Ni 0.7692793435801979 7.111825421633196 5.838601689470797 0.13585503415981764 0.5188995257900869 1.1467580326800961
Ni 4.709083937383493 1.3084879262188494 10.297733887129725 -0.6341145151020499 0.4416525310814652 0.36434434411760475
Ni 6.860114286985816 0.13482351761993216 10.982679015875085 -0.4067901719866414 1.402819595829197 -0.02742981407617857
Ni 4.759751569643521 6.904843731575312 7.655843384750521 0.40425892092435545 -0.30437002044650163 -1.2659366346254972
Ni 6.929993702885804 2.0125400470570414 4.045926258199585 0.8878808544590708 -0.15472744558428836 0.2805675187102652
Ni 2.09615267097526 5.6666672565823255 7.619545063584265 0.43225669168886205 0.22815223833334256 0.06187951111361602
Ni 6.773109726147432 5.604233555872944 11.367779678550134 2.6691282690821323 1.0495024560600312 -1.3063433205773178
P 6.683568106799656 2.0959136727098824 1.3630962721853137 0.6030381054122196 0.8540217398177808 1.3911778978252105
P 4.115871858234602 5.662098712817225 2.8357061456870833 -0.5354535734940262 -0.05838949568248654 0.5561720369883001
P 0.4985586545943301 4.200017632129432 7.070442871983084 -0.14510817732696946 0.3402901313818784 -0.10428522977333654
P 2.4937446699126724 2.1681187255768135 10.05038630927368 1.663222209555813 0.5013707728777043 1.7373435141512596
P 9.058457100891907 0.008514772816122012 9.82671702494786 0.9593104711549673 1.9018334384389501 1.1830015883931626
P 3.1237992508936023 5.975379477522239 9.990665238876332 0.3801316888588485 0.2516950586502891 0.6868038750759656
P 5.635193023480305 8.024421913495203 5.72370603106286 -2.099079988332372 -0.7734161130495713 -0.12897553343116497
P 0.382373324777452 9.077531000917226 13.178590482043008 0.2812601739019156 -0.705853692618565 -0.9415197228304494
