# total energy = -381177.5369387145 ev
CRYSTAL
PRIMVEC
9.10161626579508 0.00000000000000 0.00000000000000
0.00000000000000 9.10161626579508 0.00000000000000
0.00000000000000 0.00000000000000 13.32113541047313
PRIMCOORD
 96 1
Ni 6.226087987016598 6.825347499508353 5.323045650805051 -0.7773391022530611 1.02849757167359 -0.4956811786920947
Ni 7.789645533096488 7.8916018378144095 6.862982682512156 -0.8979878609860857 0.6530188082057206 -1.0179835595161435
Ni 0.3917281004531771 5.977586559797048 3.2315479466468275 0.06962778760046717 1.1133961693901986 0.29346597193948815
Ni 2.167058411722739 5.049094284355698 7.084232960655118 -0.7180137250198667 -1.0860360322096907 0.17070839439357696
Ni 2.436711995000533 1.0901278776093157 5.236205310278838 0.8317647281917933 -1.836484737829811 0.5691028861173554
Ni 0.8592317066132861 1.6744971459912223 1.7241410014146672 0.9292771580176706 0.41681387477123055 -1.0307961378997796
Ni 7.865188947590216 7.150930514360117 12.85160495195663 -0.9988540377755443 0.15369771876819335 1.524295735559523
Ni 5.918981253059082 2.8273442608627404 6.584996569599542 -0.4578893046553018 0.026799379581031263 -1.2989958790733114
Ni 8.02339324044925 0.8142506091711832 2.713795227585704 -0.9067455525740578 -0.9069674387768768 0.4306425531242067
Ni 6.0513369558985755 1.6752798849847719 12.956522922587355 -0.8120641644390724 1.7684317509156318 -0.07021605600376939
Ni 1.628533984160701 6.91484369164291 5.256759490152476 -0.7732011688252877 0.7929400420151118 -0.28594755207525596
Ni 3.2370353110562577 6.2157849574735975 8.823294241513107 0.9169417763807691 1.4384964804055163 -0.3124772229346683
Ni 4.594568672740964 7.847340678214048 1.5627556936923124 0.3235183112401783 0.42909423480048037 -0.5688964265335041
Ni 3.4294980873073877 2.234647013654116 0.7695061537503859 -0.48079809093267517 -0.39023638139301825 -0.8411477120685901
Ni 3.588339493300707 2.691675569724968 11.221217878736782 0.02747120883707527 -0.10682856502048053 0.4808855084401589
Ni 4.990206827515407 2.6882078539512193 8.819164838241322 0.1620283501210758 0.27357411811156757 1.3244354021923384
Ni 6.601265708564305 5.1650033667144495 6.912710272804677 -1.5051240477270789 0.1318590256265471 0.0005815835350828694
Ni 6.207402368949655 8.541885010746144 9.489191237042915 1.5478858641746374 -1.347116902950254 -0.557129258695247
Ni 5.959956729209776 3.660133041918361 11.033603533437557 1.220898363438936 -1.0162673481559854 -0.5991539398664649
Ni 3.62971544056438 5.3851714626907485 1.466617142052029 1.6610046330792039 1.4733398133369466 1.434703589021987
Ni 5.442156681744391 5.1555558890946305 9.302055636756023 -0.18406501820614105 -0.05451947120411901 -1.1007753953023947
Ni 7.258675446983823 4.811105223851842 3.9604536108341266 -1.2436932498462645 0.7494068946191674 -0.7042374971713806
Ni 1.2134092690933578 7.744601634502577 12.539678002057443 -0.5192903334706024 -0.040626515272110676 -1.7970465864388472
Ni 8.126469043960272 2.4187727094623233 11.70049897626495 0.6927315534143101 -1.3157381315286567 -0.5640882065115833
P 2.9393669531023563 1.6127881881276709 2.8257988064312904 -0.7093678764194106 -0.5548450906467606 0.44727913323962326
Ni 2.0877287248881204 4.08293041944573 2.3612377527899557 -4.21135307831625 -0.2029250883354376 -0.9887868833475295
P 7.402335357148764 7.156364179233943 2.455059032944684 -0.6252136130679942 1.6375379174158315 1.03715113358353
Ni 5.92224873327634 8.81953891466731 3.5243997293055394 0.4224559035483563 -1.2368895966608697 -0.3873672873753394
P 4.396344573432661 4.446885848213827 7.295572488913477 -0.24530715284607427 -0.36351259224492877 0.19724603567278934
P 4.9739877474397645 3.731926590536015 12.956229850545583 -0.1629842862764419 -0.673066213774899 1.417405464063172
P 2.2092899109095945 6.96787880926399 2.5191999426579614 1.1234813215403427 0.33781467325819237 -0.2896625390329979
Ni 0.35237180182518546 5.544413339797047 12.930906423781016 1.9445885700182899 0.09745175179127087 -0.7060241567581582
Ni 0.9353913005240296 2.4601759615746093 6.599409889020297 1.3432268238672285 1.4624697033916618 -1.4565042298368462
Ni 1.4281619034282398 3.9080519657008503 11.153174195995202 -0.6928117718329423 0.6257013513376901 -0.3487791426894961
Ni 8.522088995502306 7.016126476761731 10.749623096092947 2.7359653813113396 0.1348175940342388 -1.5474446628721608
Ni 5.955342209794316 0.690953744939594 7.4135849547769865 0.8475649284488436 -1.446094090247116 0.3807538958238797
Ni 6.859278324717102 8.960113376939074 0.6463640169942658 0.497153392362247 -0.30464358582286244 1.3573789469978947
Ni 8.236553091948421 4.613490932829212 10.334843332279737 -0.9169677445226982 -0.564979093756969 0.27659902098082045
Ni 5.60191735097432 5.909879636855018 -0.06872812428012544 0.2292734964219793 -0.31226587825481056 1.0209220733191773
Ni 1.1623492021885606 4.478313728966459 5.051440681013106 0.4731452023731077 -0.974150107270961 -1.0495572205573667
Ni 0.9614128212514476 5.454726013722203 9.28563086015417 0.4772679662922297 -0.02327182604374702 0.23835591833922176
Ni 0.5755270482396588 1.6979429093328904 4.20034035831653 -1.5766644789692266 2.216384770293828 0.7990798363642626
Ni 0.2792767220903503 7.805136483875804 1.5185691673448243 -1.1922254209842758 -0.08388455462979746 -0.5172583906422382
Ni 2.4952808952736825 4.093470091010035 -0.0011140378233773908 -0.8447817092767516 0.9171479788543043 -1.4623167227535654
Ni 0.55732017518505 0.5088112913022519 10.720236707854886 -0.24550795600297076 -0.03699328939489758 0.9126642320513378
Ni 7.217081060931252 1.1453928912003903 5.056330069237929 -0.8392669501061093 -0.3726394942468615 -0.3590008204175043
Ni 5.434502222516773 1.314792171990423 10.803667582951057 0.35770755552737754 -0.7056361772911203 -1.2258719053941274
Ni 7.5433193921497095 4.4010865154749785 12.602540134694049 -0.9381749747279327 -0.03397687116607697 0.6169449453012988
Ni 3.7388256156186954 7.763323659034335 4.140248757652441 -0.15895022541638432 1.1612179168591679 -0.15458063559377896
Ni 8.159753654418532 3.2378635581308277 5.406143406748152 -0.40763477937512377 0.45826519993748177 0.6129291392736863
Ni 3.346190994191593 6.725794021468305 12.995207521939484 -0.21289351240205914 0.7716937310418258 0.5775160498817151
Ni 1.5778288802878624 1.9427945884546107 12.48426190163738 -1.060226527345755 -0.5072925376787779 0.7291687131954216
Ni 7.649963029212723 2.6382126761422984 1.3204215216126363 0.3428020991704548 -0.0878697645297906 -0.9571157774964936
Ni 1.6554110568113007 0.8998440282774385 8.101834609542353 -0.06497537643012036 -0.9222791294332826 -0.33368522447085114
Ni 8.98922034555967 3.7933807031458526 3.0761569633564694 0.24853980085075908 -2.0933741961968466 -1.2683740404223962
Ni 2.8547765321017886 8.270465713924763 7.079983416049441 0.2003249317084292 0.4317882366928757 -0.056539329847625205
P 5.1288335439195 8.858803286971641 5.67708122807234 -0.16734847678240855 -0.5913280160641429 -0.2028901213324441
Ni 2.4306230137600147 8.707798372530021 0.8115492494818172 0.7692676380988365 1.3588043665905114 1.3810716626291442
P 8.78415183086591 4.457452824626745 7.319990304865739 1.7706590975842538 -0.6685711541180228 0.9637379107987014
Ni 5.423361844282999 6.226415645199944 3.1082337893444514 0.4778500640479448 -0.21562685217282218 -0.5692795209045357
P 0.8500927737827859 8.923479371717717 6.242164171717835 -0.8410623514436354 -0.3330912996405941 -0.3024764029682145
P 7.493551754745889 1.5934472536940356 9.750830847253031 -0.0069453209695815865 -0.28146843325797977 -0.5831323676272281
P 2.141501073421728 6.09401443427943 11.346050185621996 -0.9269464530019649 -0.5534780350959049 -1.482468258000776
Ni 3.7830776736028526 6.446729367035508 6.254140078319142 0.8679478629805697 -1.6394413050861312 -1.5766346541725555
Ni 0.7027967679443218 7.001400061743556 7.620582101944385 0.5267282778058864 0.18221948035697005 -0.4985266185606898
Ni 3.240639551073067 3.219605716025476 5.53362610427199 -0.10323082036689318 1.3909218159503465 1.1369778133648807
Ni 4.166091886702259 9.01858215943398 9.003968604456734 -2.1692003992985414 0.6846832291885371 0.16543326203756673
Ni 4.118144572539252 4.949850261266588 11.369335760518473 -1.1119656075912592 1.6485710353015413 0.20506398905531137
Ni 5.102156706825389 1.4609277217628687 1.950840417179003 1.6412603605727412 -1.1209135608131664 1.1524098316492346
Ni 3.866958168539503 3.5869378444052806 3.235956769536076 3.707160519719035 -2.7310219212631353 0.40243292345921017
Ni 8.621669778390967 8.660642898976768 8.895627515971661 -0.46107978656814136 0.15891782951655212 0.6766305340873896
Ni 3.281833466012659 0.4358318020932083 11.612353463975074 -0.11362938999239786 -1.2833859404501962 0.33016255602957334
Ni 7.527100312074069 6.344054034637467 8.675682409592362 0.5267419046526411 0.11745853393050093 0.5638724909563515
Ni 5.23094457611289 4.5399680771327855 5.0186311749206975 -0.5831151412360474 0.12456814839208868 0.1862975070810856
Ni 4.090885232008081 7.3570002068363225 10.884566388419254 0.8312479364563748 0.43669672973808665 -1.1009155204246845
Ni 5.26122565322381 7.096111479963041 7.7576032932500825 1.2504933034872334 1.3008571006517662 0.6559246689986058
Ni 6.47204096169901 6.269602814088226 11.119498216040165 -1.082559386515 -0.03871772828517203 -0.5888260755778956
Ni 0.4575154925377696 2.833487851800484 8.834136996897008 -0.12813118315299868 0.7100551322944223 1.6562416644729219
Ni 3.9302508076225617 1.5676623749879233 7.2401836933420265 -2.3239790098357394 -0.3135470589600794 -1.570844786963656
Ni 8.24351582834453 1.1971901890177163 7.172765291633666 0.18081257270711443 0.016978022615235278 0.5711592544257519
Ni 1.2634590565995039 8.969997732136687 3.2916795944222152 1.5506528853968133 -1.713952903141461 -0.015386766868715436
Ni 8.20165749542204 7.829929286415674 4.362525698103222 0.7436944176154224 0.7175157023375256 -0.12005072013770937
Ni 1.9227164231084464 7.867782908208375 9.679576114314656 -0.5675180581287387 0.34233518683636527 0.6150251025707667
Ni 8.463274351591648 5.75175725854182 5.751746336602375 0.7048262797953152 1.5938577029190617 -0.7982519411463286
Ni 7.177070356098189 3.5082179658563346 8.361450020308686 0.8003607599592151 -1.388091802700719 1.9181409173497226
Ni 7.6616768092673535 5.487591949835077 1.3176518998017395 0.6461804451276484 -0.7724334374213278 0.8490078315429571
Ni 5.812173786904395 3.9451865598134304 1.8311232186004722 -1.292721101808193 1.1307009792172333 -0.9448397883426178
Ni 4.654439104131295 1.6290436746681285 4.449538969337311 0.7863248506914393 -0.36660125847258157 0.23606275142967084
P 0.34828062534145887 3.7382795186464515 0.7066959003261426 0.32341983798910107 -0.5559959164217521 0.6965504129397682
Ni 7.388428087588954 8.996993125797939 11.345650624670638 -0.1980150526283299 0.6844436023739051 1.8065722665410953
P 9.041891398532586 0.3480294207342267 13.021756026245118 -0.33968257970486665 0.40580543947586883 0.23200220820705206
Ni 3.2717124687937402 5.494445466836737 4.032600302160499 -1.5485376388260235 1.1746051367993513 0.46386403418149785
P 2.1770428846985967 1.575771915025744 9.958774562505653 1.3888484783610855 1.3091810471364291 1.271809034245874
P 5.3276219434324545 8.074444205737844 12.596998160587395 -0.06328076233651683 0.030264198201180138 -0.006472495098221112
P 6.490207787642321 2.6210015199004135 3.3717656255633917 0.8613709810940003 -0.6522047969448574 0.9447312877892116
Ni 3.0978898025285324 4.094380252630441 9.392159816853011 -0.5731749993042 -1.3998142333439698 -1.216958919175214
