# total energy = -340876.3633808458 ev
CRYSTAL
PRIMVEC
9.13995735284928 0.00000000000000 0.00000000000000
0.00000000000000 9.13995735284928 0.00000000000000
0.00000000000000 0.00000000000000 13.37725146694060
PRIMCOORD
 96 1
Ni 9.130652733078412 6.2422708755982566 12.165981338598865 0.8492310032973569 0.6535805942464614 -2.0808202707912358
Ni 9.091149838018875 4.426234497724765 6.318851835069642 0.6719601251949138 -0.17635967914208336 0.1847551022946302
Ni 1.3032573585479192 0.6848944675337203 1.7893541007917457 -0.22248218453175878 0.2835685103201181 0.31079032215054864
Ni 3.3501507756194084 4.351460507793701 5.075315870924433 0.15444642400875983 -0.44345744550068783 -1.1265928705861308
Ni 0.02617043947801203 3.918756653580714 8.826738187913296 1.0831646241991668 -0.12024895219144452 0.6928446819534068
Ni 6.120947083599118 7.708557650892343 12.783501525558348 1.1005211131997434 0.2257220316252951 -0.7229947231742258
Ni 2.2129481596540064 6.926067634271113 2.9853613734517426 -0.4530276056876262 1.086452036701187 0.8487417223657641
Ni 7.092158936682468 7.186912873073538 9.784443012232423 0.7461613910986763 -0.18948876032487366 0.4548281492314748
Ni 1.9816341225955325 4.647357482494627 10.448289072308343 -1.3095525715432348 -0.2163300488874339 0.11602694369029697
Ni 2.7621956082455537 1.8319581833324707 0.1522543211918668 -0.19939933457036627 0.1294892398427899 0.5221591703779652
Ni 8.282364164505863 6.5927699546688405 7.652148576982362 1.9140050408044778 -0.1915942367036507 0.6193283579318108
Ni 2.147917364108288 0.2947809859256439 9.450840972055072 0.9343098353455717 -1.3201444881264686 -1.9039903368809532
Ni 1.1052310456465089 3.228799563748642 1.3487213336995023 1.4352880007705475 0.8087145312405492 -0.03536989485886167
Ni 2.07795099166943 0.5678262396113337 4.095218151441989 0.7432611867327458 -1.2397869728133228 0.9255166625339738
Ni 8.2991085661137 8.785326869788413 0.6405428251745355 0.22020238735864653 -1.3902525577974636 0.14189018461030403
Ni 6.805456758934318 4.2200370630780455 8.8341762850904 -0.19571802906403715 -0.07443575051207181 -0.5176101175547021
Ni 5.704905371379081 0.44295340222774005 9.798127356166512 1.3996134301870733 -0.5828336054398865 0.9914104370133054
Ni 2.6339345887243915 2.8196950790506294 9.026434370996887 0.2420361954042864 0.2446003565870368 0.38996513000950256
Ni 0.5996378606790601 2.2905098365339738 11.845569170670572 0.6710638386328894 1.5177759321631343 1.0890943594200404
Ni 5.006841139502168 2.1155619155865955 1.1475188856677843 0.09801328072169571 -0.08856781903807973 0.9042559533829847
Ni 7.44368169096052 1.0197084660370517 5.307531107763764 1.9809030881786076 -0.8258892432476228 0.9333916944066764
Ni 4.652713497419404 4.433647003021684 7.044407230241343 -0.28816384300028436 0.10306498421299025 0.5644718151032472
Ni 8.464989649509237 2.0655663496505334 0.7433234719870041 -1.053844792189127 -0.199988631414933 0.20208176649853585
Ni 3.9185464345648953 8.818879652704553 12.92864496004121 0.33501731301871335 1.0446106751853688 0.5599433311052743
P 3.525656233956567 0.511482059397541 2.076925488470522 -0.6409716472331993 -0.7758645745900639 -1.730792086185987
P 8.636775145262122 5.631219036355951 4.4770179279722875 0.23024305942410023 0.7229826389893678 0.30888487759771965
P 4.766962962538376 1.806457702717916 12.327217495740527 -1.0812386108210477 -0.186406264744808 -0.22460977239772284
P 0.7717551368786508 0.1158023438488683 6.078502950309559 -1.2158402321897384 -1.229787952619082 -0.5579137022697552
P 7.282982963302779 8.73477376646257 11.169175777337424 -0.43014170222838827 1.319854210579559 1.2028751873886379
P 4.7707651847375345 5.630433000035932 12.907562734741735 -0.34717014633116344 0.8905656003800857 0.1691086540066249
P 0.040553990138630036 2.418551497082107 3.0748278445971065 -0.4698631891877263 -0.5832290411060923 -0.6160062355371133
P 0.7856771197001882 1.782209396241066 9.808307440506471 -2.084863330512358 1.2168231649282981 -0.2891398337603085
Ni 5.94581636350755 6.443477893608579 1.2521604277681107 2.6171721877298153 -1.8093577997060324 1.5663253018267476
Ni 1.8408330817829124 7.928647820497528 0.42463784197558757 -1.3643273532912696 0.9501974531101055 0.5101747443225795
Ni 0.41994812993138403 1.7013116349796247 7.556635110147181 0.2775395305172188 -0.49214076963900405 0.2352687947734658
Ni 3.144053880501994 6.2442359663983025 9.147725259150068 -0.32222016125404507 -0.08192820223437502 1.0864813472772257
Ni 3.3228223035629503 6.548066423957089 6.950940199825374 -0.26421581682511913 -0.40822947553632916 -1.8227000253408931
Ni 8.209445585888332 4.471916003857935 13.256013549401667 0.2687216751152727 -2.119004752280757 0.2363933952962122
Ni 7.107312985735849 0.6350305169814755 7.612057068678533 0.5069690929010882 -1.8626801652782567 -0.1740783393070744
Ni 1.293861482536535 5.6508333845275756 1.0240490317158517 -0.562590024699502 -0.002433806252473228 0.893205609106094
Ni 2.7830255707260445 1.6187686814204703 11.220035983225506 1.3525193049127482 0.00480487758781108 -0.29315615400855316
Ni 5.691378234708996 2.294732496764771 5.238344373674878 -2.744801748656047 3.058896195479164 0.8148173017041773
Ni 0.5385134828446896 6.64696990092128 9.704393439000025 -0.22151956350817334 -1.905279745116338 0.7129365676072754
Ni 5.547049170413501 2.3621488211421733 7.731127861225525 0.2635283038397913 0.2093865276900652 0.04953667327754695
Ni 4.800579725154981 7.243352108842311 3.3266144718091795 -1.161300706380961 1.2358135899878715 -0.1346702698230971
Ni 2.4586027895742135 6.223259764602459 12.432550018605891 2.0117277868689483 0.8134026807448378 -1.7702186676127254
Ni 4.639469699422813 0.848652338869486 3.824355519537931 -0.18922882179526765 -0.6983399007400232 -0.18581799634150578
Ni 4.530905287688162 7.580031572612104 11.052284864584902 0.18598203272319583 -0.7033898044591047 -1.1178053542014879
Ni 5.59728237523701 8.866142371434968 1.5658876309933638 0.003868738926786885 0.1200463492623352 0.5630947322500625
Ni 4.999547453648972 4.058022181582135 2.7741479302884398 1.0192745104134253 0.19983539366652037 0.8666481703325397
Ni 6.4957127490609725 5.855559286063562 3.800597114767511 2.7132689681550883 0.7062097904064031 -1.5662309423407286
Ni 1.4342786451463556 7.614059633303139 7.839791898493761 0.11202116496501353 1.4959518943095076 -0.2378095589174485
Ni 7.569383522463016 2.0036157196844226 9.295945203229655 1.000478974973477 -0.9511186793727943 -0.8567864470471116
Ni 8.625551277808833 4.706822044099749 2.440586105922812 -1.4222597068316796 0.11129200010847286 -0.18873774109146205
Ni 5.331401020012141 6.95701552938254 5.653292947012657 -0.5280619090156453 0.39507879708698407 0.7039755017592457
Ni 1.107598294563774 6.7426652529049305 5.708595172104563 0.18251824254431148 -0.8079329158795183 -1.123166618513401
P 6.856914718023902 3.6088938242636446 1.4901055037820898 -0.624021649642422 -0.6694787535339566 0.4823142704668855
P 2.9513470226965226 4.968261380120793 2.7813045167834924 -0.23437019421859637 -0.1424242027369031 0.7449925676015556
P 4.367354893381052 4.332659615813723 9.441074927776702 -0.7228168028354648 0.18442805797251463 -0.35870102978889834
P 3.2452149268969355 2.0247655806672467 5.379942418756169 0.8143601595621007 0.38830522580857646 -0.6877639249963897
P 1.6544510743664276 4.281302196253443 12.699961402667634 -0.9375684514921854 -1.3902965236615217 -0.17610488281879993
P 5.49552723162345 4.571157659238878 4.955481891950446 -1.0097907392927061 -1.3178132688901303 1.1750152277535764
P 2.445486950978556 7.689016422378394 10.621270074464233 -0.6704886828557098 -0.752553153557633 0.7947526697438184
P 7.929698915576623 5.136290353460566 10.567573739854037 0.9914860274462474 0.26464827637684746 -0.00859056988248843
Ni 8.89188049093697 8.935642606056142 9.080010058171915 -0.9526096620960238 0.21347072506176784 -0.7529460181206774
Ni 0.3100776183114927 8.44941516242422 11.18921421952357 0.7868043614310191 0.6758237219153781 1.563043288641366
Ni 6.6524630152042015 1.0788165693110028 13.101331655574953 -0.4054092324787147 -0.6704683711407357 -1.5990983824927105
Ni 3.0590157186246407 2.515352783888109 2.726685046495135 -0.629718185806567 0.5969433053683912 1.2001369625218685
Ni 7.585762325782472 3.4525822760664733 4.623806554752862 1.1183203461646933 1.509757689844348 0.2510666810376708
Ni 3.455799541004223 4.1888789489508 0.9177239094975322 0.08644228805464468 0.21513448591743595 -1.4588822431507196
Ni 8.074695196748412 7.666687506915541 5.382510746732043 -0.9371177371080119 0.40740723674534995 -0.43036255998994266
Ni 2.1289610928557483 3.266995444927216 6.827815836255961 0.3979571470760437 0.7305373114081741 -0.20046094306566123
Ni 8.670236528606166 0.24269054179716062 3.5004253820796936 0.833617465129816 0.23357443779017836 -0.6308741537878811
Ni 5.476031702895549 6.085054471637342 8.693514171627365 -1.0204487332271845 0.04860876214663887 -1.083818712843398
Ni 7.763854392009924 3.0275011461662236 11.125686032943095 -0.9088931950446798 1.6679661519987017 1.9811946512770975
Ni 5.330962302066084 0.24505322073582095 6.144010851621615 -1.0634563471369622 -0.8596660825877517 0.005788838767635192
Ni 5.932270946923044 3.657463556875022 12.88599883369732 0.10595798949006913 -0.021142952626202298 -0.07923805699672161
Ni 8.869039737870386 7.188110207467985 2.616925128357479 -0.2030155911667149 -0.546066316012866 0.010956241901187583
Ni 4.656268940773907 8.251982946741427 8.18095176928766 -1.883377031505976 0.03272268704400171 0.06736470259790334
Ni 6.837190690365763 1.8883425793579856 3.1746361773250396 -0.165723796694792 -0.17674534461627625 -2.878089793419637
Ni 3.6803043099416066 3.9367440893690446 11.831657241801965 0.8598434887058805 -0.6158751092758876 -0.08323612241252117
Ni 5.397830229010915 2.6700556996164058 10.389241292751974 -0.4236463243120317 0.37525584882378593 0.2734162523774646
Ni 5.763263998161853 5.251965651904223 11.05548202161679 0.23637051247807678 0.1099416567281655 -0.8138104577062177
Ni 3.787579987709716 6.818371518471366 1.112185639087231 -1.1111742220382155 -0.1572011039357615 -0.20774667809379704
Ni 6.9126867369163785 5.370401217425154 6.373056351300686 -0.4015435788757214 -0.5364858714132825 -0.2887127735252189
Ni 1.2057705749512035 4.192096213888551 3.9959856360182546 0.5046108770815568 1.3521750341994518 -0.5944940724969503
Ni 0.7139476495156142 2.286808153864119 5.0946322564910265 -0.6374541209982441 -1.5235637424895052 1.0884605824907834
Ni 2.8358545233970567 0.35735313298200205 6.8072948043291515 0.2936829730463007 0.06842682531383054 0.03867916173775274
P 6.546128753028672 8.719007340276153 3.726193293103432 -0.12927198162566125 -0.4669629848217958 0.17006870392704904
P 7.773588446438061 2.722071196095771 6.94793041191628 -1.0626531345093764 0.9209403560172009 0.005068672772159013
P 6.53896302657641 7.672509659658005 7.525800550505152 0.023296251523779232 0.13370867724077617 -1.1725346274235677
P 4.051724751064778 1.2411879091380846 8.743491457649009 -0.7386478563304505 -1.0919002042999517 -0.4001148168489948
P 1.3328434000351281 5.329892927072571 7.78465053664874 1.0646264561856633 1.138685797194923 0.09952920314558988
P 8.217004330500602 6.427217909732847 0.6207484198458831 -0.6866660639465206 1.803766935881816 2.106524360425559
P 0.8769651843174091 0.5529418192956342 12.944108853643991 0.25052392116032335 -0.4125849242915475 1.024473023895229
P 3.120152892399105 7.478084489897144 4.96856574069587 0.6397524301141176 0.4067822015668414 -0.27147044150500343
