# total energy = -340885.26170799945 ev
CRYSTAL
PRIMVEC
9.11417306254968 0.00000000000000 0.00000000000000
0.00000000000000 9.11417306254968 0.00000000000000
0.00000000000000 0.00000000000000 13.33951355177424
PRIMCOORD
 96 1
Ni 6.585035599519636 2.571399870954075 11.766945169402815 -0.05021210207801675 -0.037445546440967765 0.44695928800635926
Ni 4.810797760214319 0.32092917285533723 5.975875261043289 -0.39816489221147555 1.2902898666588811 -0.20913301691836242
Ni 2.676869081489146 1.737106698299452 4.996701370750609 0.3415805680585278 -0.18688937502881361 -0.033619230716342104
Ni 3.444391822379171 4.225239484268355 4.805039425681303 0.6203454863424155 0.6731688007910341 -0.8996328527886764
Ni 4.103747557511314 3.030280255677523 2.5900401776760185 -1.080345923803449 -0.00885873594221055 0.8523487229907322
Ni 5.2466648579864135 5.2447599958189555 2.597696994455357 0.2215121073090056 -0.8390489205580324 0.15368794857618048
Ni 5.623736425412697 3.3771201110968208 0.8293058971616408 0.2324601216800771 0.49415625740713603 -1.512058312953067
Ni 5.888457581651128 8.379707414803145 12.734713583540675 -0.027204585439249925 0.6817881670289291 -0.4308207305732838
Ni 2.5052400887838298 5.860786952271204 11.78384649190681 -0.39299286109223286 -0.5624946367722183 -0.0689040220605652
Ni 0.7688843983437013 7.643428059128659 11.449985218910772 0.2386418250107568 -0.3807477251762927 1.6627108171370333
Ni 0.8818645988893103 -0.00610193885700223 5.004785642245994 -0.12014482251341244 -0.16826996015541343 -0.6229785530898885
Ni 8.93670187241028 2.6109462678182016 2.002861401761758 -0.36119577118629403 0.8781173473144039 -1.7887612065016034
Ni 1.7199811671384255 1.3070544429332829 2.683816815605192 0.03367579498589039 0.2581346436280458 1.8211473361417925
Ni 2.437631153098628 6.84125323230238 0.5719544612514724 -3.4048514955666205 0.5213245902918119 -0.39230020590058245
Ni 8.041480452916137 4.122386041398647 3.9036622937091603 -2.2263861044809143 0.8989365980526002 0.8027372306111917
Ni 8.014958209340518 4.66307524341926 12.894400275298521 -0.7667006487026087 -2.3005907128187864 0.7762101308549407
Ni 8.270009227972857 9.031379902054104 6.857323342224212 -0.42859312679434575 -1.0138710800096669 -0.5831033141615054
Ni 6.963465178730375 1.2361461766039665 0.6885511656633377 -0.5405646694683465 -0.8680779608005308 0.07935812751435366
Ni 1.6428934914811817 6.8719953380001675 9.395766363429338 0.7585991026413967 0.49852250479563176 -0.3519097178986778
Ni 0.27899303981749 5.274217003116687 1.7143012144936403 0.05605956199772926 -0.6445071711902836 -1.566686284710592
Ni 6.4903484557027635 2.5090862698109473 6.885603709781183 1.8236428488701368 -0.3081685682569854 2.3417862132204896
Ni 3.7691753790173705 4.972300906661039 0.6761203450403872 0.4465054882983923 -1.3685208225473269 -1.0093271693927262
Ni 6.187940193902414 6.0195285042837625 4.844124645389098 -0.7797351132890635 -0.15426644678746979 0.8534658673143108
Ni 5.496065089327727 3.3528308399184623 9.47133470643914 -0.3519233447454326 0.5069631793638172 0.15774463514405734
P 0.461394073650649 6.091229703668432 12.93976789448971 0.740950279211382 0.7358049875650167 -0.23159674523851728
P 4.348426647212705 6.770928273048266 12.672671584754438 0.06372144941836123 -1.5115932003911903 -0.19958085445355306
P 2.707520045456433 8.797255024744658 1.471814994828088 -1.265770284250962 0.9026826953585937 -0.13130392445402547
P 6.493201191867427 8.026979803593521 5.933402303212794 -0.2520925511990239 0.5578381118368135 0.538640198752124
P 4.834120929049373 1.7179395923752163 12.937060073676543 -0.18031429291445722 -0.3159248151636366 0.19335955613418956
P 3.9953435832541295 6.471144893086328 8.578627887289503 -0.962327146494104 0.24485232469684282 -0.20287495182379253
P 4.630628787361115 1.2404480662835857 3.831788836453845 0.42564998500562184 0.8107161350516101 1.397019958428284
P 0.39705165758658184 6.088285825773269 3.612674090740512 -0.6924924408203106 -0.8380132802046666 0.8330165983210235
Ni 0.9349318714731722 7.898415278549648 2.588132581256645 0.536467102360205 -0.05705020804577272 -0.07447585972138787
Ni 1.9375364778428965 6.470433987588425 4.864467479636788 2.1113058409746026 1.0126665181786043 0.49078039895636766
Ni 5.991001142637136 5.8697279560332944 8.840882748300594 -0.11814193315077073 -0.5892351380908563 3.240837482474083
Ni 8.652458157498662 2.534924950407812 10.296690521000894 0.06537261186853902 1.0908151987658892 0.3125852092674423
Ni 2.707146364361381 5.449391409138468 6.971016271102334 -0.8803233538267871 0.10070599706251045 1.1685396473315617
Ni 0.27522797493051826 0.12961083211001842 9.995271146976474 -0.3902584928802053 0.4896941078707243 -3.2112939644890117
Ni 1.1957430474731363 1.5619960914890207 11.595865761332417 0.8761787355307942 -0.47783720853213835 2.352378129803723
Ni 4.371157394799507 7.3185807032791095 1.5785711265978246 0.7375106574022138 -0.13981658991072696 0.9665661242761159
Ni 5.837017188956699 8.404051371019804 8.300446008873466 0.5842338282215228 0.1917266485164569 0.15284745495275612
Ni 6.920519195318584 1.2333936963428542 5.066707333947972 1.725315379342132 -2.1716074660781377 -1.4033924376135314
Ni 1.0013195079696686 7.260149739855299 6.915764331238377 -0.6120385091386169 0.8023150554721086 0.7803807172928625
Ni 4.993792126713036 4.883984569806145 6.995588081645244 1.1006075022659625 -0.10571064936595341 -0.6748461884934572
Ni 8.109207872850988 7.111789230946737 9.324252916009499 0.5492390573138928 0.8624878683072631 -0.00647095243632434
Ni 4.4551900703208815 0.911125651466466 10.939988906053475 0.5215210225733341 1.2143150537944636 -1.1614308042009223
Ni 8.241372496249628 7.287720113331672 4.886583931960017 1.2335805868922949 1.0884927212802995 0.9370274913870508
Ni 7.321597494558674 6.313934522146177 7.160357747713099 1.1231722749403559 -0.2444440335148306 -1.5987024326058725
Ni 2.645324928562955 5.551652430759924 2.633406324465417 -0.3558900427026645 -0.084809380436912 1.0417027575099544
Ni 3.104633679419755 4.941640828520703 9.747849602604326 0.5202796939670652 -1.3505824929013515 -0.2795527042925056
Ni 1.0440467512282592 3.6936644552977835 3.7671319814195514 3.200963529097281 -0.0630475632797882 0.6399100387379044
Ni 0.7178122182404933 0.6900704983107796 0.6518483907908239 -1.0188217391467227 -1.2185180361322174 -0.7798107037220053
Ni 1.1523778121010426 3.5811499889950316 8.365089192648185 0.6252886892803038 0.05209234981986512 -0.2754613078319514
Ni 5.652518983904725 3.0475242710882 4.862946324154737 -1.4199020052327804 1.833937031707293 -1.780992875410094
Ni 4.392384303833052 7.232242141976075 6.638702584690191 0.018873182755419108 -0.6117942543382947 -1.4006045904557491
Ni 8.278485408909393 7.848369354331874 0.9423444284147703 0.16872710229749008 -0.5386754228654336 -1.7345104155778386
P 0.2153278068110409 5.5844087687017705 8.367396901264456 0.06287375670608526 0.1972511778791119 -1.2642458771866356
P 8.567286210346033 1.3916430830107103 8.24273871078983 0.31368821252363394 2.182903607817247 0.676025810623855
P 1.5780552644031922 3.427822255774197 10.701625026858459 0.5280925051432647 1.2651735312072276 -1.4470214871573917
P 4.180698520572807 6.241403933013953 4.174720534469285 -1.5215161159318569 1.1640589858523889 -0.07342813518316386
P 6.926662147954311 4.546131289014188 10.825188605149775 0.7685577565160054 0.020582966357674228 -1.198890491709277
P 6.635364063101961 8.126397203223366 10.503800077972715 -0.4177397290196096 1.5641365217055447 -0.33726342874041265
P 2.6755110697046898 8.706277349359153 6.288446737211737 -0.31129297281858 -0.27501470721283605 -1.0949251071692045
P 7.274550133274364 4.5300721161000155 1.8698664771982594 -0.8973335152315386 -0.5743780184733657 -0.8281410153962769
Ni 2.6714917193896217 1.9540787019287205 0.6724819671588109 2.1511484268928367 -0.668695595511029 -1.5826795748150548
Ni 1.4800870182883052 1.0804123016979215 7.282120365409727 -0.7602926882937358 0.7098707841977582 -0.0685091006149917
Ni 6.821821815359693 1.2292102909128855 9.65340580720789 -0.16682062930339658 -1.0737446164368476 -0.22008025995848546
Ni 2.425217649404473 1.7333243164836851 9.359802747991184 0.8977592899150474 0.5132346141948257 0.763774219084433
Ni 6.632465756072048 2.4717090461327302 2.743617639238424 -0.36833443911360436 -0.463774302681169 0.5826999080754997
Ni 4.459573987557952 7.643892881954212 10.393895910831494 -0.4007984731795807 -0.7288550386097448 0.874232667548017
Ni 7.49330851482144 6.650028767539476 11.826719561934203 0.6185907084348379 0.7449714845556331 -1.1274086816192068
Ni 7.904467089454875 3.7684553593464174 8.432906842896232 -1.1009337752571298 1.0018308610156812 -0.3884918878980858
Ni 3.4349586532723793 8.700334908530527 12.602012135349389 -1.1586162175702626 1.0276334239010818 0.6352005490773771
Ni 0.05558187292836805 5.233750074774505 10.656336700972805 0.29371125518107477 -1.0973784538057036 -0.1813486477162425
Ni 9.074726909080097 2.7767968748097918 5.98303900106062 -0.4330326506229381 -1.8023006357489346 0.2532822006317509
Ni 3.2892139120291786 3.2050536380851034 11.996571290894762 1.0702957386562986 -0.06728628395148412 -0.5521055802284105
Ni 1.1444667098936072 3.6809501838929766 12.941702833428232 -0.46244529945710033 0.6255085186005938 0.5462069553557884
Ni 3.26260964089611 8.784622780897303 8.401039136826766 0.5550507788996635 -0.3726328093786421 0.6294186522882773
Ni 5.79038907963269 8.34484570288674 3.6806922527956605 -0.5169801972801871 0.06354995683750346 1.1859336744382931
Ni 3.1107948604015823 8.66735071626243 3.6311758620320944 0.8910373978101817 -0.8020196357188767 1.0672800917584264
Ni 4.288400703505137 2.7183294546937806 6.715804843024316 -2.6503342763040805 -0.9026279308612585 0.8735466972245859
Ni 5.008721142169001 4.892770632626384 11.75004384689882 0.15973158366709908 0.07317051064640301 -0.2704522846531342
Ni 8.206911807947424 0.32091003309193206 2.7506610721714955 -1.330521460485418 -1.3645332986544887 -0.36588803445564083
Ni 4.760587780881645 0.6912307325400497 1.7741950026919826 -0.2637679306544231 0.0882798554840157 -1.1578718832050705
Ni 6.3095597190821575 6.118936789740556 0.3470449243129237 -1.0638538396856967 -0.06961544630529301 1.6566964926221532
Ni 8.12089224270114 0.31907717289156895 11.877342413306044 -0.8733420374129476 -0.2964643924461798 0.8246836529752959
Ni 0.34788251681622245 5.013743051519575 6.080456751123285 -0.40348630442438904 0.9777612216609871 0.2838436183583756
Ni 7.361763655190202 6.517763888237286 2.8571373988285953 0.43244361088868744 0.12894493730354567 -1.3632929984894844
P 8.897684097583056 1.73441801724969 4.006336187369784 0.7048213946993088 1.2958012833954136 1.7006872963808064
P 1.988502933538724 3.6089299884515555 1.7262134386700434 0.3534513513541848 0.679894549550642 0.6913868664609576
P 5.004565079258183 1.5072928248426765 8.413110859031544 -0.836230991493263 -0.9040093845898174 0.0850837171442212
P 8.500397294331783 2.2344215507749214 13.004491282987269 0.576890243372258 0.3131858189659187 -0.859302528600746
P 6.280130054303576 8.193058264911363 1.634450121567624 2.3986561869346557 0.1734967557719915 -0.6264783387130307
P 2.1957136578313987 3.4786793413934243 6.29805125277187 -1.469542036857411 -1.0955069478146036 0.8947516134369752
P 7.093405943904805 4.410129598761481 5.920235968824705 1.0044454158203926 -0.7015085282759919 1.2332694834097793
P 2.339881647136942 9.076431259440454 10.664794653563243 1.001376547087082 -1.08302295641498 -0.8277903169250777
