# total energy = -340868.2140481215 ev
CRYSTAL
PRIMVEC
9.26814814348728 0.00000000000000 0.00000000000000
0.00000000000000 9.26814814348728 0.00000000000000
0.00000000000000 0.00000000000000 13.56487164676510
PRIMCOORD
 96 1
Ni 7.076082914942727 6.239623265288646 7.967558292736625 1.2378151937989328 0.0860558512495034 1.70843608708829
Ni 6.136607797250562 5.409855218686612 12.527173052104216 0.21838873118867552 -2.7879998813100757 -1.4595129347561833
Ni 1.6797684608808239 0.2640254470704552 8.565552194623482 -1.108823976638484 0.5890343349339597 1.1117282947694724
Ni 1.8469751238475416 7.408948460114817 10.838942771851483 -0.5153218357411576 -0.44771107857071923 0.37213221559313975
Ni 7.807803220980219 0.34517457289151243 13.268791740495702 0.5102279661580181 2.040648840778673 1.6520957606253484
Ni 5.769413030880717 8.213053004152979 10.004622210818471 2.3692437952108096 1.112592956762613 1.476636224700031
Ni 5.232574078548738 4.161389305769825 1.1833395618275548 1.4355034592154632 -0.42906723821728693 0.73202058082192
Ni 8.799893616409873 6.597568419683504 11.748684743073744 0.3584778580344988 0.07173686352367 -2.4352491555673415
Ni 5.092662112241683 4.481798459664976 7.114300124340391 0.48947376432980216 0.3046276449832625 -0.899967867530592
Ni 0.41873030483370305 2.1255107838519085 1.391349247559695 -1.431790272029934 -0.019896738923927022 -2.284020210054615
Ni 3.4372410768701758 1.0600166541117162 2.878004717425213 0.20459913360375084 0.11373994742833315 -0.7022073541152294
Ni 2.890160820698155 1.1785284660598023 6.838187158294203 1.1141322762252748 1.2611399845678022 -0.22063201869689747
Ni 2.8312153976912082 2.894998794095895 4.896009615401479 0.1687114185682062 0.11799538027057745 1.0035954091152717
Ni 7.005737669561795 7.634396166819846 12.493111680391507 -1.4446918105829505 0.25326343157867354 -0.7356360660873201
Ni 0.6376411865628195 6.71178907898187 5.299931272926928 1.2572182809158927 -1.4350879689445992 -0.3449857370853349
Ni 5.830694027252089 4.272254895393898 10.41809284150808 0.28774912406036895 0.8891175550796495 -0.34429899543095543
Ni 2.6068242598891347 2.3133483448710574 0.7179793494101177 0.8938440140210412 -0.5214639440831536 -0.83073423004475
Ni 2.8952861066923123 2.004199991125819 11.686177570686047 -0.020364679699281057 0.06538392472244868 0.5432697271043353
Ni 6.244044172014168 2.1135456044333596 7.486778662039838 0.6157987475119976 -0.11683247031072783 0.4477463026840289
Ni 7.7665228885788125 7.602893730844906 5.755290226544554 0.06451309208172115 -0.5804095693794262 0.37154960361679235
Ni 6.154578736749064 5.8952466799633125 2.977339803784671 2.3805962441091517 0.9345654029998034 -2.179186049756344
Ni 9.2699092197041 5.400448048191007 9.367113558775934 0.15268007613695642 0.5561627810169196 0.5196572298917179
Ni 0.14407151125131856 7.110467745030113 7.74242199581352 -1.2323315449765422 0.2457802358277509 0.9206418509401758
Ni 1.269615827272424 0.4278529431773725 13.183997451959453 2.065648191036488 2.9730807423752412 -1.5375194333386488
P 8.009922998485798 7.951978535492179 9.56038596194151 0.4805283822110563 -0.9757645029459323 0.4833838493819804
P 6.977386403999177 2.707059283445759 9.420505507338579 -0.41052547065935746 0.7760694915120183 0.20982490077906446
P 2.1900727047114037 7.606499040522533 7.930756329580023 1.1114351890090859 -1.2659155515795746 -0.9957535444733496
P 6.067078148917526 3.713441163510116 3.2893186500120355 0.250423133916401 -1.0915924432515458 0.8273511725051299
P 2.552058771752649 5.63396831204054 4.432349181377042 -0.022843737367392914 -0.41138730443902055 -0.6529313906982368
P 5.079000861689445 7.59625773668249 4.320289854255596 0.18685980734245886 -0.12485276951204305 1.762319724480623
P 6.020746675708135 0.25033175799926594 11.962697408441356 -0.6022400349909564 0.2883278793819744 0.10120813350990955
P 1.5154812646196383 3.7488732943521854 9.863330217233786 -1.076544804889804 0.5258412472152428 0.22774754669575614
Ni 4.144595421101808 3.2917682216002015 8.724993076153483 0.44206493602853547 -0.5762811490333495 2.902765441789446
Ni 3.2220995510430916 5.972607913585795 6.512047508322764 -1.0258681044705427 -0.03583655008263506 0.31654419391519034
Ni 3.155146447929541 4.825581883500932 0.5101003445686063 -1.8595994694704037 -0.6511856116517236 -1.2060011346121295
Ni 1.3215452620378205 3.8779415271815467 12.43612554392916 0.08646131421803818 -0.9614575994049569 -0.35978192155790295
Ni 2.5167749312829244 5.704804769279862 9.162542356052533 -0.8853547456031073 -1.5232719222806992 -0.7555009233320472
Ni 0.918729294601166 8.8570224823556 6.4544784053341395 -0.004166986893496049 1.529586037424185 -1.0473332163228544
Ni 6.284332812550519 9.363795561694726 1.4445910521203407 -0.17130540454762752 -0.6695818547707243 0.6584978290424208
Ni 0.14238656189555396 8.671752198407665 4.194827857918687 -0.36179329556097695 1.5997097908244644 -1.0499254025300628
Ni 5.49238807904461 6.7856098799646265 6.5615727854265256 -0.9917410808798467 2.073901689294532 -1.0235939637243856
Ni 0.4956531550429414 4.240678314232786 4.986948686241757 -0.010724328396039595 0.394024901901173 -0.5877325854034007
Ni 4.295137953476312 7.106528782014712 13.534717157961822 2.32406668445354 1.0038034113610195 0.1797890165386065
Ni 7.081078446861083 4.305787055840303 5.605588315218281 -0.4888345880839065 -0.7921918509951775 -0.7769668065153071
Ni 8.326977082706655 4.377893249392825 11.17597620330128 -0.4190113966431816 -1.658455127184473 1.0130305863862423
Ni 5.235196964509583 2.559473290369875 5.469451265702221 -0.3949263306695198 0.737793221639639 -0.9490803087865267
Ni 3.849553189025843 7.434815861940664 9.419351622878771 -1.44360269128383 2.456918155900343 -2.875946521824389
Ni 4.982185784845017 5.367750021089041 4.780002983931189 -1.5806026376813682 -1.2265090247574941 0.28674382272430615
Ni 3.2771801562208096 4.328540359846914 11.006753718085504 0.8748538460717836 0.07338494065005426 0.7295911454448208
Ni 3.5515266132064434 8.438241202706404 5.971758024389296 0.7892481949858214 -1.0230180366162576 -0.44889095781143334
Ni 6.7696593967893195 8.943179188687767 8.006679146590763 -0.5622203000649091 -0.7961320665898483 -1.5534867553011826
Ni 4.414548775806736 8.069646945947555 2.386223794730118 0.2949998920855113 0.8598512020153645 -0.6336267768323539
Ni 1.0412393857135913 2.4767087263050898 6.490899447596782 -2.0127143191519337 -1.0487876893811936 -0.3281416689448026
Ni 2.378586840554375 7.398781301460946 1.0391994662790272 -0.004826474854365882 0.23935067815232328 -0.9555474045681092
Ni 7.230045394029426 2.3786609857405474 1.3036790526147872 -0.2760598606478988 -0.06283878970309177 -0.10158402879208955
Ni 7.929938878902474 1.8518687061349108 4.691316073120894 0.31459992570462597 0.8545146202937993 0.19045626644446553
P 8.830135584219883 2.547128116872194 12.761085358625634 -0.593371785967049 -0.20346476288899154 0.6453895737952369
P 9.64860575807892 8.015076088924772 13.671763412823319 -1.2295146443530371 -2.60412512473787 -0.4836422452496897
P 8.2773461487126 6.41841511359478 3.6433480117621704 0.3317517548935642 0.7971473952282401 0.1192693618869946
P 2.3390303837314743 0.7491110594541953 4.654433477074331 -0.9543652113345499 -0.6741604752803422 0.9205762878095629
P 4.743188045367008 9.657966587833167 7.5943883511761205 0.5550224967648892 -0.4324968327241262 -0.26572376882921334
P 4.601311231626387 3.549904687258925 12.704614531207186 -0.17282081275088945 0.27321647766183266 -0.21003624545892213
P 2.902997206054227 3.40079871786651 7.1554025082949835 -0.06631235007398903 0.8246188611756315 -1.8845558823054254
P 8.37448561074653 1.311387371532221 6.7961635204014215 0.020396047157848745 -0.41057869249479606 -0.1454323934356076
Ni 8.519578471937374 0.7815996264052253 8.965932492694378 0.8072400035775518 -0.34597458336116543 0.21147991988398418
Ni 3.9316967871564352 8.84027493842894 11.700420860949738 0.02994409585760004 0.2849090835084125 0.27866258837806845
Ni 8.279931962080356 7.881679630852604 1.6848789178377466 -0.8117571747216149 -0.8810520044626956 0.5054680828755294
Ni 5.8517327238284675 1.3864315680868198 3.5041181811679003 -0.4822283956212985 1.01182602455518 -1.0761971917423983
Ni 3.742691439455073 1.0957917064398317 9.474804807617007 0.7459441328815476 -1.044763398713149 -0.4694937216634495
Ni 6.443031315403971 0.29833891241615007 5.648901152535633 -1.7134638793201846 0.5427794177314781 2.2825495390463595
Ni 0.7468913379431633 2.15394546274897 3.5801633377358244 1.710915144756402 -1.1876560564460383 1.510903373413017
Ni 8.963114975619831 3.04537449980151 8.550752815463499 0.28610567491967503 0.591448086581775 0.014109185707872476
Ni 5.07261510753036 1.7210765977270441 0.3251340558839777 -0.4702599104055127 0.16004371559087918 -0.8528359470397957
Ni 7.077630695704073 8.655060263370634 3.776976173541126 -0.5438163436364247 -1.353404792841495 -1.760444618945097
Ni -0.3005780970385523 8.99006675079345 11.485498990236687 1.4541313587292959 -1.3641838857348698 -2.190009879844725
Ni 3.003760514062329 3.4343030738681004 2.707440204339719 0.03584966270875762 1.5310196845469182 -0.426256251131053
Ni 2.2620954849294828 7.854913218644418 3.778440540968028 2.19974099108956 0.4696934963790814 0.4921505398310169
Ni 0.5500358686558128 1.9114999721139512 10.821973719181134 0.8655557085993093 0.6728880363258217 -0.02815460805734506
Ni 4.637577495812894 6.445682005809629 11.141819369661373 -0.08869380309298273 -1.3244310313169643 1.2321348555847038
Ni 3.884521912454335 5.869981707775115 2.3836055428434095 -1.2303026874719714 -0.3965610380594654 1.7843203971214305
Ni 1.1641721043871986 4.734540863029667 7.305185052511221 -0.08662843592352178 0.6151055780997149 0.16112203625672253
Ni 7.490758404907635 1.6007482287177375 11.109969378126252 0.4819730850773828 0.29744809651568777 0.9491435579242945
Ni 5.1862240690428045 2.15303718421836 11.07807767992391 -0.009989250002227957 -0.526461654408061 0.15012362826368986
Ni 1.2783927636855652 9.221788993878306 1.9758867249711145 -0.4663793444041838 0.4194243158108841 0.6988224968033965
Ni 8.460985238564744 3.7331637830319377 2.8897789729893675 -0.5716680757413704 1.4443218288380415 0.44743057121582297
Ni 7.729505904382312 4.860402316557079 0.8490402341178589 -0.6798351570676162 -0.008070692823276424 0.19556119177119868
Ni 0.37228761384505366 5.659038653115035 -0.06180001267457878 1.6856350300333744 0.9522826177739082 1.8019558508150064
Ni 0.9889948339069626 6.516731630459197 2.496655635015082 -1.9716028938236045 -2.0485462412488786 0.7509143324026293
P 5.1657321932144455 5.775770980594987 8.941977109856948 -0.42998306516333695 -0.2949214734390921 0.013357652253828609
P 1.1635233340081914 4.1323707335316575 1.479561629178487 0.1956388390866695 0.6991456844707701 0.2830308926490932
P 8.324020543408038 0.7578453623852875 2.510911900686353 -0.35439031822868644 0.08836058812328008 0.2954459784839944
P 3.6385359891795908 0.12206521999539177 0.6862127712094399 -0.7790568562751163 -0.16178666642391493 0.2778462631243602
P 2.07182040091492 0.2508303843762744 10.678090351339728 -0.7113411980956975 0.4922847514160361 0.7833778522479735
P 2.6834903823912515 6.288067876303947 12.541619314815051 -1.2683951234683186 -0.7068098858842472 -1.6901622284797666
P 6.272043247942467 6.543386824888124 0.5591288489250132 0.8637988738092026 0.6812292092016655 4.132598131603534
P 8.493423757515107 5.542973632310634 6.496352826039752 0.795201841466095 -0.6742185822117872 0.07221174627755951
