# total energy = -340855.58121948945 ev
CRYSTAL
PRIMVEC
9.44147090548701 0.00000000000000 0.00000000000000
0.00000000000000 9.44147090548701 0.00000000000000
0.00000000000000 0.00000000000000 13.81854702868392
PRIMCOORD
 96 1
Ni 7.266627955763673 2.5808732343893706 9.872950674535245 -0.6229245599235014 -1.1859861249427834 0.8944888466938917
Ni 7.227351437481368 5.368127577704926 3.239454528599901 0.630867726029978 -1.03056499572558 0.9451670897750496
Ni 8.39216456573249 3.2872935166971646 8.09243091485527 2.145921117055627 0.6524367104500054 3.115843045177853
Ni 1.3274991105882412 2.0224668888872768 2.5714100482657276 0.541791342786596 0.6470903585364275 -0.4761906740676508
Ni 6.764256739109053 3.871465635851281 1.3651771878741061 -0.5403342986250952 0.6175357848077623 0.05540444491223361
Ni 9.430735788706516 5.047164779866706 12.292012206778107 -0.6108378039622964 -0.35546658201200065 0.06170364765738405
Ni 6.6659710286958775 5.481680146306199 13.103519835020847 -2.098812079382966 -0.671562632646179 -0.04445128833483957
Ni 7.674197364708528 1.850188372277363 5.274386991306439 -1.4188002875281693 -2.464892946575703 -1.0360949244048738
Ni 8.184650480317393 0.23897212177683202 11.269356471032081 -0.8657392853650251 -0.5242062827149812 0.7255959082424988
Ni 7.9840003441309575 7.015494275525438 11.431945206220568 1.7364850228057063 -1.503249199301869 -1.727976728224379
Ni 7.5934444654612765 5.580126361721969 9.128932567442883 -2.9736345579961823 -0.3159718663514881 0.4087074436140123
Ni 9.526538392314825 2.352927806290881 12.424614830893372 -1.3737105942783825 -0.27004579324333494 0.11683529852420524
Ni 4.415247143175661 5.35640127104468 0.7540572229312018 0.08524132576800802 -2.7446649659678664 0.5647965454325177
Ni 0.7231930550790723 7.843577349800972 9.052322585556757 1.2749568358462366 -0.11923002400862692 1.3233781645724176
Ni 2.8806493718849233 9.345998588806589 0.10289125984060464 0.0030470143564399134 0.3926948702358398 4.266327377669601
Ni 3.3850977121025516 8.377511403142552 12.26758051294178 0.9326424749454776 -2.2045738937018293 -2.1293948372658296
Ni 7.404114652693227 7.697291202140864 3.545673525729071 0.4364889846026548 0.12451621210823072 0.4036413419450145
Ni 5.091379187346523 2.148274486510288 1.3476160522959597 -0.7441446177789635 -0.8672017288431646 0.8067738625744105
Ni 0.5531172335930201 1.7673677909378465 5.1843314109381415 2.722521597101608 -2.579456675456912 -1.9367582753405934
Ni 4.95993503169117 6.683636020452175 11.07998700408692 -0.3675669648199605 0.17769382457247462 0.5358536371459223
Ni 4.263532149839513 2.214213718165006 8.917081070369399 -0.792686531243409 -2.34198341683296 1.0215422234016793
Ni 0.40245874083278294 9.232238307849016 13.060585690973504 -0.7068350826952278 -0.9268472084199394 -0.2677554545472614
Ni 2.132242869192174 6.113040736223528 6.438378711603099 0.7874389096912245 -0.40768800121056237 0.2813195663849413
Ni 4.314195081835391 4.873989323536404 3.1826046008274855 1.2829154285716808 0.12125759596161698 1.2206787912289623
P 8.923247294910306 8.178825092870232 7.519665980650356 -0.9388177505182541 0.49466533583307065 -2.597349239466617
P 4.362582619382703 9.5132259185701 2.028161984038211 -0.2602727730169711 0.9657562267803109 -1.408180345920478
P 3.351674905679628 4.3923043692751795 5.480269590577503 0.7226118859135103 -0.37233276163972007 1.379535942710908
P 5.809676839846419 0.3900243238669663 5.902633784173407 1.4566644095637944 1.6357193761498539 -0.17033378466297763
P 6.156452618690365 7.395768392558237 9.382931734050995 1.225921013464508 -0.38988851113529627 0.19226143797400436
P 9.702810651048154 5.3762944498958385 3.327478304464749 -1.8095886847699156 1.3323939949177828 -2.234725991805177
P 1.0215954585818188 7.607493373923794 0.8364255578222275 0.5929292991129917 -0.3229315854987729 -0.523706460260427
P 7.593095131043862 0.9611228384861047 13.339029769476978 0.4600150927490529 -0.3358958589689247 0.0428111816282553
Ni 1.5785006102361037 2.4082076174790785 8.510898613476389 1.2688337536676344 -0.8287534521692953 -0.4395030888386302
Ni 2.530814556520912 0.26965784583195773 3.700703419442363 -0.18043153521861183 -1.1601195415886665 -0.447028707791714
Ni 4.703910669609129 3.161221557893407 13.088126461124821 0.6736693945765366 0.5363539738211086 -1.0243714653203584
Ni 9.591401296305074 6.640431850341638 5.11563999056244 -1.1052619703188384 0.009259828035371148 -1.0182419553838529
Ni 2.3720562260120235 5.469151314632973 2.0909392671417883 -0.794639798315038 0.4571115459490127 1.5098667046183867
Ni 3.165847878556467 2.5789943817119236 4.260161544784998 -0.7980544804235417 -0.30332255301859373 -0.211349564953707
Ni 4.911972360327201 7.885280326063699 3.2947012946405057 1.5088171803079498 -0.9816932097255416 -0.19673335770242892
Ni 9.364390573809938 0.9547687286774528 7.333557597699116 -0.046524883034416646 -0.2560515358467719 0.5537094343804205
Ni 7.171070830394631 3.5628428402714687 6.413781792028805 -0.8362914124175533 5.07649766752007 -1.7348102062064445
Ni 5.556664306930736 8.907829373190353 7.867575680130291 1.286808850088816 3.1877064069770586 -0.9553460871905805
Ni 6.561000756998118 1.8646432639817407 7.5868930289141385 -1.487401433636335 -2.0243673300098295 -0.043403306686299443
Ni 5.538565007520356 9.170670477147352 10.751451202567393 -1.0168090795920681 1.3874503124619784 -2.340853674103891
Ni 4.521076588710845 8.19188264690495 5.643605146101598 -0.22354584990958276 0.518773541735184 1.085604086878595
Ni 8.446160336899919 2.086914368164926 1.7531867018849563 -0.3697017517747762 -0.13233956480739142 -0.4522441905543824
Ni 3.1442269105597167 1.4568283767976231 11.506220312392461 0.5437955177008184 -0.5210427973853349 -0.46759033399314953
Ni 6.732476748595052 8.877682757114535 0.8112574292681064 -1.130394760830724 -0.6323322263906465 -0.7729751688574107
Ni 3.623853624199416 4.338487986051827 8.316844288749575 -0.1389691543087671 1.7920823004550364 -0.213825023077393
Ni 9.760403622567882 1.1495273871215417 9.914157973584073 -0.07706676037701567 0.02650087450400597 0.012457509037062416
Ni 1.1836488623792951 3.9592901966834955 1.0144737572019284 -1.7712108563226656 -1.9704225003622582 0.24632633813920804
Ni 2.0571737353309683 3.737283453681057 10.828323657340118 1.0916117265252554 1.0276246821503334 -2.1430353108673996
Ni 1.3790873067167317 8.344060272307406 5.955337962143476 -0.22552997021914709 1.031579038812391 0.2798262696688665
Ni 6.053191253196717 5.9722495245346465 7.52272029643505 -0.31070419019464557 -0.519583439230989 -1.3282581183725384
Ni 7.9846329226706 6.946684836765475 0.03280250179524424 2.245922888962261 1.6370350096374842 1.4146294439799314
Ni 5.241611869776344 4.227645119553204 10.766458420310116 -0.9366670227238385 -0.415802917008213 -0.8294723326131909
P 6.401421018534768 6.657199902377545 1.7177141521641746 -0.35350277341741054 -0.07708038722377049 -0.7767965994860299
P 1.0696997520069027 8.768350525934462 11.021728408879957 -1.8818364264917333 1.2170509646683878 1.0122757104980888
P 9.442320473305648 0.48396129285686446 3.4192475117725274 -0.2569059134272672 -0.5678091070065964 1.064677878248889
P 3.639328194743815 5.278556344785637 12.274310393285921 0.21994219171872445 -0.6171730021517049 0.3516976018878717
P 7.199640720856712 6.820159687366152 5.695576665942171 0.015760348158050275 -0.2196097480799702 -0.6287992735367236
P 3.2778709288977077 3.2937798070961897 2.1738372685413805 -0.2729128303784848 -0.2798249841172858 -0.8267009405156409
P 6.976633181955734 3.1350025936458192 3.6820763418175644 -2.4098818804471462 0.19075605707307147 -1.0498246152861406
P 0.2857716039455183 3.134993152175078 6.587300917894077 1.1180102711234423 1.9321557435715755 0.5310994102903887
Ni 8.3031692625284 9.014650173153337 5.460882474558059 0.1222526128850346 -1.0371423918327816 -0.17709912841126918
Ni 4.676039447981877 5.9456529014574215 5.468330850825586 1.3669359945587103 0.10601635353183032 -0.26886694244388537
Ni 7.1730724221917095 3.682730635739911 11.900325239913663 1.5788182920874358 -1.0432832146231967 0.9010145636275515
Ni 2.9491566835811764 8.605910021836607 10.208174813927652 0.7798508129313214 -0.186380296602879 -3.4786982063444416
Ni 1.5240516484731086 4.454230975864998 4.558545065346262 0.3551685911556077 -1.17041192465361 1.5793499962211897
Ni 3.1331803897928183 7.663745656598307 1.7506441138144213 -0.6814544378385942 -0.0003882365773541701 0.24380871392367692
Ni 6.481220329237185 8.147026219414752 12.34572473382331 -0.4023290508914942 0.38164349751768467 2.49373352495648
Ni 8.996541432272215 3.374032308394171 3.9315426583229502 0.07263289297537814 1.1349846941942519 -0.966184058346349
Ni 3.0230928409534696 0.5463514756600633 5.992937675222192 0.4125689834519475 1.1421189912461878 1.3827122835563606
Ni 1.8433621889316643 5.781777293806943 13.62896978275462 0.9177920401962065 1.0527734135018192 -0.2537804804244081
Ni 4.970868254809178 0.5489318296135618 13.104791601129653 1.1802083419187417 0.502931689606921 -0.22586781317454005
Ni 4.619012964706606 7.279591095090983 13.799532784130907 1.8559171355228101 1.9364667122421035 -0.8143113086020363
Ni 1.7394304790154083 6.693681745320534 11.430951019351548 -0.13067888927551685 -0.4017430964810372 -0.3011764532098684
Ni 4.978610260816748 0.9692991521477579 3.9200174549894857 -1.4394112789103017 0.9372298372058441 2.008040824935664
Ni 1.2222928021219581 4.563204431156915 8.197355867493473 0.09211131341496394 1.463653696397434 -0.6901709917759855
Ni 0.04919100670736609 5.62336829771547 9.86253201157262 2.7506234975441464 -0.19181175203109546 1.7371990181535952
Ni 7.573504079256413 0.0985217471816981 8.663413299384295 1.48819873272665 -0.7994379910346296 1.8612740289593495
Ni 6.71998568280479 0.4344436112618619 2.771765610565045 2.280393411935305 0.5949812965460141 0.4193685228722842
Ni 4.249473799906254 7.373854738968518 8.229663636221893 -3.923308277392334 -3.2801784461655505 0.9502650731232473
Ni 8.729961505901803 5.592645751924454 6.845542137306092 -0.5869211452456988 -0.40369302111855637 1.386512374028741
Ni 2.3085151279255043 3.159352146686701 12.890451332368857 0.7267500764516 1.2642628464675 1.9527538794379014
Ni 1.095484408600407 7.480684980402242 3.123157324454237 -0.3359809624835633 0.780115636556934 -0.3732079651558218
Ni 9.034014629643002 9.080419458334717 1.5310808234397375 -0.6020158347952922 -0.23580384134132937 0.18215571699857014
Ni 5.134932691874474 3.2283976222151876 5.4164282537214214 0.45398534161520526 -0.6076293243273277 -0.7446727223682917
P 3.4105141513371593 0.11710444989401415 8.31573869252581 0.09797060040921837 0.933244884416167 -1.1688566643513483
P 5.385735920636777 1.9253235964337554 11.080692281951269 -0.5170442177489031 0.5716251383185769 1.0527448742567287
P 2.4216805962263988 6.375891281651269 9.399734719528643 0.36775028447536023 -1.1308408472292073 -1.794970934856741
P 1.6042758253588671 1.3811738717504791 -0.09191649425133719 -0.9398533908716201 2.5899321210669393 0.6327032365768199
P 9.468851006087686 3.469051269930981 10.521096311135816 -1.7586420185187197 -0.27040034836927623 -1.1365499817988425
P 8.505226177855233 3.872626936752417 0.07462444058930748 -0.34429359611431676 -0.07379477449396324 0.027187873268701562
P 3.002434902972295 7.386553517115081 4.281842938194489 -0.7657871357494037 -0.10839899483139395 0.19233265753157197
P 5.739658892831615 3.6593252297731236 8.509447459423507 1.2651089965178792 1.8016282922722586 -0.579497341977802
