# total energy = -340861.5268974762 ev
CRYSTAL
PRIMVEC
9.30759695696139 0.00000000000000 0.00000000000000
0.00000000000000 9.30759695696139 0.00000000000000
0.00000000000000 0.00000000000000 13.62260897283490
PRIMCOORD
 96 1
Ni 2.8712633202907756 3.5483444527718366 12.897994881720034 2.090742929221586 0.9641958242717266 -1.832701359527979
Ni 2.3330980707196036 6.989493312681148 5.844590024543808 -1.2948414905853054 0.5333720083746492 0.3703159883200074
Ni 8.957389205998052 4.162245617869827 8.991929697889415 -1.575679232237822 -2.2170774254854786 3.6766435820771
Ni 6.4872460793343825 5.835118613994455 5.155966541215406 1.416344112678193 -0.03370947643730324 -0.24208453214371858
Ni 5.254883026684407 4.291090680993552 0.23046633623584842 -0.1147251941597379 0.2994730973655165 0.1933014492027445
Ni 0.6331353139779425 5.385738530726627 11.752061242611964 0.5500564110088655 -1.4003042856065109 -0.014693597456432759
Ni 7.501504215118197 3.8164683950823997 3.324992843564217 -2.6062393428673953 0.6054742256575378 0.9057104264413239
Ni 2.2743764422252326 7.110436226083567 0.31902532793586286 -3.7235045082946967 1.0926113714343635 -2.274296555008948
Ni 8.997383949640517 0.5189013163813166 11.481570378423747 -0.5377089451871061 0.5137377790834894 -0.07482552975132276
Ni 1.517929431447849 1.0206803776067852 2.5992888251654844 -0.5248876250527218 -0.5010866659783823 -0.26827276050331217
Ni 8.08529530442299 5.95668513638548 10.533845737166214 -1.0003915574659932 0.24645617884885296 -0.19023797978607235
Ni 9.409701182272016 5.086089757902442 7.288136865046085 1.4182459576865962 2.951537983207459 -3.8241809376708527
Ni 8.844702130997046 4.997946815781394 4.877493481973017 0.551688804405966 0.4700920173690807 -0.04099032636943263
Ni 7.917162875017011 8.433222582081585 2.5443488732691897 -3.812039160101996 1.3586020207717182 -0.17275370695837988
Ni 4.044020522746115 0.8317715305236578 3.1572578485435154 -1.5411084362414877 -1.3158134648512823 0.7201150876335857
Ni 2.2758470425267245 1.7222963353709595 4.995669246833452 1.9294979942337545 1.2606221643911193 -1.068662831038566
Ni 3.644557081357399 0.06549383595870825 5.866972002676699 0.5040807156096996 -0.03134637552176537 0.5000294283584614
Ni 1.8725767940284506 2.9638832164942133 1.1192143208454615 -0.03180043234004846 -0.7262641379541169 0.15760065336702536
Ni 1.8562419615656798 3.696614470510833 5.873346775755761 -1.680453228722119 0.3950710837775003 0.7770609088910101
Ni 1.2826426908060355 5.762686895347569 9.65160469351086 1.093982283639961 0.7035450990900464 -1.125436131273868
Ni 9.273717192368268 2.528855447561196 4.7934421594249805 -1.383679018345004 -0.2450212461745393 0.3467942510489834
Ni 4.624926257028993 4.493884601049876 9.183423264616367 0.14158936554043358 2.344904447134497 -0.9465904524851374
Ni 8.082642639322199 0.1837338232373721 4.587209082334471 -0.5124969646978529 0.6710432698075991 -0.0523682291890711
Ni 4.242207182364222 5.981685341510837 4.159581783652822 -0.25321638039082195 0.35662717797900517 -0.3835738817711781
P 5.067604870568505 2.5449017445217756 12.120661623622732 -1.467636335194266 -0.626036880300238 0.09142971396690705
P 7.619738617838754 7.014670362146559 0.835596952826905 0.4756957367091033 0.18822146357667582 -0.3242197081825771
P 1.0537595767935017 7.060054204362212 7.864849526950343 0.2011685106556471 -0.04095073138074883 -0.9737523576119101
P 2.4598023865690046 2.969532927779057 3.149860170571202 -0.9091672746416729 -0.03749722561450961 0.5144980542882818
P 8.24443659527681 1.9279756104491979 2.84189412920643 -0.23155175093319477 -2.5277024257027563 -0.35630604719416054
P 0.08743649552052145 7.351195833670172 3.431957608024989 1.3205406951236225 -0.7095069731004362 3.123504675488169
P 6.8909817076749 9.293058378611937 11.86897024354181 -0.5346647590441437 -0.9393548539686467 -1.0184304172455751
P 3.3078175351063535 5.027898662428231 6.357644308587169 1.5615407359539106 1.1567457400204273 0.22902281386375398
Ni 7.57568576197192 7.1391967003342565 8.018690141401002 -1.3759963049887658 -1.5615785311703816 -0.7613306426399469
Ni 2.032769843325743 5.255525250866705 4.0967676048257555 -1.3686815164949075 -0.277273935560658 -0.9383703785681905
Ni 3.2996361574797004 6.5268685191030515 11.69272065892741 -1.177275998763295 -0.2396108737922454 0.08055574736688062
Ni 5.790628301075911 8.427368103666153 4.037850516797642 0.08661892284182501 0.19109929934510314 -0.20389902221293274
Ni 4.25800217420999 1.6838094224173654 0.6456642700908405 -0.27207130831379595 -1.3049834641153137 -2.2952520742146927
Ni 5.45871939758736 4.46997338475537 11.289205620632115 -1.2254733844041281 2.3298079578126907 1.2869636304991257
Ni 0.8864499389486113 2.620823811985492 11.917998009922234 0.03794639733678626 0.0672006662162133 -0.28545184338576
Ni 4.525716582259378 2.925284612378481 2.3879756617170376 0.05228981054265188 1.5722416673111825 -2.06712503269233
Ni 0.5089412569976066 1.884285750859314 8.69909873975411 -2.4127872270193995 0.3398592144920469 -1.756994712723284
Ni 0.3310637736950353 3.570142844582554 2.8379439851054613 2.0506972261536105 0.901731644299234 -1.3951700497037391
Ni 7.996677674862853 3.1447484383839917 6.998751579262754 -0.07835385461955538 -0.6282002065001439 -0.2468171617326975
Ni 9.140758171439105 7.313974753887482 12.570385157214133 -1.2640900683350615 0.39688962504347775 1.6536649048846812
Ni 5.479810412037866 5.608190095319347 7.164838198882227 0.8988607505093422 -3.5742103179108384 3.1729315626607293
Ni 4.0246607213087575 3.6958605551663974 4.34197531294453 0.27209804778667335 0.4069179558137573 2.5405754250106827
Ni 3.7232155822935105 8.886139552150468 10.685397613552716 0.34054492770516187 -0.8660943547115987 -0.38876313928160144
Ni 2.4026909723287986 3.9038481142621677 8.275912095527152 0.007619721328786877 0.5852640692582501 -1.4333524743107313
Ni 1.8964414723387322 1.0296063629810286 10.136501635579078 0.1571738502422519 -1.032836565368576 1.3959503795131896
Ni 8.825360944753378 7.225822504169589 5.959673805732371 1.0784731322607684 -0.3209006711116732 -1.1355575359785863
Ni 4.759765412520822 7.172434128667335 2.1458608680298172 0.2874207941866727 0.34608745478994585 -1.0538432495272303
Ni 0.4772591280973072 1.0415945477172388 0.22850150254189344 1.2082261672879064 -1.5113193779045135 -0.1499091982600386
Ni 3.683164993069976 2.5682638126024337 9.735056606822086 -0.2711372265353008 -1.790266587402536 0.8977610896872603
Ni 6.68775963816371 7.203586655307162 12.270442264329652 0.07453422376314907 -0.9465940520295634 1.6245088521460154
Ni 5.665487661496449 1.2390179843940656 10.154946500246584 0.42487222629933274 -1.0706261254125238 0.6765749982591057
Ni 0.3813331734945674 8.127858944794642 1.403264492117305 0.4849614782817454 0.9309218927099451 -2.813220860660394
P 1.0943500066340393 8.276482651213744 11.338056542672488 2.611152721008613 0.3525303822018122 -1.915053022453018
P 1.4164859334354623 3.408069660722595 10.04927549174725 0.5755735814433636 0.13671455394663554 0.7977096954896132
P 6.985546891618918 5.114263853551905 8.822382513763015 -0.6685927513845775 -0.11847977610616371 -0.17641675763226392
P 2.627999969152897 0.09166959056557453 0.8066829032282741 -1.366631575944414 0.39203024006864745 -0.3359251695449634
P 6.520129818987355 3.6144470055642 5.406554971070209 -0.18093572854854 -0.7810723440432484 0.03264092596347282
P 5.442217028381381 0.07336527061042634 1.688045309741472 1.7255832882915378 0.1856480464225448 0.21818767092146293
P 7.440120613926189 4.311455702890156 12.74296941019102 -1.0669242510809045 0.4687411597681412 -2.1682933141032397
P 4.16442359553153 6.761894647033209 13.599777445467732 3.3968962452752853 -2.1880103329161935 0.20862522404400843
Ni 5.744388159950529 8.831569111848916 7.624342155238234 -0.7451509475562909 -0.6693674247670729 2.2417389327879005
Ni 1.6992041875988029 -0.05927729202601046 7.973803324856866 0.6329276938828002 -0.5768349646542904 -1.1766486495919415
Ni 7.452555563310954 0.2868843345111106 0.37929853282427584 0.2437187253130319 -2.404169660553718 0.9337745316673918
Ni 6.60420534128719 2.2481104039289708 1.3471098988327532 0.24988680179695674 0.5924287053274894 0.5842088885208584
Ni 0.6672374180579117 5.840982400006731 1.9662326257607232 -0.5371137348052686 -1.0461957602843015 -0.25776620454503346
Ni 6.004479646183957 1.8737123208435262 3.7878205427535323 1.4106632602433318 -0.23031839274672591 1.3729608605965515
Ni 7.206285858392177 1.974383288317788 12.60707011941856 -0.7807581552369391 -0.2631763198170113 0.6013339782369193
Ni 7.131815776036264 3.1961449881614397 10.882884341888088 1.9021818229173044 0.7060264707510034 -3.445174620665699
Ni 6.481661521227451 1.2252706638541728 6.279777884142557 -1.0510253204624609 1.6791255110496308 -1.044307285012337
Ni 6.971417959608384 6.053865755042909 2.878239364126016 0.17357311753588173 1.6265173979356118 -0.546642243120994
Ni 8.315565250365411 0.06007123003687904 7.050285881473505 0.7364629328639897 -0.3044278702676305 1.764976702487496
Ni 4.980253074179272 8.691601470495556 13.254920744008263 -0.018330937098703915 0.7533535379717412 -0.3520323595194711
Ni 1.086615393655941 0.004409939385105871 4.8548657832834206 -0.7827358477886003 -3.565826207612201 0.06606809527366687
Ni 2.341661059816896 7.6903460475040415 2.4392232899449673 -0.05698335936357928 0.8628087419817915 2.147665096329927
Ni 4.658452220864263 7.082224900046724 6.049514453517927 -0.38269327893843774 4.116448775537181 -0.984349416401466
Ni 9.128881677865033 8.084336621947966 9.266698333587541 0.9812890323085877 1.0791871276086575 2.055687223169034
Ni 7.807007466357813 4.7804189699196185 1.0750237125453228 -0.5287674197231022 1.1883633669257083 1.5180204440737728
Ni 2.7723421810233524 1.1339259084184847 12.340544291486262 0.4701470389767322 -0.4149595951713111 0.8581365333171028
Ni 8.854661259621071 3.0417784944890442 0.15427062542489295 0.9270822072488808 0.5911850627283755 0.7810396910331
Ni 3.4442948276428824 6.835610814044687 8.196001722815405 -1.5973616023072619 0.22042890154715586 -2.067359003080007
Ni 4.164982051342223 2.674696182523678 6.376511738151432 0.16651749624068093 0.3483502826821936 0.4681102110523616
Ni 3.029539004638022 5.368445015788833 1.565659718828097 1.1867520565745304 -1.594098358174958 0.5121935745248211
Ni 6.371152423888148 7.835218792394656 10.10771696157659 -0.7191336975569228 0.45985979811811123 -0.9305989621528876
Ni 5.720151177766452 2.7286337062397785 8.206218671872033 0.35552160361965224 0.8114815524627249 -0.43121385224664444
P 7.35410911148262 1.431871391020055 8.575745158768866 0.7334349446709433 -0.2842364829214202 0.20000071559979105
P 1.1562269104588259 4.751723648846843 -0.024650239483989842 0.47661439186863075 -0.17879657071835012 2.2985518280118864
P 4.198154326497388 1.0971515932843492 7.855654552027282 -0.6870440161112297 -0.14246688304938046 0.910079502043297
P 3.5854073034081635 8.099619695967265 4.073718271999085 0.011809591040418371 0.15639943397007258 1.1207065870086828
P 6.779979307702818 8.09970346433887 5.942617634514122 0.4555208044231252 -0.5790468847039447 -0.634070806348308
P 0.5204389313800915 1.4482341462733606 6.455726833378868 1.333236545423736 -0.003069897174575358 1.274077775675393
P 4.353088583577321 6.5970664145071645 9.930405380162188 2.2202506810071374 0.4356924568432884 1.63583918955717
P 5.186407036696599 4.890071768349193 2.5931588418834437 0.6575331511363064 0.47704453742751396 -0.9625611168817809
