# total energy = -340891.8203984635 ev
CRYSTAL
PRIMVEC
9.11410208052423 0.00000000000000 0.00000000000000
0.00000000000000 9.11410208052423 0.00000000000000
0.00000000000000 0.00000000000000 13.33940966240639
PRIMCOORD
 96 1
Ni 6.491191141747889 2.054555589078085 11.754407402776373 -0.20074607840624784 0.44446943170497005 -0.6980547653994366
Ni 4.794145323225004 0.12093319847914305 5.9380644855453255 -1.1050938201720903 -0.056160863462283925 0.6192571383742431
Ni 2.903616230365804 1.6562602114450642 4.94749373737632 -0.4486695858292466 -0.39205029467330543 -0.15197353698823504
Ni 3.7572612650300914 4.4490125033763235 5.07536550181487 -0.4111224808134081 -0.47818353612796355 -0.3956698937037637
Ni 5.421140865864443 4.34965967594497 3.1597060951242346 -0.43507899162900554 0.718540286947298 -0.34788208479652344
Ni 7.414823366747499 6.05621150300018 2.381685322969043 -1.1955719688590056 0.7447778804875883 0.11332188605430805
Ni 5.162364163795053 4.646852318535702 11.595668908619288 -0.6930686250387548 -0.960277720164243 -0.8272107902725238
Ni 5.662928881544322 7.848654628625529 12.398714271021086 0.496785467499867 0.37611536861060385 0.11937966221261374
Ni 1.9639887561099765 6.744800147903731 0.4445157238170978 0.07867627095598063 -1.039668500688745 -0.8181911032724167
Ni 2.6496608883286314 1.5443299230601044 0.3695923357625908 0.031339690653546026 0.2829167356687321 0.92963582690867
Ni 0.650452507317914 9.377773115213481 4.819141659754978 -0.08759954158753945 -0.6082309624670686 0.0201744180653459
Ni 8.735292713037683 2.185598149651243 1.5776255609990293 0.2083452309097444 0.991723340268034 -0.3438724494164981
Ni 6.897424902345105 0.7209746954488727 4.98705805476734 1.0091531057087073 -0.38423002729793826 -1.1246555443541018
Ni 0.7658261034914772 7.689148727068231 2.315521498481573 -0.7383228688908638 -0.3444684311292842 1.1918675234242246
Ni 7.744443984753398 3.9524944469773455 3.815324475535267 -0.7643066945491354 -0.5490199993245513 -0.13459313672825854
Ni 7.827692193702852 4.177576313434065 12.84239696590256 -0.4326130465870162 -1.0106906253991563 -0.472643837256657
Ni 8.22651618926001 8.845518664322409 6.839049078136518 0.10192007197526963 0.7667019342541892 0.5766524163298391
Ni 6.702656539607006 0.9196129059557407 0.5618051042605511 0.876406021050252 -1.1310935866699616 -0.889436628981965
Ni 1.8876854929914286 6.570009897057157 9.42405270306147 0.22467713530054853 -0.2914710529966464 -0.7140141169421703
Ni 9.259836633518066 4.7365624259026236 1.4870104232895764 0.6071554700147028 -0.11148406151462091 -0.41303229624161125
Ni 6.481247656312826 1.9174430364794912 7.211351947875633 -0.17526773162948525 0.4793305052482133 -0.5879943237052195
Ni 3.5223270541597134 4.426837892868986 0.4270795350124999 -0.24604737344620853 -0.016149356066352833 -0.7495974133634187
Ni 5.972516703045854 5.702411172016079 5.028623828988368 1.3853278668023365 0.4262626788889562 0.048124880531684865
Ni 5.39665127341347 3.04169487779127 9.334785541058569 -0.37430582620569086 -0.43479488472968353 0.6224627897957344
P 0.428161378936553 5.490790834420575 12.632287746441918 0.9721186786632291 0.29421467718005456 -0.24390718717475413
P 4.037282939188508 6.210011976617655 12.5342300329247 -0.4911781486154186 1.0361550882188477 1.0321343970952288
P 2.4209880656286358 8.710757550076009 1.3759468860181587 -0.07293165516271956 0.030963281150733775 0.6862806555826438
P 6.606666815865423 7.716126469403503 5.955433229994085 -0.3965145010922462 -0.1562035159091826 -1.5421767296050022
P 4.667304363738523 1.0562606393451799 12.65831306510353 0.7197044824587283 -0.3026178136420853 -0.08731877712232704
P 3.920449263852069 6.123400663978434 8.22818771559254 0.10266723455393932 -0.12239428066922146 -0.042942050779164756
P 4.855401203709926 1.0447404142398473 3.8660809103545692 -0.5365959146285856 -2.3315223694006364 -1.52264560155061
P 0.14796015696597312 5.717777548224616 3.4743294580582793 0.6778849753197809 0.7288298417987641 0.6114265865862308
Ni 1.7154654189484189 1.2806133776306756 2.853793079605669 -0.44929744922123266 0.16569859988381141 -1.1901227728189763
Ni 2.1496065602992194 6.338010427075954 4.520659371711394 -1.9020108445570791 0.7306347562179869 0.015800714477682463
Ni 6.084848011924986 5.815252870615068 9.245371642011207 -0.9133877404809239 -0.28387729980978854 0.35378585187546807
Ni 8.676880432420534 2.067105707725271 10.369483126150024 0.2052421665043885 1.1005673930566464 0.13026699854907886
Ni 2.195486950473463 5.406202852456499 6.6998120283290215 0.42327377146396133 -1.0195123374558444 1.779896557022122
Ni 0.589570305020745 9.11492240948738 9.267435060472431 0.7927932320246024 0.21079600644308213 0.41616724232616714
Ni 1.3402560620367645 0.90944794783867 11.773789452387923 0.5843986359341613 0.6213839549092588 -2.000918612068586
Ni 4.309821935489742 6.8046980271697475 1.5247610343546776 -0.49603033450139733 0.7938599827262199 -0.0017136402569970484
Ni 5.599348905013626 7.837799732976438 7.811357899847015 -0.6147883039696121 0.29922781412392985 1.7893852132388475
Ni 5.204216120823287 2.5359989205370153 5.133405015654481 0.9008906364551774 2.454611876364669 1.4231197408391298
Ni 0.7331620728308749 7.174520949716488 6.783116744711743 -0.10555895427943757 0.823352335758382 0.08398174232929408
Ni 5.01601902572834 4.281878098327598 7.2753539073354245 1.0327303788080149 1.4751609257060854 -0.23789877619714514
Ni 8.257586163456274 7.382778183622222 9.001353405537596 -0.44700685341484303 -0.3941254320347793 0.6266511168454691
Ni 4.591092241641379 0.5072353291057502 10.471063440144466 -0.8923887696317534 -0.5402689926047985 0.4003649851865879
Ni 8.314467274913854 7.465279036196171 4.479867384762077 -0.514346873422398 -0.31131045632007676 0.3882268071621572
Ni 7.359245571895982 6.015198043368854 7.26002672176609 -0.3003071632310376 0.12779076909444442 -1.25938417821896
Ni 2.6223641524184482 5.238858823058547 2.4266916707480326 -0.7588130184244157 -0.2930239993060631 0.566886852302643
Ni 2.6184359743959815 5.00025162902563 11.403901819715987 -0.8889802581708367 0.5251663326354054 -0.019729874328759566
Ni 0.9957885716443242 3.6733021561136963 3.7818693408088877 1.0765954556220814 -0.413587654524449 -0.12830087596164355
Ni 3.852166410616981 2.70342497685423 2.740621450509201 -1.1756659739636979 -0.03748822675344512 0.30572550603313153
Ni 1.091851208203031 3.3584737258814945 7.916966646987467 -0.7835940820238375 0.561704279660439 0.6605930210085527
Ni 3.53922459952782 2.578169871140159 7.095098840845531 0.16814526165209107 0.03910725041410685 -0.6788622516313857
Ni 4.076072557897602 6.820948471285893 5.955045880653123 -0.15072552351374688 0.899550063266883 0.7991983642199978
Ni 0.6558990947569541 7.401653489154773 11.545419217878987 0.7912197168898955 -0.31797886947918785 -0.18029320986853464
P 0.2739170485448466 5.455555715546195 8.155901948697434 -0.16425235435558808 0.44920437528679413 -0.05356302082812066
P 8.495619169054352 1.5025235365425724 8.192892443644034 0.09754816815981909 0.9437815222814326 -0.6845593020161629
P 1.7751901302737705 3.0359165370343226 10.365001722127642 -0.9576341118938089 0.8223920287276417 1.2659134946970456
P 4.148265360950877 6.157086385488964 3.7041807341650146 0.22040807561154946 0.3997659181500083 -0.0548305746866346
P 6.894690671703017 3.972481672971012 10.653679970498908 1.6233947931462298 0.359955985241922 -1.158918836412346
P 6.317567495975273 7.967584547454235 10.154545255375451 0.721493456038351 -0.5730793542666001 0.4544262858073657
P 2.4008823563071457 8.728530049249585 5.935036780814319 0.5474991918046507 -1.233362557344218 -0.826505536675383
P 6.6630101952967244 3.936799963091758 1.4614389869145517 1.0146719786444074 0.2038892520209198 -0.0016043683726423982
Ni 4.962555702573371 2.655831135477611 0.6761451612514048 0.7976361619392005 0.9194069500918101 -0.4670879404354342
Ni 1.4738870276177662 1.1681180149130175 7.129140923749746 -1.2789358750986424 -0.032991367324356084 -0.9590147942914193
Ni 6.646440757605669 0.9100877578089186 9.360517385631262 0.8078907497876731 -0.9976271073469786 0.12486999590322367
Ni 2.723640055401404 1.7096141653743497 9.09039453780742 0.1285880681847592 -1.3564613202796316 1.4059617410026044
Ni 6.387098981203581 2.1151643683110453 2.755321585851282 0.7794013840987286 -0.1883065670913144 -0.2561901183071652
Ni 4.223830381796061 7.056292816752585 10.418158811450695 -0.3383378927515141 0.026997097414134148 -0.32529751462778816
Ni 8.136997478038035 6.942585278450267 0.1192215700971957 -0.01593518317301772 0.8384472824182915 0.7474433431348934
Ni 7.603257428498093 3.970130234618816 8.460947301692244 0.7249973554265514 -0.9345193802532163 0.32384664111387457
Ni 3.2409564928845342 8.494060657588362 12.60412790505905 0.1949572396386126 -0.4554971502740413 -0.38421820022339637
Ni 9.398553268093353 4.806157709845913 10.487016764530837 -0.3850815766649562 -0.6772457990738853 -0.5299616971415195
Ni 8.703757919632263 2.2898087935233735 5.947656166637772 -0.13020374941131124 1.0459525339252438 -0.1481220244526288
Ni 3.576610646507309 2.6722000629215805 11.630965091978005 0.1952428891998315 0.18420951420380532 -0.35450473231936364
Ni 1.1359634625620576 3.272527742698515 12.671292457961524 -0.1881070494859986 0.4777495339143385 0.2646282217721894
Ni 2.8158929972654674 8.666590611104143 8.09279317124739 1.4312495690351157 -1.8526518345079772 0.4131587945171466
Ni 5.544163016554141 7.906018787496545 3.6212624557130413 1.0636165268639102 -0.1362224448015654 0.09305310850294297
Ni 3.218061868308114 8.550413151121804 3.710263485933448 -0.5774247757194894 -0.11553560587617522 -0.1418991834713685
Ni 3.237957953280377 4.072536286267168 9.071412597279828 0.028075932300609712 1.5177905874511537 0.04870954939056127
Ni 7.527665065346488 6.245237981389893 11.221698158188499 -0.6758643453453264 -0.13832072209149082 0.18279952123015614
Ni 0.21403192902182588 0.036904822386481524 0.25225465057779406 0.2711986759008555 -1.1237286616644584 1.7433879205731266
Ni 4.6768286004751305 0.3977093408654001 1.6200580863335994 -1.3024987500202472 -0.9762920933146283 0.682207771064851
Ni 6.023920239117117 5.626217278123215 0.19914404317565443 -0.08834156195988657 0.42371754386959926 0.8426368950196069
Ni 8.036241078877076 8.918659333998274 11.453110679991866 -1.122840345522234 0.3956488106578412 -0.33026488593539255
Ni -0.2444557133763438 5.053915462427686 5.6545092739871174 0.9178023246088516 -0.2047099481500023 0.1497726726821743
Ni 7.7595551661020075 9.101980384448161 2.601851954141501 0.2955701627666845 -0.5526108019996031 0.033668338786722665
P 8.700057594163303 1.8178714705967707 3.694990073566742 -0.9262496840452564 -0.6141545270403552 0.6429403409237959
P 1.8800478753978616 3.273949542632401 1.661877232594128 0.432640557390842 -0.4213094486487389 -0.535874977302161
P 4.621515114585682 0.9938928383991429 8.185168242080135 1.160926096650362 -0.05949121338709755 -0.02859606647013785
P 8.514284850237676 1.805321351949585 12.73329387200152 -0.744771452729685 -0.28737091478534377 -1.043105808505068
P 6.228158153978982 7.826835468101663 1.3094795619294173 1.561501398075543 0.17318745206168884 0.3877169574052742
P 1.9138065097255135 3.412410982347759 5.790984750846105 -0.946213785872009 -0.07939695117208907 0.5291669691543661
P 6.8644683090058 3.9251339123521807 6.085291868699219 0.5947329279806338 -0.12927738094229993 0.017230247835357423
P 2.377978617628585 8.474082545696836 10.503758458752344 -0.0378666931387864 0.1403377525215196 -0.5751529489661772
