# total energy = -381168.8807734211 ev
CRYSTAL
PRIMVEC
9.21746489046963 0.00000000000000 0.00000000000000
0.00000000000000 9.21746489046963 0.00000000000000
0.00000000000000 0.00000000000000 13.49069158282928
PRIMCOORD
 96 1
Ni 4.040752191349433 4.157841645901903 13.287804990025613 -0.5691874754113616 0.664210820266798 -0.6285141381961369
Ni 7.6970347110592465 3.7872258237618004 4.675806015832674 0.21960460587364758 -0.026646656053250884 0.41206453301170326
Ni 5.354692572125632 0.3641119790217661 8.132391240271708 -0.5051140419702204 -0.7711867094984203 -0.8340147005682347
Ni 3.984654700960837 7.554947492140382 2.4093696990071916 0.3351741503115518 0.017827000879091878 -0.06283493304834985
Ni 4.2053761115499455 3.414499202196955 10.777335372545 0.20970405893048402 1.4829117732960977 0.3725487343052681
Ni 2.2653763083807426 8.16844351009703 3.7612860344992987 -1.7612357473878248 0.32823011489355086 0.10063014951925249
Ni 6.1921176783998195 3.3924786789405705 0.5901933453553653 1.4057897342011145 1.435293400087186 1.1960100848376887
Ni 1.4395928600692223 7.833821887754409 8.415331459581168 -1.1437914938526041 -0.06189210951910631 -0.30653411797735597
Ni 5.553983377201516 6.929284420731064 8.471250131153868 0.23114217419960192 1.260675386226558 0.73837891893978
Ni 0.6006090805080293 1.9290033677381155 2.2384972594615538 1.1074808323470282 0.7980526806513288 0.597280634103152
Ni 6.342850879241869 7.93320459254735 2.171300098036818 0.22159515394111515 0.20976062320003228 -1.4193700439887103
Ni 5.239262261225798 4.723655718774719 8.898769971847043 1.3924937884231567 -0.7070078608276662 0.84067951418292
Ni 4.0566984053442185 0.06621457968378526 11.955207538875515 0.031701187758022824 -1.5786658256699717 1.5829503119779382
Ni 7.490554283488603 5.172020855970326 10.086868915303114 0.12852996125331412 -1.3826940287239153 0.7367766074496666
Ni 0.6629108464110128 0.1225904375074346 6.028855177740942 -0.009543677824377112 0.6805404106647569 1.56145177578453
Ni 4.42186670582483 8.454074307363184 4.6855866676649685 -1.034564089582644 -0.4213289890327647 0.20613433930135466
Ni 6.706691864800371 8.541962833629247 11.03399567814317 0.19491738753961269 -1.3962547981274858 -1.3118763345804052
Ni 2.7043211966152683 3.715237424166839 3.472045678042187 3.7611472583481356 0.05129067985417618 -1.4982859417593228
Ni 3.02268321116205 1.1555935540614954 3.8238956637244934 0.3768399054814542 0.40508733036292177 0.1615318701006315
Ni 2.592780655834394 5.491820795016059 1.7009605249085105 -0.06969335073107998 -0.4009578815755805 -1.1920876098548308
Ni 8.537658277597128 3.2016495064931334 11.550123007351884 -0.22458637535895512 1.713178743979598 -0.7073585592988657
Ni 1.5031104095709993 0.2818027841609307 13.366806036792385 -0.8596534841822613 0.991315563306654 -1.5094959515425295
Ni 7.853915960880787 1.5202917638405264 4.320690282394094 1.1271909091814456 -0.3508460525208538 0.06076956587888888
Ni 5.428754901286389 1.3936991031443426 10.604424951546042 -0.2492643377216094 1.0352019802769592 0.27390141954399927
P 8.73044155256878 7.271869932606343 10.900235516867594 0.5704645423515723 0.24333254561820672 -0.2433549142157099
Ni 8.829003903000142 1.8010280873314013 7.767494855000834 -0.12085136166213378 0.03432602697537959 -0.4399435188101585
P 4.380093155637332 2.6030028242275844 2.277026262061674 0.11222993854170993 1.7738395521947645 0.3234573760952558
Ni 7.900851291320933 6.985077734783343 8.882271631714518 0.5886183304424637 1.1759613937169295 0.30481739239656536
P 4.65754806168188 8.627860387512147 9.99545563052167 -0.305458368414674 -1.076048581979676 -1.014191439463563
P 3.3508986955125457 5.624911768351737 11.578925741161656 0.09488219129188176 -0.7232598039101543 -0.03061721066522469
P 6.265322783340047 5.9043852991736605 0.9211132338596595 1.5532813241585959 -0.5309320314745888 0.14347964058461093
Ni 0.13826565803895713 5.464223705593867 11.854364787668253 0.29760647647042293 -0.5485862542212423 1.1209325869765596
Ni 7.475889297092241 2.9138710399432894 2.5433059138592404 0.14150117670200146 -0.3279853458725964 -1.2409971910713402
Ni 5.435806261810095 3.901651431005315 4.314889731835182 -0.25862803832469655 0.07191015587674067 -0.5608632718163824
Ni 1.587745170784947 7.274791868927931 5.757287466423834 -0.5207486631836837 -1.4519711178531831 -0.06214124941543491
Ni 7.426631165538404 1.3776330621079769 12.029595244541483 -2.2514859848723354 -1.3730446785596095 -1.5294366563305146
Ni 9.156905993549584 0.21922633780878834 10.27998770599119 1.0994975570312353 -1.1553789415798874 0.8303074269199765
Ni 2.0213070596131404 2.065292801337488 9.543422864107264 -0.1727141119696961 -0.2056535430101942 2.5283086918281876
Ni 5.109664707025394 0.6650972290465987 2.4167630274726353 0.5969595033183074 -0.3998307099496727 -0.05827276759896416
Ni 2.33387128884043 4.7331128375947475 5.596464828680806 -0.6928806773976648 -0.5690293525669426 0.7287138850461902
Ni 5.774105652582728 7.542494697280869 6.3728546487068565 -0.10546999411005706 0.7026308148058932 -0.8281315023145801
Ni 5.546738449918335 1.4668673382256232 4.781249203690108 -0.4773013906333263 -0.37190878672842403 -0.28139695659009606
Ni 2.8817573928000315 4.31211435320291 8.966156091298885 -0.6288468389452074 -1.1559764659545704 0.14476699193746678
Ni 7.640273563209596 5.331621257889244 2.825854390917384 -0.16761741417307904 -1.1293969156938293 0.21296087530488483
Ni 3.412397620236948 6.060206540550461 4.196266491150496 0.8789799524250154 0.4752802464382395 -0.738712905240431
Ni 7.324372611747558 6.4541609834043205 12.367807069399115 -1.6789869285892376 0.5289191148096181 0.555919554657862
Ni 8.122190272047412 7.334981913659696 6.637029031558522 0.9436010308395104 -0.679190838615398 -1.477707603387339
Ni 0.6178144001858724 3.824869949747181 3.6634509420356776 -3.695236257477623 0.6556104801922967 -1.354008744974081
Ni 3.323661087215093 6.478439785521239 9.08626426555268 1.0526019209209614 1.7720639483515803 1.9972046535521089
Ni 7.294867507124835 0.3728630400429513 6.279121328051144 0.19516858431847034 -0.20977784959121287 1.6436602282634853
Ni 2.8256230325524885 0.44757335697471035 8.170488865522142 0.793138274068847 -0.1440411695150358 -1.145124610841731
Ni 3.5279754105725716 6.510959001112918 6.924799202390103 1.0188785605265873 -0.0347901110959917 -1.742203156236406
Ni 4.4013578467852925 2.4549703405534387 8.6114993876042 -0.17157254216608517 -0.02278408777405108 -0.9631846093983928
Ni 1.549861390716408 2.5075006720888657 5.01277624819025 -0.7358317270378941 -2.529490885061747 2.3434047226605195
Ni 4.864323448124104 4.754626400290603 2.2158195309694304 -0.17863741943266653 0.40765894774483985 -0.41850386087914376
Ni 8.24037660490357 6.986220700410715 1.378209153654031 0.3916903402307254 -0.35800297528060926 -1.336257334527931
P 0.6687805279554523 5.839780088832932 0.5164398012632934 1.644017611602904 -0.43213019341332676 -0.03572265021259009
Ni 6.034517466328802 8.498115353875953 13.170058330237403 0.0495749827146501 0.3686388577279006 1.5262063223186748
P 4.188111800097786 4.357851413227262 7.14471039782884 -0.7386774240168053 -0.11792261805111304 -1.3026535304305566
Ni 8.154313136655407 4.644367087108155 0.28265447790261755 -0.06607040926651202 -0.7098311892090743 0.3172077956411182
P 0.5786014617022766 0.5754057666780034 4.01292743054824 0.9617712739906341 -0.1290639793799132 -1.2709076054775272
P 0.8863753745058144 1.7299245643511798 11.535579691490048 0.36036504775488265 -0.6239504300848545 0.7396899244417197
P 8.704070385956594 8.907112699180384 8.138057215845462 0.4061332551289328 -0.3718977309848304 -1.4745927119074411
Ni 2.8655623072573495 1.4382931975413238 1.4148494977295665 -0.15729057832577428 -0.2054429696612849 -0.4232403471228646
Ni 6.228130313126774 4.410160525609005 11.95988908921537 -0.26513061532990473 -1.2081001832330032 0.15090652917630137
Ni 3.880432827181038 2.7944495668123914 5.583486638331292 -0.48703918674638064 0.2558471331454497 1.759586641820176
Ni 9.177018501605437 3.834465330538263 6.509730313063494 0.06577910327833833 0.4810809122804166 -0.8920002759440832
Ni 1.6604894024883317 3.1987828749599667 0.16773204930978577 -0.7063005503479965 1.0213069674624216 1.2076664381296944
Ni 8.192464223201316 7.422022433169968 3.8982566387427253 2.5793422613662353 -1.7554222260298413 0.15647065352764022
Ni 6.685611522947147 2.63653596094032 6.561844936939288 -0.23273420127707012 0.591727822605723 0.3471606332494666
Ni 4.8638257050283125 1.8988622580485481 13.420566899870185 -1.1866859792232853 -2.3874721452933785 -0.545976327402221
Ni 5.806412866485461 6.490431707143908 3.795619247151195 -1.2044433032067063 -0.44693949051201737 0.5376302694303708
Ni 2.9874540609377296 2.110467596012892 12.126377702532151 -0.31864864185270286 -1.639452617940041 0.06684096888394939
Ni 1.746516000877547 2.807759585892433 7.553357479473272 0.952087985264599 0.012350551145552922 -2.4122100143596907
Ni 1.4248910038139133 5.750361463420549 10.019401682161586 -1.3016790823324291 1.0804086587205843 -0.30449523317045624
Ni 7.35184987412817 4.765788750086955 7.616777323848837 0.36138963236465504 0.246724087798259 1.2914563761631566
Ni 5.395074285137863 6.266991144457421 10.795669831653111 -1.186355335356744 0.8753300143772538 0.3918124676308865
Ni 6.617770982483778 8.664896160824894 4.325979263660111 -0.9888722439724839 1.6462945805625389 0.22041964557577523
Ni 1.3685077720184744 5.567818791771559 7.476595354891085 -0.9849387132460327 -0.10885947940758027 1.2269674524511511
Ni 8.700208268231846 9.143577539540068 2.185559515984757 -1.1716383408615436 0.22089298566776794 -0.2662040508997416
Ni 8.851789475829685 1.892806383716424 0.12378041220496463 0.5467168051126713 0.3243122678963834 1.2353855013115176
Ni 1.0461269428464175 6.023631640474559 3.284605767378497 0.4259767722174212 1.294122353031094 -0.4765357161118954
Ni 1.9465257682029071 7.274920913434246 11.987909260268983 -0.26580347302721313 -0.4110759438461888 1.2201722839061888
Ni 1.2661017387918398 7.697735238379248 1.5648121185196124 -0.09039998715081206 -0.06187539734855795 -0.05209646358492318
Ni 8.645926618396413 8.42412676443309 12.815603489020457 0.20884891001904032 0.6443667889576774 0.11175814111161399
Ni 0.06250731536661581 3.7538954712732755 9.016422613494935 0.08486903003025384 0.6239298612595642 0.5631775217718559
Ni 6.5215867379545305 5.475736319050219 5.6768825997776355 0.04339790736966074 0.24989168689296318 0.6533481665206812
Ni 1.6909899933026373 3.769841685268062 11.278986673384459 0.44158593950958785 1.3063152955528599 -0.7930459714653568
P 9.10054119668362 5.534626701254087 4.888271343256968 -1.109225840062593 0.34590233536233334 2.0907411294493734
Ni 7.287982060966392 0.9101757902028886 9.327774746109327 -0.9750556498043659 -0.3173803166632405 -1.055724782820659
P 3.046657836942651 8.450378104003699 0.7190507371373983 1.8638860126608996 0.1887174293764879 -0.6446516671879478
Ni 2.272860889747082 9.01205353520966 10.501788481700986 0.39646616435281395 0.5254267853856434 -0.9215815891456257
P 7.112186573504792 2.9424728330218 9.56842155022013 -0.014097101523014431 2.0503395857038753 0.16178615220328266
P 3.529146028594154 0.6405160940863116 6.077125197074988 0.016229317374668824 0.36691621860983903 0.17962446593628417
P 6.79921677582908 1.1644146678146807 0.5644286879228639 0.4616911948998952 -0.44275630566860524 1.6108853478253096
Ni 4.426364828616423 6.683104372538718 0.28695626869531515 -0.9025523404283166 -0.1718183396283041 -1.6788830560215213
