# total energy = -340894.44917787577 ev
CRYSTAL
PRIMVEC
9.04322602674113 0.00000000000000 0.00000000000000
0.00000000000000 9.04322602674113 0.00000000000000
0.00000000000000 0.00000000000000 13.23567539343471
PRIMCOORD
 96 1
Ni 6.357541424812726 1.749936525052255 11.404029442857086 -0.19978217183108174 1.8524520597923453 0.3895699514536129
Ni 4.816512457407867 0.22429189326359134 5.8691086640951085 -0.29096454567387314 0.1798216695487548 -0.004929576091133446
Ni 2.6728700568637715 1.5032373270685768 4.808030815993317 0.618020951974297 0.10380006260680186 0.5283457588046513
Ni 3.4254653887771744 4.184752707732656 4.904717368235337 -0.9761889920778608 1.5395570325939678 -0.10382140276304055
Ni 5.051934752903067 4.782021594463961 2.428203776024769 -0.48579065905126023 -1.2024856652597031 -0.5527236734283836
Ni 7.148507163509294 6.036660646145026 2.3843667392862833 1.1203638589572835 -0.8870781560521174 1.312553820263404
Ni 4.896355097400457 4.723783220746407 11.280355192061448 0.5654763451083615 0.18819909497917264 0.12061353461971484
Ni 5.65016222156202 7.9318494629133305 12.553534665139365 -0.4401096120743775 0.4921363987636299 -0.3296768746424064
Ni 1.6890846590979964 6.701862244579167 0.4060589218424889 0.7117096371787097 0.07209887484877905 -0.9259311243635732
Ni 2.646861739656988 1.7238649052653432 0.3936199648473808 0.6647651501083713 -1.4481260330754802 1.1165488560865673
Ni 0.6528892465992884 -0.2642891763560403 4.679327627367815 -0.5746341003482296 0.5549109108876895 0.5591840843417466
Ni 8.649384208661678 2.3760985179990226 1.5618491860088854 0.2338361760919973 0.8570440715838724 -0.21384276368920593
Ni 7.190567206391335 0.5686615464489887 4.894208235611552 -0.6624023063031496 0.23439641947084147 -0.31576720653984974
Ni 0.835358029495031 7.357568455994142 2.618466915179387 -0.6747759973771541 0.5097325145788383 -0.12404081513370897
Ni 7.4538607235942225 3.5823563120110022 3.7973816118664607 1.3739347944740468 0.7542649940424171 -0.10026916663540796
Ni 7.763907717834339 3.846192422757843 12.588106012792291 -0.9277224119360411 -0.47041469081582205 -0.47054813106989285
Ni 7.960914390417713 8.817371169869332 7.0027972845711774 0.13288541000853243 -0.6823808063076054 -0.2613603496541951
Ni 6.943189766477716 0.8323086537780188 0.46873842371729346 -0.022771746478876913 -0.34040660235508474 -0.5006277240640926
Ni 1.8606798673729334 6.557333410921721 9.192957133960883 -0.16753359621002115 0.10461150276450372 0.2113966161415585
Ni 0.179635540273738 4.974217270957623 1.1902512844653848 -0.2950410297360918 -1.0124209778267017 1.9201456064845772
Ni 6.624605967146083 1.8678511453788373 7.000070752012817 -1.0839192429770041 0.06531399071646171 -0.37622849714970047
Ni 3.341716075268126 4.36167437596406 0.29420688004700074 0.780747870824294 0.46902063868177296 -0.23451854687100257
Ni 5.879218086141514 5.306492514048322 4.563488427346851 -0.06388162914530934 0.9855539782325283 0.8853622018022752
Ni 5.241164251356456 2.783785220473369 9.18741182794169 -0.6954088431361573 0.4316257429730825 0.1887441688493653
P 0.08886597062851923 5.519433350372429 12.411450215397425 0.7140133456112219 1.906742959925426 -1.7653042610302436
P 4.106818188369631 6.19634592613021 12.697856408927537 -0.7209177860405391 0.8618965145801673 -0.7712265615974201
P 2.4651923779160017 8.54284596630663 1.4033784112395828 -0.09943741476273196 0.08414629293161638 0.13958159108178542
P 6.287040437001847 7.509304740560422 5.849797759865843 -0.2939166863236615 0.8000002912960028 0.24680482043752336
P 4.723864609777999 1.083631653078744 12.621129160199805 -0.1341611913971625 -0.6854275635537292 0.9819963427882571
P 4.050288984315526 5.956492450026063 8.234945833855418 -0.4407960966184409 0.23584317921969705 -0.23549865139608472
P 4.501202305791411 0.9219206905294725 3.6265351826821774 1.147917600205836 1.88702079890615 0.9937383138155338
P 0.11325193313888525 5.4430361793839355 3.5882705816400833 0.346479548022042 0.6640606678421789 -0.9010801267581642
Ni 1.5359285880917073 0.9815336345583728 2.8022044626454052 -0.04663004115371324 0.19679172174419013 -1.667409251053967
Ni 1.8058869626594767 6.548633827767018 4.8307166520659655 0.6227183574499663 -0.7386339723733796 -0.16972289055185608
Ni 6.296879466598851 5.585295163382515 9.200395187125897 -1.7011405818681413 -0.4148580365964404 -0.7183682801458079
Ni 8.543741245654152 2.2494300551633417 10.272472310686174 0.41405225286569336 0.7653271653938497 -0.05533219691340148
Ni 2.167615991961057 5.1670911893812255 7.038850816921666 0.7329166102736281 0.7026482983073898 -0.009749366077279985
Ni 0.7118375135368472 0.047476030773259154 9.031654020892148 -0.1422686509956453 -0.3679819408701921 0.5890124805570888
Ni 1.5008770451523843 1.1353589042688699 11.49628210152244 -0.09331536102539413 0.8509335878107605 -1.0051990061569658
Ni 4.2643783103076665 6.868167165800569 1.7038287343323288 0.05751994859333965 0.8971447962595 -1.1298108633027963
Ni 5.65856337826755 7.5518983337606835 8.004750522833625 -0.1331432916556094 1.3329976899400526 0.13303376266093864
Ni 5.184336620853179 2.799014012606965 5.12705049880526 1.1497356272511812 -1.4619164019913533 -0.9925291239987808
Ni 0.9853860487204348 7.496933607758309 6.961409153361064 -0.47534092447284576 -0.26638222834881864 0.2607849367666992
Ni 5.057487293502847 4.601934797226169 6.785043643512212 -0.4973649941524209 -0.5537765401729301 1.1803605512258897
Ni 8.103553189897058 7.356772652129679 8.918462677365671 0.09449652581768887 -0.17830883244865423 0.8225051572667385
Ni 4.397096691158417 0.33884333794024246 10.60083635864755 1.2214696625613737 0.21309920065496205 -0.6705552744275872
Ni 7.91671110303706 7.0695417164127585 4.634405403541424 1.0594436264331433 -0.15678767054742676 -0.4159371285932321
Ni 7.179308390354324 5.799908996467142 6.945195553945195 0.4001199590553174 0.767525201486433 0.1834620945148195
Ni 2.366485569045333 5.518203471672805 2.427012783195793 -0.4296565350618536 -1.5905445793854285 0.7419936328742318
Ni 2.174552146097915 5.257812829930061 11.44429259678607 0.5183814485030878 1.0062912107798798 0.1935770714616344
Ni 1.221314764856658 3.2935337685651556 3.7598585553344344 -0.750387770475198 0.7867405980726192 -0.008511122794804697
Ni 3.6427198437757036 2.8504880534765804 2.9198821504577954 0.17639798857918654 -0.49383461240165916 -0.4312043391649477
Ni 1.0388224695740107 3.3829531846085064 8.214681773633943 -0.7696340202993197 -0.45924504735224775 0.1941653398649366
Ni 3.5444742394173945 2.6553895015227726 7.057896754636968 1.0433204956190354 0.45711540260375466 -0.05282177178672193
Ni 4.137908798438102 6.837148901537958 6.212468188966181 -0.6514674045582006 0.10585848779772737 -1.3706507244061361
Ni 0.6481759173474888 7.711782564711982 11.376036137602007 1.2129631677522594 -1.9421534782142356 -0.03616590839759578
P 0.07701572762859946 5.643406931939814 8.006048225726245 0.8766837001916709 -0.44933498732738747 -0.04052135715281408
P 8.496743601522144 1.5346896661663494 8.125579774813804 0.2520575841960304 1.0668304058155174 -0.33079761851041095
P 1.7344454793724144 3.1890031223227315 10.34660505795124 -0.033579892837974426 -0.4870633551160966 0.4618243780436498
P 3.906926726777578 6.122191475123386 3.846300037144059 0.3219568802903294 -0.45183358537952506 0.5915853834905876
P 6.771865854974756 3.8476212524235835 10.443199369290788 0.18982480350805372 -0.01725621597728641 0.8091824720159031
P 6.3370766049799885 7.951862121459441 10.223486965538156 -0.5723203646133885 -0.7429948204452365 0.3977483734993472
P 2.552794105587112 8.57913643117131 5.774089682678168 -0.29188628615719403 -0.718690439371917 0.9226753364304368
P 6.864938734214053 3.883179216003929 1.537615149690826 0.13513743926750277 0.15422016693056667 -0.16842654033793572
Ni 5.076568499798505 2.7142066416872095 0.8036714708507859 0.31516428284852815 0.41057252184720905 -0.5233459915972147
Ni 1.5428828286800302 1.1090973767415753 7.005047239133434 -0.7009989356294251 0.1218746607203256 -0.2523733156642363
Ni 6.625356554881883 0.7615463167434704 9.238950980036579 0.5509686384104898 -0.37146784253626347 -0.44756195458736464
Ni 2.89450143311685 1.575329922608382 9.048013216242312 -0.6493788974602881 0.5399026104043153 1.6105870998586005
Ni 6.3571977822348895 1.849005062952225 2.6774314599232647 -0.43916087500786305 -0.2591193761388182 0.6103284684260456
Ni 4.214459704264049 6.959973993437311 10.153060132178284 0.11996330263022567 -0.10036763988648521 0.8212828548238629
Ni 8.170500189995048 7.2655626773912845 0.3221567778185606 0.4093540760590756 0.034907353400146335 -0.4690319515356825
Ni 7.432582013445558 3.66941544613816 8.388837119113763 1.4266537221343172 -0.13819988024291036 -0.7464784081184628
Ni 2.9551091319763296 8.420301214404986 12.359671417820623 1.1058903479314568 -0.6369090471280514 0.9697231818478591
Ni 9.18023060238748 4.895749201276377 10.13111493629313 -0.7474798527997837 -0.23599847385063874 0.14889901182796939
Ni 8.693388545076216 2.336208849292791 5.821459907710357 0.6914236332361641 0.2771062996345421 -0.03226837311540249
Ni 3.700524142658096 2.7044851740247298 11.674911130772145 -0.5553145740840114 0.26862500163640834 -1.2917127151483367
Ni 1.2475220330295573 3.3596397486700194 12.573162986591843 -0.7212682274014224 0.3329928263895168 0.2935047955972236
Ni 3.1233131306015647 8.428729500787714 8.070108628170408 0.8424702875347555 -0.6081494584968559 -0.49165791646531454
Ni 5.663817492418155 8.050089639366286 3.728662139524893 0.3874390211535392 -0.7849562524786868 -0.3419037557259014
Ni 3.272571571317129 8.204466545846467 3.6693394830420067 -1.3400728516192792 0.017592002050150348 -0.34239817886381674
Ni 3.324443514118976 4.336353343912949 9.477100712412714 0.35532028624212353 -0.16208285750809504 -0.876937982294322
Ni 7.160643172442361 6.204665693804146 11.18037328836249 1.4987721373671221 -0.0037679516828644784 1.810738482103643
Ni 0.5658753286007934 0.1846002712009022 0.35522875864503084 0.014967162832793578 -0.4855397193827186 0.5773928940402895
Ni 4.717579567893884 0.29697591576630433 1.5515118746740195 -0.6921936786329692 -0.4623902778494488 -0.7234914603049862
Ni 6.20902452860723 5.6653638840184195 0.10838758201735224 -0.6738144047948331 -0.569082317292065 0.8558958169120422
Ni 7.974642007079708 9.071892758111655 11.359240154448962 -0.6187927971433149 -0.03665056134349817 0.013698066312382861
Ni 0.024322659930238254 4.9329259022628476 5.684682927150844 0.3423079331428556 -0.6501864809632479 0.2327984788561023
Ni 7.8770836878770725 -0.15382617403307025 2.6111075380782465 0.9361198919711168 -0.6911174148496549 -0.28582645311635935
P 8.631388189453924 1.6143966577729527 3.629949904718784 -0.014627262994871585 -0.12388552050276727 0.7362893834006029
P 1.9935971991897992 3.3944652109660294 1.5987500686105127 -1.2358855808763878 -0.04023802158444038 0.6642450159388431
P 4.803426909772882 0.9634562263190264 7.996068121807814 -0.3075227071428704 -0.028060762791958127 0.2034845603833334
P 8.656356535701466 1.8522334945387415 12.563752605894562 -0.7044357292251159 -1.364262047270973 -0.2534392950349054
P 6.4044034205587455 7.776459715151105 1.4719260622922323 -0.8990222157878711 0.70853509610547 -0.620430589857054
P 1.7735755171171128 3.2416708689890417 6.058034310163884 -0.8349282135214395 -0.15621302899087935 -0.8133707990656378
P 7.017063877486833 3.8598205639367795 6.00351722383527 -0.5813742472855407 -0.5089172177663944 -0.3441629840737234
P 2.42473298598862 8.612813403799288 10.22858282323844 -0.3315998026967321 -1.2119838345581255 -0.3078646638633214
