# total energy = -340864.799537143 ev
CRYSTAL
PRIMVEC
9.26598468872865 0.00000000000000 0.00000000000000
0.00000000000000 9.26598468872865 0.00000000000000
0.00000000000000 0.00000000000000 13.56170521203898
PRIMCOORD
 96 1
Ni 5.6938084645454925 8.432082927931939 8.035622030383635 -1.368742708750146 1.236099753769723 -0.307176122436729
Ni 1.1675325746758036 2.1237173096682658 7.704499295698374 -0.4189756583092397 -0.6446956330520058 0.14251599111976102
Ni 2.6676861937250087 8.395843662685696 2.1388709006638433 1.125035296291024 -0.614462030978445 -0.02687471290365694
Ni 4.583928845216691 8.322503395637879 10.134621399890593 -0.09370565448527733 1.1673230013156413 -0.5962285386895538
Ni 0.5068706620505089 3.2482742483910974 3.6094206259428567 0.45520995805092573 -1.4297107637930861 -0.7972222143302334
Ni 6.65293978259812 1.5660903645087456 10.88596672268858 1.4189794934185112 0.2721237588182862 -0.9782145071483218
Ni 4.781600091828323 3.134747406714553 0.605915696605255 -1.1136121420557465 -0.0015025526874554768 -2.4223992961878666
Ni 1.1569230224623166 5.5610639710866145 9.78905577521829 -1.0508579416466612 -0.9146933466662248 -0.04650302865754572
Ni -0.3152389841137679 2.150662792495183 11.489164706049978 0.5505318079833874 1.4018567176952952 1.061708768318236
Ni 6.83180108074392 2.3751034682288803 5.126215953092868 -1.071877738431438 1.9594737146602383 -0.37402506174047845
Ni 8.149720583301727 0.7892302268853794 4.390791444804236 0.7083623179730316 -0.5864827721566995 -0.6499676800842225
Ni 2.3189052724430295 2.4319780808807434 1.7955698825950142 0.722109492355795 0.7961665193722095 -0.9337130823018371
Ni 0.5035654853915125 6.635686519522563 11.934164536624596 -0.03284661421637569 0.10772330892060801 1.25053007026244
Ni 5.47325023630302 6.066440029842769 8.05879903732826 0.5273664256105176 -0.5057689019453999 0.5942359337395573
Ni 8.5930330781051 5.2723729590661765 6.831789961562561 0.17865001783815682 0.8318606303397093 -0.20511258290505965
Ni 0.7809983262858494 8.061823454657938 3.5269116672660052 -2.049723292276115 -1.9011456683433063 0.6824422556731601
Ni 3.230613281999039 6.485475645345411 9.495756789122945 0.2255261135644051 0.7715026980769423 -1.5977336409346998
Ni 3.538883319195983 4.603804381896105 12.563861382361655 -1.4867244621739686 -0.35941759623994873 -0.6797130296674552
Ni 6.023510723812127 8.810487201551487 2.7284525198525618 -0.8305115725109825 0.1579852903999537 -0.0013110055019396776
Ni 7.005844066967437 3.5141153427185587 7.429685022014108 -0.5099163484548702 0.3735054417915825 -0.15929038236462245
Ni 5.090324162264097 0.48099910682319247 5.080811702611376 -0.10150303904250907 -0.3062052738830275 -1.7842455780194366
Ni 1.9581249012776745 8.139416808575616 10.530622704609385 0.6118220222524366 1.7167592622420045 -0.4137930856670357
Ni 3.3899604168595956 0.41830638252517327 6.550045658096227 -1.1000313180475185 0.3474169722346468 0.10036224056984651
Ni 5.986669169575599 1.319170410460708 7.0507711192489335 0.899799717383844 -0.527253297071421 1.1642991268876528
P 5.206686395187216 1.1031617805910048 9.378664396623913 0.6009529407484167 -1.4459395669471227 -1.9685149989269
P 2.3083883800742018 4.619954992820217 3.817009255728372 0.12736319463872256 -1.0695966557067451 -1.1399914033802236
P 5.687637318891185 4.2771691634876925 12.2543024467255 1.054488596420713 -1.9203556656128542 0.07935427085961173
P 3.9265072473591305 4.5259330484444495 9.534488604190523 -0.160861069285852 -2.1691389499329867 0.29613014903521256
P 8.807216309035015 4.418419830686292 10.900695004997171 1.2973948531347785 -1.1871225525400717 -2.6039096662929544
P 5.048970073592662 3.4801555096509342 6.21103015784289 0.27339825465533557 -0.7496853450915347 0.02009214276418475
P 7.523432693249684 7.66649022741914 8.294677644286699 2.3276536304738493 -0.7969494202848211 -0.5841307269847553
P 7.6331604812951985 2.4995178416528896 13.24000768162796 -0.22811238623434263 -0.7192910490703934 0.5754429694027703
Ni 7.9621863236958195 0.6228029532944079 8.987572210475168 -0.06246649396533758 -0.5215459622739985 -0.503191885246843
Ni 4.378863343001248 7.690090689853856 12.26658914212732 -0.6811482194520849 -0.05837612594604786 1.5260232597735912
Ni 5.069503495169157 5.750256841911924 10.840711654556989 -0.03605612229260888 0.9739559889822841 0.2322330932709355
Ni 4.124743719023185 7.58922118295777 3.8955319878879813 0.2586930872346771 -0.35263296921794757 1.169146427677625
Ni 0.6501478000518068 8.479580364304283 1.0536341670221756 -1.0436858493782541 -1.984460980733195 0.2920248686175874
Ni 0.6239954854951729 4.196397576898202 12.729734550081563 0.044860607958116284 1.0183648541149624 -1.243575750431794
Ni 6.445826497815708 0.4833767584371495 0.7200957901866474 0.18394649035040578 2.026197184129717 -0.36460608241942366
Ni 5.220696563699698 5.671486707967073 0.2840431942123296 0.6803419215007057 -0.22773597673153037 -0.8493420749539243
Ni 0.29450171087902205 5.462205182819633 4.115435111028714 -0.4560203697673631 1.0537658593220756 2.3399381042681573
Ni 7.8781067806519935 9.231255556149257 12.493665990441574 1.3688581512820877 0.775667113867277 -0.8871002675393045
Ni 3.7000836509497246 7.33634320089814 7.029235118153224 -1.4595196196244027 1.5489086490121968 2.1506640310572513
Ni 1.0134114550540305 0.9039431145735626 2.955204132112061 0.26575359362588424 1.2191831805200422 -0.43996845851082295
Ni 7.304616470086804 7.619122514829318 0.8187090298652814 0.9474602566846007 -0.9253857933830644 0.5522323356142619
Ni 8.47451187080142 3.0313112221214036 9.258725493696947 1.0334016938434267 0.2566053514677129 -0.620526234894654
Ni 5.23259408775395 1.1706181475029576 12.499375690069478 -1.0870408193251215 0.031542036472339226 0.13442447236087818
Ni 4.6804433394137925 2.607049591379979 3.9319862239738335 -0.8313433243836585 -0.5616032353062006 0.050456613988655044
Ni 3.000705675430445 5.815415244676326 5.422566227872842 -1.549798764926634 -1.0183447995103043 0.5064183626039408
Ni 2.070308175206659 3.384827061465472 10.644486828120488 -0.012746243922074822 0.6069281844952451 0.4049387206001994
Ni 1.4037873806035583 6.121350253787857 2.275328274098219 0.45224521899564696 -0.2827668403544291 -0.7706370076425374
Ni 7.586710101167503 5.511342698442448 8.916956142860334 1.5939101534235516 0.14245685574705144 0.30465772689024956
Ni 4.52003988232412 2.712579888462428 10.560296093263071 -1.361632837178242 0.4079165722816007 0.8109333932687388
Ni 4.768312670104183 4.924861477656029 4.58229710535224 1.4278706252605537 -0.850579289795135 -1.1416443656026145
Ni -0.04963231919329435 1.4580953155583598 0.8930101795022146 1.496393095611984 0.2482446382078434 -2.3440289865080794
Ni 1.9989508288345512 7.7445283485911816 5.382165609002952 -0.9862944559429788 1.2332573992249214 0.9342843814242748
P 0.13194483899946857 0.3083191469146132 10.749047903227803 0.4944308512247613 -1.564506503450454 -0.5371481875876297
P 4.605778036587347 7.331700942680711 1.243028109710395 -2.4753822761428017 3.4708617410191582 0.6158367998387846
P 3.1282148876660743 1.4114781477102782 11.856591567872744 0.15569957968957057 -0.9592487646790965 -0.34758640793297557
P 5.062489144928451 1.6625214648456537 1.9987108398368838 0.16648381478926813 -0.9567550517229652 0.9951233670885183
P -0.5255036302130426 7.153960828655288 5.561221492822536 1.2954976361120656 0.1977124337862466 -0.03863339610148185
P 8.2453455429901 1.275564687564053 6.537961887754211 0.39602007795433086 0.3059857016730537 0.995816279390485
P 5.1869127843369265 6.627449059332354 5.913662477968556 2.603751543448535 -0.2956508954059489 -1.9245028550120082
P 2.2428037420243667 8.784394189295435 8.164051354876731 0.25518944495679274 -0.3407125636312777 0.8748808426549772
Ni 2.277439991958004 2.704722333635321 5.636136050631113 0.9013279811029122 1.1995546076558374 -0.3767967109483446
Ni 6.790428460103553 7.282081595865669 10.280070484650704 -0.812837038049355 1.3902258183245864 0.8044876376433951
Ni 3.523158943557304 0.11232689668820676 0.2762440150873584 1.357467907167275 0.28692868504160257 0.7084520494733605
Ni 3.5206941916893673 4.769646971867276 7.541609774976494 -0.562166049788206 -0.13164690961574102 -1.4356363852489018
Ni 9.028562145957093 3.3108289095205743 5.753322956171699 0.1588980320222102 -1.169913901971269 1.098606926896166
Ni 2.268822626404691 1.2333210643838892 9.742769403015643 0.19309576094984163 -0.8443551632622941 0.09005340244467071
Ni 7.512758279144935 5.602640443385232 11.868132351525057 -1.3087573293354493 1.375526821551515 0.9828185815792365
Ni 7.159742802962028 5.858168497002116 4.780528017425615 -0.9039913868676882 -0.6218256704323678 0.44737503538753925
Ni 1.4764419648008966 6.319262415995603 7.406331961364632 0.2604198401177967 1.246637677186569 0.3839119818368872
Ni 7.765293419779325 1.917493559394582 2.4326582041405427 -1.830109430431087 1.5009768583279246 0.8292738434491395
Ni 6.49710445585015 3.9376449606871753 10.13628927709446 -0.2273402839550085 -0.3706476606278133 0.5332100288754882
Ni 0.9700929776758193 0.6612243578823767 5.236824936261091 1.122890482033879 0.8115946810018215 1.6071708750881997
Ni 0.03491052307382865 3.962811374496635 1.2950491996990054 0.8019455879478319 -0.5703868950361015 2.1998739171229986
Ni 1.5568243800428179 0.0008719291382437828 12.782720229053078 -0.9052383719009118 0.6252647780209039 -2.3761785746574304
Ni 7.37784554532103 4.9288087870385136 0.6490099371593909 -0.3861300725341285 -0.7385288142540829 -0.8056939992466705
Ni 3.679967198674196 4.942225932545177 1.9189538785464122 -2.2158798056329516 -0.2749969666010232 1.387815666221197
Ni 5.628983637221864 6.304242255176334 2.6831835527442722 1.7209560739321714 0.4486397610325757 0.6617363905843765
Ni 8.09899858433524 6.241196496870163 2.458723418443197 0.651396185000633 0.6197775296540875 0.5113307123038936
Ni 5.714564269749171 4.107583115792287 2.3431775187515265 1.8836320849395751 -1.7361762333160358 1.0766674465105974
Ni 9.542203462856854 8.600288343941921 7.331593457260906 -1.1488108014440666 -0.28025590100711734 -0.6119688322429461
Ni 6.899943130506351 8.239980537984327 4.722850043920555 -0.3456326266407144 -1.6606606194762237 1.6372201290650965
Ni -0.16610389073311052 7.555418871626066 9.942452294854828 -1.2098061101805164 0.6176468564643299 -1.7555160712952282
Ni 4.040200876756062 2.327652361778865 7.766856591358727 -1.2375452279669976 0.6696541027695564 1.0685077935179406
Ni 2.651674572567886 6.461940044801955 0.33749958519471224 -0.23314274956939848 1.3269450559880696 -0.9754564847872104
P 7.590518420783 4.284276173573059 3.2906392559677644 1.4591241839581968 -1.1077469415242212 0.3542190827581448
P 6.487347374207529 7.6266742921690485 12.495686901653592 -0.37317711191788633 -0.1285513014095528 -1.9535264959378678
P 0.06980158758027885 6.228789343670286 0.46409609796044743 -0.08867580537085373 -0.5301375605977515 0.6246798520517113
P 2.9404953083708474 0.09193895106782639 4.088677727686455 -0.5596345416156039 1.3180510959325495 1.010388520777705
P 8.30662149826328 8.917073820863052 2.428358787348352 -1.174332599864255 0.6811034822570786 0.10910373420790243
P 2.1613650045533292 2.8432210034475403 13.129221718156437 0.40304998821791876 0.22015739305332407 1.6097730885977373
P 2.615203657709995 6.450246372405955 11.631793225138662 0.6917265091885636 -0.9350454279600156 0.22379910357096938
P 1.2622309359175834 4.25051092617922 7.448494970479941 -0.6470384222525696 -1.1454377712067756 -0.24428745333230828
