# total energy = -340890.5795306513 ev
CRYSTAL
PRIMVEC
9.07119358367932 0.00000000000000 0.00000000000000
0.00000000000000 9.07119358367932 0.00000000000000
0.00000000000000 0.00000000000000 13.27660874001317
PRIMCOORD
 96 1
Ni 5.953315293492726 2.099681894288606 11.630162386760926 2.2405204869997672 0.6590215627563747 -1.2316530308522788
Ni 4.632930542453222 0.40648652058564916 6.06944108134985 -0.2138707887136639 -0.36009842435705725 -0.15742684679332242
Ni 2.7503041609009355 1.8504236454183038 4.838978162147686 0.21981646477413755 -2.7755585702229295 1.5619809088151229
Ni 3.246416792423088 4.101240690897976 5.008255699893109 1.276379684335692 0.5484175898538619 -1.9484287696999862
Ni 5.144083212428936 4.491111506757818 2.498126802034037 0.5378590976117253 0.5946722499460275 -0.10083763754436828
Ni 7.506793426982601 6.047356354197233 2.307447597989768 0.011078369301348662 -0.3373351625186126 1.0593770348612657
Ni 5.2802962506790445 4.618080999058481 11.772833207505059 -0.13252596978658465 -0.4143594996934671 -1.3218344742343815
Ni 5.661622002471784 7.805190329835378 12.400484491381588 -0.820218932335723 0.8159344460277561 0.322098033853884
Ni 1.7552214719743184 6.280513235000544 0.6524845825921339 0.6791322174633206 1.1355364529326637 -1.2319800751743943
Ni 2.6566985174737336 1.4941162446840213 0.5373266910576844 0.299376166776336 0.21775701114194757 -0.0014225913791394854
Ni 0.332925492943028 -0.02665932992229901 4.739947945140732 0.5934702592181262 -0.8132581847471736 0.6281127889926601
Ni 8.874557020508808 2.166808724539725 1.5359571236750056 -0.4334481408938019 1.1142528609635391 -0.8449709424694222
Ni 6.9311989999658135 0.32643414703387924 4.770471603399109 -0.8650278611202973 1.2143173677873087 -0.6739979815605489
Ni 0.579468733665471 7.391008715992699 2.6109116694071766 0.9970213554421797 0.8201546547566908 -0.2248897655319869
Ni 7.699347646677263 4.041742734192964 3.7575059640458623 0.4327367166490741 -0.8808476017613734 -0.8763404579196391
Ni 7.5891145059729945 4.004895547101066 12.510123468926201 0.17317613920777916 -1.3155100746782507 -0.6000908498584375
Ni 7.508707448764086 8.900645772373972 7.034053632058426 0.4395771366096752 -0.13166053646249584 0.5058043831690258
Ni 6.696191595733958 0.767245155861043 0.4073011137419398 0.21316219268241351 -0.1832260672446135 -0.16928246058032784
Ni 2.1561410012457634 6.429788791569789 9.116675333150644 -0.9694850976951239 0.1615598951250895 0.9767772604811629
Ni -0.05162597517907657 4.735253602619792 1.003576047192039 0.5384589359792533 -0.7581514735810169 1.4432887595878368
Ni 6.198808997153 2.211194073244958 6.918918418507169 0.5692250135175164 -0.8126118094124263 0.5719588675089117
Ni 3.525918399679503 4.366500524709221 0.4087352693990616 -0.9335462177066698 0.809178358250845 -0.1013261471450126
Ni 5.998272127374422 5.4931064449616445 4.8200329749883 0.27934547337770604 0.9299204480286244 0.18271955992184014
Ni 5.250579021503008 3.009386512090422 9.14646785323088 0.6488551637463341 -0.8683713236712335 0.20104329793169243
P 0.2441656809644947 5.61492349948087 12.315076485318972 0.4074136645032532 -0.2699429491168835 0.3109520445393935
P 4.074761877721893 6.273909406294758 12.511012445867367 -0.5292852398997853 -0.26749371624544255 0.9325504294523036
P 2.577407217037919 8.444818310195767 1.7390366489291773 -0.7102482221418348 -0.5451790283119062 -0.7554795831758085
P 6.366335794595926 7.546107978645892 5.662579920481853 0.4751205809319236 0.007572413030619216 0.726126326824672
P 4.491211289883867 1.0910831273789938 12.715910745373613 -0.08250875732819338 -0.9150389029311015 0.7933493616383884
P 4.015726551874017 6.183052334430542 8.1247793544223 0.4475467850787131 -0.7122061171991542 0.06384589081136746
P 4.7848639586526795 1.2695769974940292 3.9904043158407743 -0.06661985401207882 -1.5191252471021772 0.27348772904534835
P 0.4013993953958076 5.44030302889519 3.3884689577857157 -0.13256427922368783 -0.7595966906679757 0.49996129412468737
Ni 1.5180551237424944 1.0057050562541925 2.7521084212437663 0.34822841239234864 -0.5827562152347319 0.05198230660456208
Ni 2.140021490792218 6.480533046762323 4.77691033638725 -1.1294676210307644 0.49838597921776745 -0.9862648882566241
Ni 6.057951507944977 5.653675637160976 9.194382803240263 -0.24200997015204126 -0.521315077210115 0.49902207013986966
Ni 8.88766489479433 2.4199313017461055 10.369137710288621 -1.1334587444680284 0.09806778810871498 -0.17822835691970595
Ni 2.4162756108554024 5.265219927452374 6.679009848547654 -0.7127329362369016 1.2091329953728918 3.212096662895965
Ni 0.24279230230232995 0.24066601459815937 9.473324717871476 0.5161121928529369 0.09422707420638611 1.7801999471951533
Ni 1.9200178402408148 1.3379375100308444 11.484451809149613 -0.6791275894776304 -2.3273481834182888 -0.5470837015337868
Ni 4.12713894770432 6.653275780339627 1.608845975895788 0.24185878928615767 1.0910620246693725 -0.5826266316354031
Ni 5.421344234945887 7.8263171389779265 8.25203640354985 1.3117644915928892 0.9283034812504916 -0.5392626628274713
Ni 5.456068762810926 3.2162369323899167 4.60402246371751 -0.38615578356574143 -0.5344706407554667 1.147170437627166
Ni 0.49590762255408866 7.372185989942554 6.757262497353232 0.835804702589122 -0.10537100663834756 0.03522591308182966
Ni 5.045052995421982 4.63213227744483 7.055282945685006 0.7917341946324687 0.21328097764846493 -0.40109389293281245
Ni 8.15864030468735 7.464866371655484 9.057063079410339 -0.8878487156695548 -0.9304344115505653 0.30447980655148854
Ni 4.4933702338838355 0.5620520425732889 10.548092397022137 -1.0520661030221494 -0.9641361746783846 -0.4591152066426028
Ni 8.2564005546355 6.6216173158022755 4.7723302909016025 -0.049063590295870346 1.592363377761722 -0.7003260779321164
Ni 7.551478125065981 6.15081331352345 7.085779390363552 -1.301686538531597 -0.8102085992875725 -0.36582015733218287
Ni 2.4272336123342337 5.143520798445751 2.6747456564986796 -0.07559943180286981 -0.7381750304590899 -0.2618195486788007
Ni 2.4604432509219833 5.294574308897323 11.337878561057641 -0.47076281818386023 0.8056276647851094 0.9843905540520467
Ni 1.1897686390414155 3.1439939491304694 3.8316021920918373 -1.5980406306521577 1.166720334734636 -0.608197538125972
Ni 3.6043207231741543 2.6831591882632626 2.8084804447454625 -0.06312418215399451 0.33489878516297805 -1.047588783977086
Ni 1.1828926745373143 3.6790854981646572 8.24805324258184 -1.0111505957547102 -0.0519869345902524 0.29651941405383125
Ni 3.7557370813568127 2.7278983135063055 7.081530443432521 -0.8327363480764433 -0.6838386218000546 -0.07949748130569534
Ni 4.297532242222835 6.987304330385161 5.915697962091596 -0.6182461806112255 -0.13396655888785314 0.2594950143106821
Ni 0.7319427929842486 7.490991408293757 11.374123420915932 0.1790408255186723 0.18108151009778492 -0.18254601045845337
P 0.3626254868518371 5.772544553865119 8.25988207861528 -1.382347444017774 -0.13948851714734686 -1.6607331245853718
P 8.3653093011213 1.595459615976656 8.089370858584163 -0.876437902729452 0.7752212845791101 -0.05629558926793531
P 1.8529091523762506 3.3495381175980503 10.44801355007234 -0.7812916591429061 -0.1111937839677117 -0.6680512770588107
P 4.154152961283756 6.014210213962423 3.790365454573113 -0.974742232329005 0.16272511907778428 0.13956076514617902
P 6.941213597343818 3.721756391340503 10.324196297435497 -0.14822152614497053 0.9880160666197758 0.6832806924140555
P 6.285139543571905 7.841366248624765 10.294948048951891 0.007661116089683579 -0.19095737445060018 -0.559026989938592
P 2.235078525143768 8.456946495607355 5.855674783295836 0.6881081957096858 0.03896841084339741 -0.5749279774395647
P 7.019770131124181 3.7866789216252674 1.5035892918233784 0.5441413310760113 0.8913112202968585 -0.6578977335645766
Ni 5.255141831721429 2.913585639890143 0.5685497383177317 0.2881234766806522 -0.6611648343516227 -0.10773333622293704
Ni 1.1048259851939188 0.5557566344389273 7.387901832295265 0.33080224649610124 0.9916266667891696 -1.5577092780229624
Ni 6.649465879163213 0.8463740819371961 9.407034251640512 0.23720637811581086 -0.1010672370566711 -0.5437795768612184
Ni 2.5834123469874113 1.855267662628317 9.100995775571041 0.14192977959898784 -2.058285065803197 -0.10814522694937505
Ni 6.334613831705635 2.087698847969454 2.6861499606867483 1.2958056542707874 -0.6771085021650727 -0.13539146425983778
Ni 4.120598617351474 7.00356897993114 10.370438519404567 0.2406483139178243 0.4020595992801914 0.26231320048576756
Ni 8.318048384147202 7.255439732465271 0.22902041666891798 0.0012436425991139873 -0.11671934177163124 -0.19007368629406624
Ni 7.710487072021638 3.9270919223627088 8.28121843232253 0.36792023439432114 -0.7082569027434189 -0.47146344379531063
Ni 2.930521557738635 8.298418321895388 12.63606519502856 0.8655184276034706 -0.21414358275907638 -0.1915178749397605
Ni 9.254431381377199 4.884429376062988 10.178166413820826 -0.4733843149671073 -0.09087409857375317 0.835272998455368
Ni 8.641445495671883 2.3244388501172506 5.869031208277153 0.43334992475304074 -1.0469154120591453 0.7939903376564971
Ni 3.632105788182151 2.898717954108848 11.55439343067464 0.9511225360275363 0.39243698858876286 0.5072943374509908
Ni 1.163471249730876 3.35503526072402 12.400564317882427 -0.9459106528092935 1.1505303552383346 2.4528869232537627
Ni 3.110602886677176 8.26687778287064 7.966801802142258 -0.7385414126595732 0.8360281314538376 -0.20939886898523935
Ni 5.824495277763519 7.510730324864897 3.376108549826233 -0.29639677243303797 0.4013456039323023 0.4707720741552408
Ni 3.4713370297307216 8.424952396918748 3.8304338223977368 -0.27167510131664174 0.5001101609977258 0.23846364756167962
Ni 3.3262432932622565 4.17134287254401 9.305588375863845 1.5539197290735434 2.0608494840962637 -1.4332108065265445
Ni 7.377837343354236 6.130629908481728 11.263423113757888 0.10415204662958191 0.41042134098132543 0.03982021732073142
Ni 0.7249924446952746 9.032622563363638 0.3870759812111432 0.2193788630160867 -0.2169769384428134 0.35390720794468083
Ni 4.586467890487515 0.5114257128933575 1.7632394997120162 0.055531457408401146 -0.8703395031411978 0.17611156768701927
Ni 6.292886342630615 5.788328430167409 0.23367666017809358 -0.5938438405074611 -0.37317094127029926 1.1562160927692022
Ni 7.706722526811609 8.883183725315403 11.576060882936508 0.8371763861256679 0.8174891921093856 0.06788895053248953
Ni 0.024701766413083956 4.618316850083688 5.613071161813671 1.3849979942667439 0.9263957227048174 1.0116069665658385
Ni 8.012331028319743 9.12362477432029 2.387665067259183 -0.08277075274032841 -1.012287794682947 -0.08796206713328077
P 8.439829153893319 1.6432648045473852 3.774831943205273 0.2583436743150583 0.9302719178307721 -0.72881750050359
P 1.8760588376196092 3.232165947784641 1.5355461986195493 -0.7024639502107257 0.5536004196063821 0.19650864328613254
P 4.453983112674328 0.9364555667762143 8.259152754675796 1.4098669895942817 1.0481801377041817 -0.16498049077086427
P 8.972199344944354 1.5239423281793834 12.476586360261148 -1.2224045156708172 -0.3647351517981202 0.21592587147047973
P 6.52657842383728 7.750618031079874 1.3641977074489473 -0.8767050403479094 0.9866351271118491 -0.740802183669292
P 1.6869607425635527 3.2321115206249784 6.274777519491384 0.29692539124299827 -1.112027571177446 -1.4545874724301078
P 7.060708426384086 3.93721537406004 5.9854273176939365 -0.7034422549635949 0.7340445532304842 0.32742304561122315
P 2.1970157981527283 8.607038459571546 10.151241297935506 0.985517211457322 -0.1504244473335603 -0.07132137325280619
