# total energy = -381163.79319268285 ev
CRYSTAL
PRIMVEC
9.31199851255666 0.00000000000000 0.00000000000000

0.00000000000000 9.31199851255666 0.00000000000000

0.00000000000000 0.00000000000000 13.62905109436341

PRIMCOORD
 96 1
Ni 4.164055699534013 8.189129820845054 1.7013691798124229 0.12155944347275194 1.2888467064544513 0.5587212857727152
Ni 1.3316902873374172 7.164819293344295 0.4797681328251199 2.5112987875337525 2.1740986079311075 0.3494100914052756
Ni 0.7756596800618664 2.0032157501160768 5.764679298332264 1.0458532893432182 1.5473765286383867 0.8010593286881365
Ni 2.0671426200993737 2.6004873365295778 8.066339945685002 0.10779350003691114 3.0430797972721977 -0.021913512243639677
Ni 6.909735717313347 6.977154586749482 9.077070785713564 1.0766857013430426 -1.0775632188519895 0.13750336839651803
Ni 0.24574922869354754 0.39012152287184937 4.4328353630189214 2.6366356957710657 -0.7639210290749424 -1.1703458473023651
Ni 5.365852919224379 0.8057728209434376 6.522564235579256 -0.6949676418336805 -0.6612589367273257 -0.29122679819632424
Ni 4.833104170700793 3.933425431671476 11.962995088718017 -1.3161150552521013 -0.20408696985402272 0.9138664798895552
Ni 5.435786028266559 8.183645053704463 10.49900365091087 -1.0282312053860807 -1.911175798885799 0.2537797090934597
Ni 2.9914609072679195 0.19946300874613646 13.750895083771923 -0.48754029475251526 0.641668673300224 -0.12983428188703447
Ni 3.0607887364049406 5.192863922330028 13.225795210849835 -1.8392149922767809 0.43392508053022044 -0.058736080388627876
Ni 5.611754864693997 0.9002672573371021 12.530427307007047 -1.261075449878454 -0.9345929138036292 1.7207652980776043
Ni 2.3073921824546644 7.981788861333314 9.95764409733651 0.401338919064083 -0.06222018228248639 -0.6378670401659466
Ni 6.972740699441094 7.6643800790681045 6.350415180953295 -1.0912854535340883 -0.772548108622321 0.4175651511149583
Ni 1.084065622137732 0.8403547899247881 8.479954709675695 0.20123458800689215 -2.3202575951200948 -0.09826344905928883
Ni 4.229342121304282 2.1737370673970875 8.292037647920424 0.5343850230201957 0.31288679966826116 -0.006184274433840962
Ni 7.6664287187471025 1.1492589239225919 13.550179611222037 -1.3784931032686902 0.08765327764361033 0.4333172717428925
Ni 1.5628792751124094 4.294600607078929 4.180657130532735 -1.3100377387097697 -0.4993524568960948 0.6268544911055269
Ni 8.742672262110476 9.004637405063152 7.0744044435114 1.257594690418705 -1.2570671000500093 -1.7553751748419897
Ni 8.549345860402795 9.24434687150307 9.302699579159782 -0.9672932322501276 -0.6808304311013501 1.3086030631457721
Ni 3.534806710131053 6.081489319091295 11.119560820875751 -1.4235033494307936 0.7976240777543425 -1.2510509757629165
Ni 6.07401178426295 2.915745047131839 9.416365558149458 -1.3470248574570802 -0.021899628286568735 -1.7149615469116335
Ni 5.180776948223937 2.347331344196596 4.318473777738241 -0.6634420604215736 -2.2536634521396284 -0.030065194816496606
Ni 1.7134170435246427 9.11025409251407 2.044779855603396 -0.17962575148786483 0.03281396120622736 -1.4063576908894426
P 7.124051363732224 5.249387753473308 6.506522455692842 0.15432481082923097 0.508242560296873 0.655461099098626
Ni 8.06623937610076 4.007930731997239 2.47736595422147 0.1325881904830878 1.4008768702805292 -0.16613517320059776
P 4.123902361825642 0.538505426021572 3.2743389365437543 0.3783221464539355 -0.34451779630998086 -0.3559926297187998
Ni 2.659590591268687 2.0385454725802616 1.5594496660497947 0.6129800471162797 -4.123710856416233 1.951803085488858
P 0.8075476878653336 6.059606122520172 12.546141304544822 -0.2641384266199645 -1.4507704126768628 -2.97282646027259
P 2.6018468883165493 0.5156556440019049 11.164877661775055 0.10600684045013356 0.7083440631405865 -0.10553118636529565
P 3.6956807969236882 3.48856332537693 0.6086582982293168 2.319287003676709 0.8910070587928783 -0.03558432486251291
Ni 5.436149196209654 3.4918690848589504 2.22135769673541 0.356323016475025 1.2395388613582587 1.0357848493636226
Ni 6.410174931589538 3.9904986707286687 0.16415749747815783 0.7386018335838633 -0.2896913353884043 -0.07164661780270887
Ni 3.0648953277614783 1.4548694040364787 6.335750645651081 -0.11116035962661501 -1.1447901103204479 0.13384545992895658
Ni 7.5170828861481045 5.814514320923614 12.621905587073314 0.9067856617833737 -0.12842068936895948 -0.49324788666025376
Ni 7.403811735896563 8.275377551330894 12.048149590575155 -1.327037872812192 -1.241962640308403 0.2312311343689824
Ni 0.844501422875052 2.4216224685559182 10.637733805173237 -0.6584656902529046 -1.1523383549813508 -0.8058909457488249
Ni 4.561380053277252 6.002579443455685 1.1976347563425818 0.5045579123564343 -1.2226312869696427 1.3235460576088496
Ni 7.250862159862236 1.0533174029556713 7.800464694545002 -1.3282023254339383 1.9827506829103076 1.1651766443965998
Ni 9.174646562424412 5.499629090262988 0.727142305264055 -1.5833570604980536 -0.7389571600407532 1.7192630025004647
Ni 6.355885980096075 4.15101890157675 4.819736796795326 -0.15733017331445806 -0.8534116170376077 0.04630376816254606
Ni 6.974621723146357 3.4837117741371197 11.24697875931063 2.3320905831992804 0.645401657980095 2.1898139617838352
Ni 6.926301762717613 6.694339879063726 1.6244734894612105 0.35630141920847025 -0.5202272434625751 -0.5389217345482847
Ni 2.3842254824156526 6.367833274224053 5.117626698918951 0.26382963713029406 -0.3001693521015927 0.7660450173964808
Ni 8.980426208856803 0.8017165143790204 1.846518094669036 0.9736847375987683 1.5544632602818391 0.6040457207411274
Ni 4.313084924182621 1.996781159124313 10.79423590865092 -0.78349098078707 -0.6739992671121295 -1.7707079485443182
Ni 9.195496127157494 4.95346175184196 10.866687913298414 -0.9736649401044263 0.29178935556801355 0.3992642959232414
Ni -0.06811447572714119 7.234445106434625 9.895344964698163 0.8406787428519715 -1.201435626728634 0.4624733244815583
Ni 8.91157329164537 8.10882314542831 2.777573612781925 0.037845095872231595 -3.2252797372451423 0.9982950799482808
Ni 3.151226866234188 4.246560006606412 2.746908270386878 2.9954020315802605 0.6684104601704424 -0.27457324880004325
Ni 7.260900494289329 6.068396649142786 3.963845868504897 0.1334929616855443 1.9970375318466251 -0.3099850526404339
Ni 3.969239378059788 4.3663029958438795 9.448094330777876 -1.0841573271297393 -0.8680437651284857 -0.8602648925140153
Ni 3.7119395463761045 8.432070550778667 6.347812477361113 -1.2547376805858843 -1.4612965090191672 -0.8425998711340844
Ni 6.860251757066989 9.162922756261416 1.9554144680060608 -1.3563546194984384 -0.12083773481537899 -0.029561001486568445
Ni 8.442499989144476 0.811666384819975 11.498912086235194 1.9022712973073173 0.22775346023302712 0.4934934270121565
Ni 8.387326397789627 3.0021603935914167 6.889131058141891 -0.6855915999354193 0.0018187983762936418 0.18752186640648993
P 3.1673459357084903 5.306218880568438 7.326432752821078 0.3173363507991825 0.11138198871911786 0.29055291205775124
Ni 8.695385933519772 6.290022214416271 7.634735331713141 -0.6937713075327342 -0.695804278802363 -0.1272696064836518
P 0.5418465710980479 2.4197507568491967 3.267319552043622 0.6948079763273647 0.08728972365660449 0.9481254010724253
Ni 2.792668362416728 2.0286840661254457 4.14854656596414 -1.0951683335282623 0.018779337490032175 -0.9532917757647132
P 1.4110285149059085 8.825325561159529 6.327218992587905 1.4700169196113007 2.4448139164376412 -2.4811914266254105
P 8.034168853125891 1.9747024105838324 9.862130928302472 0.5518860080184367 1.7478973784077059 -1.3910323733862817
P 7.028072594771139 1.7251036016934758 5.573246025927948 0.528249085325787 0.4559537781954857 -0.34762523159071096
Ni 1.4302764158899546 3.664429729820419 1.347996527982392 -3.192884094523256 2.627040852993779 -0.406055607813462
Ni -0.031254791902685916 7.258805294617626 5.28579580536853 0.2858609058987206 -0.31279012618939683 -0.5531952137481634
Ni 4.276572577903742 6.657138444892819 8.740160816103995 -0.2950618556716983 0.5611941727932399 -0.7686379749346375
Ni 8.721440905437218 4.499734622936475 5.028996959206347 0.10797939079547209 0.12974506460733784 0.11137119008584047
Ni 3.7388419101607724 3.693231741307431 5.806970670905628 -1.4339245447641176 0.15397642635087674 -0.602113536715421
Ni 4.905020735432185 1.6082473320036874 1.0065152982890941 0.6160414596504229 -0.9111110286316051 0.22113338381334816
Ni 5.349687289757371 4.034646855811088 7.391879340966251 1.10556870292598 0.6670819711670061 0.4185329143448662
Ni 4.820784396631179 5.913156321467396 5.919383254891697 0.25629784752962315 0.5732863280710837 0.10347327539500244
Ni 1.3445222213267811 7.311017670436468 7.599968053960826 1.7761597156875089 -1.507046204450456 1.7343373803350841
Ni 7.563680126846781 1.9822637533990455 3.391603071769634 -0.6047136933424295 0.3293115208831877 0.7099384042108999
Ni 8.70692349971195 8.304281994801858 0.42219390824642655 -0.6455214713874108 -0.20789065987082905 -0.8187477471068351
Ni 2.5559294235113583 8.357500066463116 3.85845266901896 1.065709404837197 0.5118482753702603 2.392809241235576
Ni 3.7643940341570095 9.292275727993097 8.471014259876576 0.27367130581106414 -0.6926829595645618 0.7917033413945334
Ni 7.547328257408956 4.404044525930159 8.612088244171689 0.7391114262304304 0.9820071414215346 0.4451219776873044
Ni 0.8086204300972456 1.2514674199075404 13.221460475529046 0.17414467376863557 -0.3310603852534944 0.45520738694776436
Ni 5.249974409381386 6.215852146037981 12.550571022250729 0.6413388007646309 1.6500805299675323 2.046763695427159
Ni 5.6344482051381775 5.5289246376726675 10.487800385466308 2.4959616429560496 -0.23811783418648666 -1.4339111750276787
Ni 7.521776133412719 9.17730048200857 4.4053184073305545 -2.850458404855613 -1.3254265624610142 1.0239678021240366
Ni 1.153942859188666 4.666447332814257 8.993197614855653 0.18786459445788936 0.45328523022438716 -0.23195104325414248
Ni 2.8773796131433205 2.4052240391253883 12.426137579348207 -0.7864624047105682 -0.21728675637374834 1.515523902904164
Ni 1.2353762864288604 4.522660763344177 6.718836022425424 0.10478248112472921 0.1409717865610927 -0.9503013256778216
Ni 2.26567442899142 6.560302972065972 2.367979769761194 -0.01018773916627923 -1.0456414304427282 1.1617262239541541
Ni 1.1904365814704638 8.408902298408899 11.990062274876859 -1.2119995182874095 -0.3081184317453403 0.5632857652149461
Ni 3.7604643707727488 8.23345493389975 12.158504222883685 0.39483994160330066 -0.6327803696716585 -0.37942026461412076
Ni 5.251743689104157 7.794114842739961 4.575695388634181 -0.18922419380957733 0.5953201679426716 -1.6599317117299992
P 5.872621191818846 8.064861200316708 13.879007697297956 0.04971536494725631 0.032207180860163886 -0.8242571069608384
Ni 6.258547659348019 0.8802902268673035 10.521055394655582 1.3240955023544163 0.21291408122734945 -2.2470076373860075
P 0.20986544231617887 5.88524826184031 3.207883858956602 -0.30768005865634107 0.2550968852429865 0.07739457603007961
Ni 0.3485341373881778 3.5901479174596376 12.759108573574975 -0.2754014011282934 0.29625304776632205 0.15220725026559595
P 5.022677836996491 5.519668511123011 3.6577651324646947 -0.13631500451537168 0.37154934650647625 -0.7068111714358278
P 8.70867415543764 2.657914431531325 0.9014815419468358 -0.2421621794591894 2.4213631416138686 -1.1000757981322087
P 5.937460637659152 8.615935961968791 8.39251038737735 -1.285382916275567 1.3768985050880609 -1.1328725329472555
Ni 2.1709248438377347 4.145254774479931 11.080104951858093 0.7106652550745953 1.2237301764607764 0.27336097365949696
