# total energy = -340874.6998173831 ev
CRYSTAL
PRIMVEC
9.14696783879703 0.00000000000000 0.00000000000000

0.00000000000000 9.14696783879703 0.00000000000000

0.00000000000000 0.00000000000000 13.38751202176110

PRIMCOORD
 96 1
Ni 2.3667504641955164 5.486470166535285 3.290141431958503 -0.6087945482800224 0.7463213137153082 -0.2888721819212186
Ni 0.8541676305340129 0.15605458737510722 6.070982443733325 0.18337724811049708 -0.38699242053442384 0.2285625863978838
Ni 7.839930086591251 7.450250966540943 11.11273252648442 0.4024768893232681 0.12779976795550893 0.4946162277626901
Ni 2.0997138877261317 0.46256490316605225 8.120489540181016 0.25077383238760037 0.3807253565787895 0.23576270369074878
Ni 7.215484892290643 7.592413139298604 5.895659768794582 -0.3639537935474055 0.1380705537538977 -0.0665316651736467
Ni 0.9705847478648496 6.9342064870357945 12.305412968873414 -2.2391066373713757 -1.1303497665254016 -0.6191350109740821
Ni 8.864372180563237 2.8002527067321186 0.5635712092330807 -0.6181731612814451 0.2184388677003206 -1.3804846797774224
Ni 5.3903721233624635 2.231741220217709 2.879373063065698 -0.08910209427499494 -2.0682406343540123 -0.05787116128517131
Ni 3.5936332483922206 6.363856460003801 9.391192702773687 -0.4648446529272124 -0.27638973318349175 -0.5481807912527076
Ni 3.1792115805803958 6.338940119855051 12.338426204873732 0.8399300376114052 -0.47956061898114827 0.35591575373427736
Ni 8.516266028932924 1.388436528582615 8.569734628910721 -0.21380368292115434 0.39711716767325156 -0.44734392503928766
Ni 6.187722449025707 5.021877380619241 5.739922581200371 -0.3641553680352502 0.1026698056571006 0.9617710168803179
Ni 0.9347835160945828 7.111996099176489 7.921189918681363 -0.39101773964373304 1.625596171672923 0.47736566821235854
Ni 4.760676569573828 0.36614031324458507 1.426881234032393 -0.6860651971377281 -0.7559817196232077 0.13629777812419108
Ni 5.807409823950552 6.02014999986084 1.6763711822685374 -0.6036492566336572 -0.16647738703136492 -0.9378047358727075
Ni 9.023090364946905 0.36764681883287403 3.9332647344029246 0.34228556454535247 1.4888613060113132 -1.1261519263939703
Ni 6.95108264253302 3.2996314109982707 4.296427709645154 0.5947190440235628 -1.4565857338070594 0.2618324041946071
Ni 7.095522410260227 3.594538798199389 1.8458571770865317 0.39652761371836875 2.4968725848060935 3.466582911138146
Ni 4.444593952033373 3.790320495902709 0.8358865007905139 -0.6386859365228161 0.35707197882590763 0.5820723017938298
Ni 0.21844239560512319 0.22824154215481327 1.1887344405019993 0.3656134406380155 -1.9472563466584403 0.5389826696932073
Ni 3.442845485047088 5.390006244652496 6.838005997824182 0.07437918624252352 0.4680359061710004 0.79895050987525
Ni 2.5503575478246856 8.73379921594378 -0.03790686374612676 0.8672899176815967 -1.1661402938614498 1.2522995034580366
Ni 4.954647167662812 4.359728385256537 3.254035606162189 -0.25742399071426636 1.9546780930438077 0.6006621489808752
Ni 6.722134039771196 0.15787026047331826 4.033871317979314 0.5711250587537068 -1.2923704033369936 -2.0828000202254255
P 1.6662116451895297 0.5720495336397902 11.734408933647353 -0.6610288229943906 1.8459260857483695 0.9446287007730765
P 6.359786059355419 4.312868469477519 13.359732718301302 -0.5761399954697948 0.42615494966649825 -0.7630566241921181
P 2.838935233343375 7.639611492884342 6.983301007035935 0.6602832030776177 -0.13126150125186425 -0.06999596957316333
P 0.7633409848750401 2.3776170618815353 5.171194311550306 -0.1786037379812537 -2.976623722531493 0.15570035102051893
P 1.3527816482963346 7.996663378973348 2.6668322910523425 0.8601391655694284 1.1532989191224072 1.2794374973254095
P 3.5658264664347317 4.687034332225229 4.87732510518872 0.6261559223766056 0.2745729916897271 0.7849457109557255
P 6.018951747085699 7.071648824434883 9.850464697550038 -0.678688959278315 2.419746174835736 -0.6067296953311937
P 0.0018101849175615283 4.818247584587129 2.8154604553118947 2.230864966187874 -0.12470081731521103 -2.7054469010075084
Ni 6.077574663390155 2.4015638234488725 9.67894350240785 -0.8831291987066984 0.028809468032524575 -1.4158661446005099
Ni 0.462955478688942 2.7146828234385962 2.8508436706560243 -0.16180517836667618 -0.5599950102788162 0.9018825680548017
Ni 7.7950184749428075 2.5356400767162643 11.1589192254371 0.3120465631551529 1.19972378624385 0.8356998015801415
Ni 8.311520302835413 5.140696491681011 11.024482581640392 -0.7776334935650284 0.2283828662869099 -0.9541122147834794
Ni 1.0780524719498947 4.8669094530127355 7.532684354593273 -0.9607029806271197 -0.6467406885064927 1.061065221196966
Ni 6.235250093450415 9.046982244707747 7.926370761214495 1.4922243089462752 -0.15225224457091843 -0.36110603968596516
Ni 5.6132379925710865 6.3635729040035764 12.028411685738078 1.1456257188478658 -0.37569627879531425 -0.0701036987956212
Ni 7.797863181912801 5.838152782555525 7.85146807171006 -0.08550974893804628 0.23087992167715077 -0.34937769550544345
Ni 0.7949620523839346 4.419522113432888 4.895425124970785 -0.8894975641268875 -2.207943324394694 -1.9565066616121145
Ni 2.605285089158475 8.124291019977571 4.7963570613698066 -1.0587563705581313 -0.7319244215636879 0.1423496407452258
Ni 1.6730901649369085 1.7746489478559873 0.3654039823407766 1.4901422296062659 0.5398912975504057 -0.032241376532208994
Ni 1.4819459798824202 6.210086785172438 5.62560652236152 1.0529955568149543 3.340143513865273 1.3222980441343615
Ni 6.409234567007453 2.215660850914661 7.22952457308885 1.0790549729061674 -0.37327815627212485 2.110105392908598
Ni 4.638345022896376 8.848804041454144 11.893157303024593 -0.25673236396388044 -0.6027208312821167 -0.8606274180597565
Ni 4.411134344006895 0.10473095133449209 4.038155757673027 0.44496179796035623 0.8010755266380527 -0.5142717972100885
Ni 1.717114520713683 4.179505679694563 1.3039734283867424 -0.40627389447185513 -0.5430820365735615 0.41363779103609405
Ni 2.3510725614734325 3.122418057825775 6.666645789314382 -1.6351105389212612 1.7231173432495486 0.4406480010763508
Ni 7.6552893956064265 7.545534929584088 2.110273147295778 0.31476627607916113 0.6095406824174276 0.08512973989080823
Ni 6.498454090432896 1.9906271503494828 0.5792198416583675 -0.9849178873104264 -2.280455375521492 -2.2152503995790687
Ni 5.418233787126447 6.801209575962805 7.286581528514648 0.05077028857433192 -0.018281057697374967 2.9146596221238705
Ni 5.0737589816925555 3.413611776120728 11.666507333258137 1.0137268411223188 0.8946258864923883 1.1160130381877553
Ni 2.363850875419028 8.010731415371577 10.991522398053018 1.7795404592342836 -0.6618711163900278 -3.138980916746897
Ni 7.717040574881099 0.9034972276053082 5.978300793014819 0.9992528158758597 0.7385894922886893 -0.25442711286947156
Ni 7.492555692380872 5.520560915336456 3.7108845691817822 -2.288739469907155 0.4313958863504635 -0.3392609187864157
P 5.948392037868571 1.408587298534045 11.773633875446137 0.5157154716351504 -0.7947380144557991 -0.06153652595190047
P 3.1855961640693193 5.758629044944207 1.0542776733762416 -0.06046463304396038 -1.1062698427580626 0.9094943189637885
P 3.340417740191838 1.9440599375384384 2.0021294622940693 0.16408394709852386 0.07506412812469009 -1.898370933811647
P 5.70046347702721 1.656122539762191 5.13101808510561 -0.6712957521380375 0.1853433706979324 -0.1945782590326391
P 3.665144242255263 4.785153855270618 10.833616464405475 -0.07259818308270079 -0.25814749914385215 0.25456800932270995
P 6.216892129177823 4.231652542832603 8.140785746919658 0.3915077919062741 -0.3387454126025779 -1.9279892708987116
P 8.35839851254993 5.742804790738136 5.673253077366968 0.7153179233552583 -0.14758646366413292 1.531786901730246
P 7.950224223710791 1.3459305694522035 2.23244828082472 -1.8862211858229903 0.7155979164895224 0.5007565363324731
Ni 0.44110794622003996 8.994963439118195 9.89456314376558 -0.40948597365124967 -1.0782831277371496 0.2733828280363679
Ni 3.518307968977773 3.6679249204510116 8.658132754632287 0.8770950766974766 0.3648444236824749 0.553060487942512
Ni 2.9130439660471827 1.3770577007026423 5.646169820558438 0.6595905478859673 -2.1953947983057223 -0.5953898448383423
Ni 3.6186502051862117 1.9190429807444473 10.36036790290839 -0.5138244252600248 -0.929588261500186 0.12395494028812201
Ni 8.443995836746701 0.6271691612963124 12.33391492037984 0.38015482878730017 -0.5158013464807375 -0.12628281709035025
Ni 4.697937517782245 6.853731464778562 5.1515146104379586 -1.4416625368383236 -0.28358342271845355 -0.8452920732542668
Ni 8.17890756440789 3.569704780760382 6.383151988470683 0.7546550303919842 -0.0851204839194276 0.4339428211420333
Ni 2.4640742010467274 3.7794721921521885 12.481645767103199 0.6657480828469308 0.14357657117379144 -1.1059937062785405
Ni 2.8528569182576176 2.9930067581104614 3.7861485639123105 -0.33556238688890594 0.9211696984191877 0.5763690807614654
Ni 8.288158947204023 3.736179593795348 8.981440561997815 0.16638714131040377 0.020697380448351455 0.19238999313206864
Ni 4.126681940943083 8.667730667891496 9.291468801585093 0.9294977586689088 0.3055812671457834 0.03530844549330693
Ni 4.557540709800174 8.982404652398579 6.49280949663488 -1.1128359260113543 -0.019282245268379693 -0.4822949871931759
Ni 9.039673817476157 7.286995886153685 4.156273296308436 0.5475567845154635 -0.6540017409442801 0.2518279846837276
Ni 4.688113674419632 3.140327820678657 6.426179324762797 -2.029934796795278 1.4302152142333304 -1.132759661518475
Ni 1.6938903695985301 4.471330538764208 10.15472211518436 -1.542454408746421 1.172613303180303 -0.1261699456615698
Ni 3.590541573293 7.467081387199422 2.4887783315436964 0.4311498317779284 -0.09472535399904332 -0.5085492929040145
Ni 0.9010065082872081 6.566114210873535 1.1952626313845847 0.795387732224656 0.08560205154153645 1.0092839748596167
Ni 8.110049191192108 5.410303366087913 0.5736465942087959 0.35737228367514584 0.18642194847409183 -0.8810365778437277
Ni 2.1478818198932816 0.8168132436399362 3.4192646021897173 -0.13476848596385824 -0.8099684582523082 -1.173127266702244
Ni 6.7812051574953625 0.06017698612504062 10.050045130959589 -0.03795539619785076 0.7380598450374644 1.928841334486362
Ni 0.9615749846319133 2.1747373172048565 10.615440245561855 -0.1788446503474662 0.50296562816865 0.07835102640607798
Ni 5.677669233396268 5.029094338173339 10.000725595552817 0.5777803592866952 -0.8529246500988601 -0.4167922775046757
Ni 6.505460667728763 8.542801382373279 0.10851230780200062 -0.2521902531191528 0.7244702792784877 -0.644224092732226
Ni 3.95418842312916 1.8149138998878511 12.942939241752116 0.15822131767015976 -1.0593680360002014 0.42127833830048733
P 4.183685843955935 1.4579626304440862 8.092001309126212 0.23384517495306176 0.35831073632901517 0.47785854868837707
P 5.972329652468159 7.135101339710903 3.568052838384881 0.17307072397816645 1.4141525043435128 -0.9869757982807195
P 8.358307042872438 7.6591036811578315 13.310372936236433 0.8785166396353515 -0.4168557837527595 0.40403652050090416
P 4.647665783032784 7.451293720864348 0.27613049180561355 -0.5691303969211812 1.121226206957579 0.7904712687596451
P 1.2900517434724996 2.917955887728489 8.616296353541115 -0.32073046408239597 -0.5246176592207868 -0.921284369620181
P 0.3541257711060451 4.072047102577267 12.261207503135205 0.5811983838293087 -1.464595234375097 1.1025322300925011
P 8.425345169506135 8.653305899751048 7.467901870206523 0.0685515238171529 -0.45892340234677087 0.7683726370883928
P 0.5845287417399881 6.693348532264546 10.005772892356811 0.12855335829208184 -0.2523542895008428 0.6734426232777112
