# total energy = -340852.5483772858 ev
CRYSTAL
PRIMVEC
9.43078493559922 0.00000000000000 0.00000000000000
0.00000000000000 9.43078493559922 0.00000000000000
0.00000000000000 0.00000000000000 13.80290703159563
PRIMCOORD
 96 1
Ni 9.326961552783814 4.819102876151422 12.314305127157818 -2.4279857891367085 -3.0672944468451884 0.8428729222898128
Ni 7.0993063816602975 4.880204932591255 11.329094588320313 0.9566221256895268 -0.39515258774771306 -0.31407002134308487
Ni 2.7274113333182375 4.319139236685257 12.239728365016298 -1.0448716421562394 -0.25121709057260605 -0.17462778405264118
Ni 3.773756936343305 7.107313118180967 1.3641111904169385 -0.9053954663040665 -0.46471146978345773 -1.9286695847951882
Ni 9.003023516566527 7.4960878017240535 1.4106294808313724 -1.2205756899921947 0.9581210788325565 0.6027979643769554
Ni 0.5373774499782962 3.8491277705873457 0.7237344782665055 -1.1032660229347322 0.5227453818987384 -0.4340788324992653
Ni 4.729199202121336 7.878044027664732 3.185144860339283 2.0496623571311927 -1.2988225867202405 1.0040031860766516
Ni 2.0066635846819985 8.99294200733143 0.5550705458398133 2.3536981341667267 -1.4060818115202367 -3.081769243422596
Ni 5.192741149664267 4.2038573200437215 12.663007461878786 0.617585149988459 1.3589496339191243 -0.8717438396878923
Ni 1.299430151044722 8.922456319751356 2.532667507871216 -3.783105250676465 -3.262394125598936 1.2538352233762728
Ni 7.026934537067109 2.7654268279175533 12.631054075919621 -0.006573282342143518 -0.6973993912036247 -1.1588478739650947
Ni 3.129587162439499 4.393604715563003 4.643242311641192 -0.5122097724747373 0.09695321488829753 -1.3172831074182731
Ni 2.2489970377269026 1.070950521261141 12.284835809984923 -0.7370380886411693 -0.6644905562907459 -0.6598772258884507
Ni 4.349544087736657 9.466716356670506 4.699048039188201 -0.9501807409395572 0.868186204243621 -0.6484422445786315
Ni 5.509794712783687 1.4889889308626927 2.9296667790699864 -1.7083527833458643 1.0116846138813091 1.5636541827524877
Ni 5.583213374519155 7.306613898971672 9.402319183928762 -0.5124635403567561 -0.24277024535683348 1.265062716660976
Ni 3.981451115842368 0.22040593468894584 11.082077807411844 -1.2754386605786614 2.968759746402384 -1.063208492792214
Ni 5.703512468815575 3.1466285910529854 10.69581737116724 -2.8990972489092393 -1.2818643615993472 0.3206600158557768
Ni 2.201654496697738 4.58012678258986 2.1366348921416676 1.3971593122196262 0.5109581594558232 0.4183989598701633
Ni 4.005386448338786 3.5232564234316164 0.5210386148521949 -0.9990890366044858 1.266146179533142 2.471578843236311
Ni 0.984621114770907 1.565312274398356 0.7218096550346226 -0.016654577837545512 0.9172641927171945 0.13440750308001367
Ni 7.771872249396536 1.6766521228824836 6.756081446905412 -0.3016377091170031 -0.09729414316748405 0.23246423544513511
Ni 7.433599419879582 1.2904520436622988 10.26352432993908 1.7237284944709863 1.0913579586432365 0.4931465851956991
Ni 8.61455061814554 8.47615384730829 12.905566310686758 0.07518985506927696 1.3620750669219832 0.5094810606896645
P 8.436176749415335 5.321084703621618 7.1848822684237925 1.3764315927539714 -0.17884593589904682 0.9646534806344355
P 9.543388639253596 9.140892163440105 10.783672678681084 -1.8970717553842487 0.8761049448700652 1.1766129112579995
P 3.8048879578447536 0.14269720882714998 2.1675669240782325 1.6228990844567341 -1.3623416903198085 -1.135524882968438
P 8.564331687671375 3.363706401692292 10.604345357580751 -0.5241368629296264 -1.2188671919415202 -0.34332608999472486
P 3.415792627609439 6.588685955070039 8.049400449227644 -0.25610372924094604 -0.2126366591962467 0.10742403251263435
P 8.060180779636097 4.6051749477240165 1.9180792774825866 0.16240295985167513 -0.5309567140649373 -0.6339494502790952
P 3.297351397970936 2.8221247077317644 10.882929805339202 2.1496800698774265 -1.8249476837244891 -0.4519204886663766
P 1.2773715447763523 6.414207000571916 5.466185819561982 -0.356202945957393 -0.19243550165802345 -0.5226962738283578
Ni 3.363168846943554 5.321584535230093 10.166531534775205 0.06763543976078673 0.27604649091146005 -1.415813951206336
Ni 5.699419508097117 1.1353344909037921 8.499567657390582 1.0779308866040533 -2.1988125657380198 -0.6530514612158689
Ni 0.24157333176861923 7.021426958588815 11.3161338604047 -0.16743229474546648 -0.9113282868487338 2.148882513676796
Ni 2.9662365343187496 7.713118458438031 10.519485267403732 -0.8280960210909546 -1.143313011554289 -0.2971740169186946
Ni 6.67976847723332 6.193092813924545 7.924981044936077 -0.0315633766285779 -0.5735573223442832 -1.880164695216265
Ni 6.62051485466634 0.2930616459126089 1.4354607379090198 2.758320351967772 -2.9545222626467633 0.3778634616499621
Ni 1.8898633116449055 8.733406802326927 4.904862663223695 -0.6926253668537491 2.1965924181582492 -1.484593788984211
Ni 3.5367707384305795 6.2495926472523795 12.628859532234863 2.4120688607961362 2.7038715861005884 0.5014183382861881
Ni 8.001662758304231 6.186821341855941 13.54450294195768 -0.060049399883412714 -0.6868442413955977 -0.4084217940527934
Ni 7.098372733938807 7.30930167271536 5.7297658882811096 -1.2551984222723866 -0.7469396640255974 -0.7007117434063094
Ni 1.8086548214452765 0.4330060085791188 9.788855942175788 0.45510839947605486 -0.11059857358587404 -1.1054725436677477
Ni 3.6053042535020814 1.833636971083973 8.929473766918647 -0.7962359391575642 0.6753845774954303 0.8772786534631922
Ni 7.885645240427581 2.123284672802846 3.208334217737015 0.44420717918251884 0.8960891013014761 -0.7090467456345659
Ni 7.150930499109231 7.199121810794298 11.62790052541636 -0.8744854069887713 0.7383624638795477 -1.4341142921774204
Ni 5.004106586782722 1.3555150298296708 0.5093953676102414 -2.757302709336535 -0.7626827857924672 -1.6541672984423965
Ni 9.226325645349108 1.5575978922147193 12.065397473843705 -0.037994219855586174 0.06380732426394817 -0.07401588936583382
Ni 0.2406453425181671 4.721796035844863 3.4564553435766596 0.06525974043975857 -1.4691370881095085 0.06612003155752483
Ni 6.928411125487091 6.544295249766398 1.7161840877203427 -1.5966275523547147 -0.47769965451300955 2.019272946206058
Ni 3.622939821574698 7.591565069727891 5.750457030714973 1.692568523928414 -2.3345099912740506 0.5595509807628621
Ni 0.5599839848589756 7.643585280149579 9.312945520019362 1.8028133137192954 0.8601437935551187 -2.935094492939455
Ni 6.78933533812512 5.109222117123573 3.7623409710214313 0.6292489594796324 -0.8315392424445485 0.23176360983368474
Ni 2.622276941407256 0.7253499717482378 6.994553936544471 -0.04153282913646396 -0.2479409909244956 1.1101833188798558
Ni 6.148824708826757 3.083008515000646 1.224191347791599 0.652981784320198 3.156327892665777 1.8094058793351484
Ni 0.7484327612747287 4.255019329024442 6.169153709114101 -0.4546803107997008 2.6879641708417132 -0.4540753302258503
P 1.2083193365262435 5.036039225014744 10.882681775691978 1.552427975019365 1.306303468478318 -3.622597193854658
P 5.094076276308266 6.001525276887609 4.6770045221759355 -1.1189554086455311 0.4011813104402962 0.4911802054979476
P 8.942289260744252 0.20303442859816465 1.0868272479190293 -0.5782961225808493 -1.122290386556035 0.0760012952269788
P 6.399108313681936 2.4863793286123825 4.7370333552753054 0.8289051472558112 1.2839541542488404 0.10433510917466547
P 5.300949977506624 6.037720629969268 11.1462750475102 -0.4824978472326013 -0.3045296859528175 0.06885748509334592
P 2.3417488088467904 2.74901726190346 13.438703679699573 -1.3385096208972174 -0.3579667227260351 2.137069580202268
P 0.9012897548530179 2.5109276621380627 3.9302947653326865 -0.8105071043645978 1.8024800987495924 -1.36814672703736
P 4.409882250586178 3.529584480210614 2.7872213722040873 -0.7156519096559094 0.19263193393954567 0.11328486216878554
Ni 0.7519636472032782 2.0921725128715276 5.919141710868809 -0.7145465924068727 -1.1747912846682285 2.5879505718605365
Ni 1.67295525513678 8.036783001888416 6.931902402118366 -0.8436810200134051 -1.612231577440559 2.992166555362098
Ni 4.000406993824165 8.651736203659084 8.4536321894932 -0.20273636936339925 0.7998015450216355 -0.7358738931297392
Ni 7.04894598941015 0.4685638405903465 4.897050200875376 -1.3218051636583428 -2.3089568253952946 -0.9141374741627548
Ni 1.355684783960851 2.8385719968861194 10.04625318820593 -0.665510255804512 0.6025375116267171 -0.12167874265943562
Ni 5.137627641741072 1.504379972089704 6.131058052841729 -0.0053867182332100775 0.09201798237020928 1.0987681350643785
Ni 7.956196943503115 2.04717823732369 0.6747264605947609 2.7065162228122874 0.028928767219208246 0.24297387672720736
Ni 4.1788940319751555 5.042320127868414 6.536269651675597 2.7621474390233463 2.1766013197483027 0.48740171229212187
Ni 8.892560731093498 6.786977641858728 4.117807064791428 0.15969070312683464 1.4747498063105957 -0.20163105211436244
Ni 8.365851385181374 9.125529414568291 8.489105144438838 -1.7133666916206878 -0.11181676226369129 1.2294398252510441
Ni 2.2767424073898117 6.886378116449843 3.5126599933319413 0.18818906767684365 -1.351849018318601 0.12046441063636026
Ni 2.872145591719551 1.9672051799676507 5.234255465522908 1.2711454325199463 1.3331239311052718 -1.6609737798412685
Ni 6.006193515495065 7.75285035591928 -0.06168393587837816 -0.6722465460870809 0.4124090608353156 -0.6854489037099679
Ni 6.760137627562114 3.0507363685062634 8.850409837242928 1.6368540039749295 1.9360918454011882 -2.402900564033307
Ni 2.741368895215283 3.745964412755068 7.392133201024774 -1.66919822463359 -1.8504692250343615 1.0126791165840947
Ni 1.2383375253899551 6.212048691906342 13.31306959029156 0.7374378951827493 0.9981690958933777 1.2576114025892533
Ni 8.394813326117742 6.067380449000488 9.539078770478628 -1.229683565830734 -0.4664258813714032 0.11319718755098569
Ni 0.8843115124994709 5.197069880009363 8.531977493346922 1.1234350416834393 -0.02380353017750094 -0.05445930739014492
Ni 5.905746223761672 9.256221234006969 10.59690635432103 2.527853092348008 -1.4550410150277586 -0.20868410230640191
Ni 9.167024868856801 2.963614776070521 8.199396142617038 0.2652797393132593 0.3743971003679165 0.26547565737414924
Ni 8.796159246153234 8.716412527638768 6.250564018114133 1.2340364434827906 0.02864286054767325 -0.13719715001000887
Ni 7.0248597643526836 4.062084328152998 6.246133435290329 -0.9793609620479391 -0.4577396664513149 0.05084407923506082
Ni 2.2773648392041395 1.1816490763608096 2.9620766150263265 0.9507810935277173 4.215033612491632 1.594400977017041
Ni 9.242084487193678 0.6096153774235544 4.415190839499589 1.179223866518285 -0.6149340855188571 -1.4917530257368117
P 0.5312342365865834 0.86174647307308 7.754045236387088 0.40819168031985825 0.015415306113805708 0.10208385124664354
P 5.276958060299813 5.676644162163764 0.42413446906793645 -0.3403235557229752 0.30405428897829573 0.7143560736626213
P 6.172411102275748 8.599829162658184 7.246636935190162 0.11982214906667106 0.5442536882841594 0.8462248694811813
P 4.867190449200766 3.047048931545625 7.582779350360805 0.2064762960218057 1.186875212415956 0.15684320637571053
P 7.2814808567719265 8.231783344689223 3.255623003291306 -0.2728917473325623 -0.0460289172346046 0.4918026695732949
P 6.122767449690585 0.32717373857328463 12.743823631419687 0.6226072857933986 0.08258100532702552 -0.43372273471142725
P 1.4884136529736927 6.879559658847435 1.4878430904772257 2.5075478051317526 -1.3353024268138294 0.9480706365750897
P 3.3870758870847757 8.455802213136788 12.59918368086903 -0.8253413411639527 -0.9620047301576786 1.6188814786569086
