# total energy = -340868.1278659953 ev
CRYSTAL
PRIMVEC
9.28946765232901 0.00000000000000 0.00000000000000
0.00000000000000 9.28946765232901 0.00000000000000
0.00000000000000 0.00000000000000 13.59607490296203
PRIMCOORD
 96 1
Ni 0.7047111008018875 5.3914027212979185 0.34709538928020006 -0.7943356368110578 0.436509553427945 0.6569284276727718
Ni 4.854731589699507 8.477958438071008 3.9916852266660485 -0.36227357763150514 -0.6587256287825107 0.2457432119422284
Ni 8.538683688837102 1.5085445384210514 3.899204859299248 0.3060232397792085 -0.9922586439462137 -0.5193872640597829
Ni 8.277937618200188 2.0374032276308625 1.2790742478482775 -1.8739271989469857 -0.5630142567211143 -0.6039163942521147
Ni 1.8800582226628175 5.041886496718707 11.694269440556322 0.862060036741225 -1.5468301692166135 0.6391037407865251
Ni 5.09911890760595 3.756029079509958 6.4662387309110185 -1.0081676018669863 -0.02657440805441875 0.6221491152100576
Ni 7.516851524385573 9.327275896697673 13.47146724457407 -0.7047684299741862 -0.15508997113002967 0.22043147265031715
Ni 8.439611515145746 4.1740922867116295 7.67471209481446 -1.2224163427453592 -0.24904785083542913 -0.6284025523189372
Ni 8.110968724629776 6.512084112214496 12.150037668460838 0.1372591135961959 -1.0476510046735892 0.08839169847153164
Ni 5.5569503263006075 6.124285990984361 5.515071547731889 -1.4404446052708224 -1.4080373925847105 -0.38202556344745175
Ni 0.6302244324918288 2.5353744365290227 10.29275907864621 1.0901138018234904 0.47855197521097587 -0.24083806133112715
Ni 3.428612498738691 8.197026353985306 0.42521423948555376 -1.3102917637021048 -0.19459342854129066 0.38773649778929997
Ni 9.139266358644285 1.6058795816407454 12.422231150221979 -0.4536791232286961 0.11713148960838538 0.27680933721941364
Ni 7.387653606739123 5.819740079845361 9.663601077053563 1.5785377847325395 -1.3035973824010645 0.21273693221953682
Ni 1.484521974786185 9.58496573244059 10.188858239611697 -0.010208050881253386 -0.1354454574262248 -0.04357505637747334
Ni 5.303087751276004 4.820537058864262 1.8640078802620743 -1.6198001338164365 -0.30602863909584715 1.3343377489077148
Ni 5.523749768515993 4.178783467931895 9.415512835190379 -1.2862779172860106 -0.4576334798907538 2.345574476618328
Ni 4.185880621302752 1.0664030307779364 12.44925978562492 1.5964897412252699 -0.25282094472461625 -0.16226489161191407
Ni 6.413764385411934 8.037619087173896 6.4637370772424685 0.294747409755073 0.6835753408363389 -0.06664787903653682
Ni 3.0307910417923845 7.894096810237051 11.735329817015128 0.7787709496035814 -0.7733412939475779 -1.7327229846601127
Ni 3.6822614160047475 5.474060405452227 7.5635645419781055 0.8383590935798595 0.8454563667462729 1.6882377577635441
Ni 4.826064292183189 1.490160681718267 3.0264045551147416 0.2089368417471563 0.047922020492259396 0.16880346406138025
Ni 7.774764307354803 3.302312895034266 10.284737623232944 -1.3422390060326626 0.06274957242339516 -0.6404224595979486
Ni 6.942613785153982 0.10209868228851054 2.514730452319524 -0.060214464706367266 0.9670422925815861 -1.2582873456103556
P 6.876881511263683 2.1154997831135853 12.949771663956234 1.5702878860189213 -0.29292784004783096 -1.570002750678335
P 9.255254653131889 7.992323642361983 10.735841609373708 -0.8968971990250681 0.07548861725661839 -0.4627242641500999
P 0.08954396660694759 4.726648408184605 9.674572867428328 0.8539415213991486 -0.44783963372878355 1.1819466647660872
P 8.773902302061561 7.698516355956898 6.626033368528141 -0.21773104300001855 -1.491538081512528 1.3502104542739133
P 6.591973534975459 0.479908767779972 4.66437831892954 -0.32659977837897947 1.640130360733356 1.1813121165058815
P 5.6737839623546344 6.519608581102447 3.2247987891802774 -0.5787982590282484 -0.1328152188922293 0.6590578153109489
P 6.63918261014653 4.8398963096821515 11.536146907136521 0.3778238666612784 -0.227413303284789 0.53359775123221
P 3.34889028639746 1.8042747446530576 4.513271191564283 -1.0154556508879673 0.49570637550307534 0.3565510733254311
Ni 5.518138929987201 7.979104729735372 12.632384921528573 -0.9960898447668459 0.7865367095919292 0.7049232103844957
Ni 8.988201033883962 1.7929787518533677 8.223612810722733 -0.4740530588993578 -1.021203866225654 0.0609189469725596
Ni 1.7147985911607793 6.614732730994571 10.124453430664717 -1.0578438860461912 0.6613550959855578 -1.4911035650782707
Ni 5.952031390256858 7.370626012329723 1.2112202595209314 1.0467475190227133 -0.3565521017666956 0.8532300971544209
Ni 4.708914814225224 0.8450099324250063 6.157689988112983 0.8447971358957193 0.22354559279926664 -1.7113686873540528
Ni 0.2875991350991374 8.319749512601014 12.915346754320469 -0.37922254678101786 -0.25261808468519076 -1.4236694426950127
Ni 0.14123242313329057 2.4111370946679624 6.013625206258784 0.10345913432761537 0.34722362527691814 1.299780836868452
Ni 2.871142248819139 2.433905580154837 6.632967956213148 -0.18044799027884406 -0.3893303246389811 -0.7526308008731037
Ni 0.889752653905027 8.461237396097784 8.147258030445554 -0.1123590079204065 1.062524579351312 0.46140631666962467
Ni 3.5524318145504203 2.68059668606648 10.592715992710337 -1.7553065263875833 1.1218818382637066 0.49695258920535057
Ni 7.940200438744336 6.1738081436283965 5.328003032762886 0.7629350110125893 -1.9968529266396446 2.1383160510148596
Ni 7.186248656171631 7.792497901314183 4.2117109153642796 0.11272436167962521 0.28707626636306044 -1.7618111602753206
Ni 1.7193225619613128 6.692819997009529 6.712803500061086 0.6436332532257625 0.21066410885090814 -0.625469180722226
Ni 8.683887359439035 0.2988412489858022 5.894550950580345 -1.1225670372561893 0.3948425127064619 0.3430507248461511
Ni 5.653430738486115 6.956640881475966 8.909426347254547 -2.4018700658862633 -0.043490981304099285 -1.085918275684904
Ni 5.001783864386256 3.6503242258358886 12.5428418838684 0.2319217326781038 0.3850664071563046 -0.65088633524375
Ni 3.453564009149847 4.039487898827169 3.534109268334871 0.5607555425939246 -0.9327052098626132 -0.8826666572479832
Ni 0.32731532557265147 7.691911544377474 4.655146445866767 1.4162160717407608 -0.4799329147189025 -1.435036546881374
Ni 5.837622305288948 1.9496920730135359 10.819525779715816 0.24524827458368084 -1.0219880526898464 0.14533417729484646
Ni 3.136941789919073 1.6364419305806954 1.1115795704024847 -0.41438546783539604 -0.34418226734743307 -0.15417131597050224
Ni 4.436389698464948 2.258195297419533 8.520129834874258 0.6403193583611811 -1.0338765765973164 -1.450750872292837
Ni 2.91274977492918 -0.03603291650552312 7.143595135991487 -1.8128493577990583 0.8112141577339513 0.676613307696209
Ni 0.8797822681551035 0.6964146771428391 1.0219287749162635 0.18442008755271466 -0.19955642897352083 0.11955861099263924
Ni 1.2147651204192549 2.780904358970303 4.0810248249822125 1.9994541117079179 0.49061816234689054 -0.6114432987567793
P 9.035614477345817 3.618656430232153 2.7007381100700054 -0.43901097969356007 0.42373219915761856 -0.42232349173555006
P 1.86310494399552 2.706848721964443 12.010786688801375 -0.0847139925096283 -0.31923459626315986 1.633060084150136
P 5.768601559810581 3.7685791504576396 4.502815895597137 -0.20740626403524282 0.7286534641218999 -0.18501452660360396
P 3.2093253227276106 3.816800777614867 1.2850659545553498 0.28178725004997923 0.41643386572399255 0.09544680554610013
P 2.2766720487999463 6.574462888242387 13.24846428145783 0.4149377407944402 -0.560704377641015 0.250481240847846
P 4.104597778377354 7.739492198259061 6.477265329145585 0.9789274740549463 -1.3586313313477572 0.01173528615905721
P 2.134320244801226 1.798505985172295 8.652420216338978 0.7307620258244705 -2.5729967787641814 0.3334957341678644
P 6.75228188015987 1.9573373049824048 8.737666875158807 0.012867342880971388 -0.21986942949926006 0.4810338610925651
Ni 0.8486291090654332 7.656546540604103 1.3727817539065579 0.812902858290284 -1.9394399359378147 0.798107188038348
Ni 8.977564593295439 4.082869713279925 12.228514163175063 -0.5811695874739023 -0.12821911488111465 -0.11882661792262116
Ni 4.600163015124922 5.87907191044702 13.441542153122656 -1.4876225485082057 -0.24104992023161712 0.8906627880795822
Ni 7.753444978838941 7.986424830332539 8.575275831301953 0.8876695097792133 0.8013917723268907 0.293291651145153
Ni 6.680353531271715 2.0438129603872652 6.600622958409498 1.8010770477544786 -0.4796030421833095 -0.4069758056348862
Ni 3.207328087158586 8.140407047970415 9.123727865917278 1.470505686322261 -0.15666554314726566 0.6508120303623889
Ni 0.8622261030299938 3.097220025764901 0.714253242087941 2.222784760282901 0.41567847561520666 -0.3135128632880343
Ni 2.722677975032429 8.625744580711027 2.7568084085401097 -0.16654243594134543 0.45313070692439383 -0.21969845113903452
Ni 6.783234386745862 7.889749339324012 10.868430182753617 0.531624172445607 0.6143319331584838 -1.3718987378806244
Ni 8.054544497437904 3.9824319878274212 4.796966892309449 0.5390672589872135 -0.7157364989499156 0.12484531331287532
Ni 0.18157007900014277 6.241528363619955 8.192505170025102 -0.8300330902126671 -0.4981065003041357 0.7092539765493656
Ni 4.845209885242531 6.105521266103298 11.210453522635273 0.6378783530198563 0.1768690146783341 -1.2214552643836705
Ni 2.0515696659692892 0.44735197011132705 12.466703548190097 -1.2871878306947895 2.0380065180598192 1.0223264098658715
Ni 2.803960817957827 4.626312866877493 5.6436489289317775 0.20329558430097888 0.43324759484722153 -0.5551006583009924
Ni 8.719419573632138 6.061052583922283 2.81236128365582 0.2095348803424714 -1.1200782093960646 0.22321494893272528
Ni 5.425467199584483 2.338205483261414 0.771340737278083 0.0012390146134236724 -0.34036289360134286 2.0024047096958095
Ni 6.949023517910385 2.9433864396112335 3.011652880307252 -1.3905999138345535 0.23996260070470932 -1.465123338964425
Ni 2.8394001374733007 7.0113186887284105 4.728402259698241 1.3244086627194611 0.7684374288880572 -0.8894278872312165
Ni 5.713459279169991 9.243522055347341 8.256596923908472 -0.7375301977862394 1.55399300551364 1.796794361218725
Ni 1.6006217428869427 3.7004873517555628 8.261886346852668 -0.3946789905454041 2.777014843053482 -0.5017965475612133
Ni 3.0107350808922773 6.064870555172837 2.084699623798905 -0.45179373328052513 0.02011014048631375 -0.28945093724282406
Ni 8.03097711772342 0.5851565796401066 10.381446556325418 0.3555118334276393 0.5122180000048533 -0.28831450964553573
Ni 7.2621621867300705 4.609954114147022 0.9548485992535674 1.8750525708006804 -0.8834179335917107 -1.0649758691052822
Ni 1.9021207085997112 0.21599963336978892 4.923057482989209 -0.3531443616367273 0.6843482144466214 -0.13851895414522594
P 4.766202961919044 8.867066374255712 10.721606428973836 0.09273583437284029 0.5608555585068986 -0.5854607586500885
P 0.16513701052756796 8.985339877812988 2.8422185619925653 -0.3455449520229145 1.1211986961537528 1.072495574521095
P 4.836877232659208 -0.005761327906552229 1.332662400532134 1.4877022527062056 2.151311949053895 1.304296208240302
P 3.4425559898508076 5.109002901305678 9.9109545220167 -0.44150880641474927 -0.5355307065888648 -0.646503375684706
P 6.198703917232974 5.103076220872947 7.769667176393297 1.321531341171666 1.5452206586376482 -2.2249190330170845
P 0.8298002868568058 4.440114775037872 6.1011022662884855 -1.9296818281097865 0.30576818634560887 0.9074942578146241
P 1.4523711268587791 5.7075790460760745 3.7776558894087717 0.6244361114720214 -0.19107384542380643 -0.8082126519034661
P 8.088321002223818 6.557630372656008 0.7272733601044254 0.2554668669878955 1.6215060607639493 0.014655802239961855
