# total energy = -340867.0813530432 ev
CRYSTAL
PRIMVEC
9.35133168208362 0.00000000000000 0.00000000000000
0.00000000000000 9.35133168208362 0.00000000000000
0.00000000000000 0.00000000000000 13.68661916382114
PRIMCOORD
 96 1
Ni 6.1983993342440815 0.5482826077125139 0.3549223156433367 0.9632463158742636 0.6080473857013529 -0.23436170957816413
Ni 1.5247065884328774 8.1843977667514 2.9290325480681982 0.9122281729551839 0.9291612012650966 1.1791202510608854
Ni 0.8952609670311483 0.6178583862258156 10.502481627626535 -0.3857492921559421 0.742652092393837 1.6183816562023547
Ni 6.331945703017563 8.51462134496707 9.755685208915423 -0.401524809822644 -0.8483563140018874 -0.6174812774207431
Ni 8.994933797828379 4.267349327121049 3.9449350460528296 0.8001920955918349 0.09834572436044997 0.49343249186723404
Ni -0.21757369537883178 4.0290306373799805 9.091008445131921 1.4209157912092756 -0.6814865766281102 0.3257346021652067
Ni 3.1648086107054563 7.771751550459303 5.801361425781956 -1.699198627650422 1.4248526643698365 -0.2189590018698487
Ni 6.772038078006544 0.5283109684863024 11.546839293004265 0.9558554227268313 0.6121732349442683 1.2645896336792997
Ni 2.245011619419153 1.2138309156154532 2.025523706430355 -0.6421453558263264 0.3781686515952068 0.8935884463668093
Ni 3.794508588330884 6.557247338957589 3.883359331854752 -0.42997843717764656 -0.9606921819938422 0.1582316020828049
Ni 5.626294208889215 4.140741646508754 0.8065691961470918 0.28498595949293504 -1.49864409642969 1.961936574378434
Ni 1.400109444147612 6.123700896196146 1.4365478434587773 0.0693688775121257 0.15642925876674352 1.0907205821695538
Ni 6.241209731012165 7.127407387307703 3.3119564915145823 0.7972828923648398 0.12896936278357787 0.21942822819678337
Ni 0.7252518854839417 0.7219078492488463 4.354644009041114 -0.14278775672390892 0.17473705593699582 0.051756306636685054
Ni 8.617841344863555 9.142553920891062 6.2996770625353395 0.6974901511452182 1.478473535019086 -0.09086150016826287
Ni 7.310908570309037 4.04054212676869 5.885465433307685 -0.6141262449055811 0.7042665506371032 -1.6781749742109033
Ni 7.058170127003883 4.442677446169715 8.27022148418662 -1.515198144133629 0.9387537300495382 0.046814389250377446
Ni 3.878174953530544 3.417266514058001 5.900917573897371 -1.1661174110433141 1.367177164035239 1.3516461582791754
Ni 0.3881073866374167 7.636867941245053 5.234611808122389 1.3601361980280575 -1.0111824774339102 -0.2827434433156614
Ni 8.58166104230879 6.060364326228861 13.688261534922663 1.0588203910268474 -0.7680445643250128 -1.897911477676725
Ni 1.5318790598879057 5.114738956639053 12.942463838442839 0.6808584561258081 1.4457680743662649 1.1323809380228176
Ni 0.12057046083215553 5.259188978237259 11.07224237411077 -1.1381286391398722 1.3720643169242113 0.6813150840472524
Ni 3.9261566367583804 1.6929651006758062 7.714682243033296 0.039276943222751715 -0.46809581287465835 -0.1866860007687559
Ni 5.877377466473978 1.8584369160561551 9.184665773177151 -0.9341715099954945 1.3403309903766725 0.9267585053608749
P 8.627566729887322 3.9161133064549896 12.611562288675033 -0.20733684424988807 0.8127048833468649 1.4229616179947107
P 7.653410447117212 5.528180036130209 1.8476249062826169 -1.7103505305021836 -0.07166538685578626 0.5552767788675405
P 3.3836204224084674 4.810624296679498 1.011812225475597 -1.7157025388427163 0.23549993694766538 0.07005819026966645
P 5.222213812483436 0.30575581868231605 5.958196351154659 0.29035082334927415 0.509467948063542 0.5364575892785083
P 7.794194746667998 1.099810127543535 9.745447370911558 1.3329447252149302 -0.35712442933039784 0.5891664896364498
P 4.134233119608234 0.4006493927853751 9.591651628358779 0.7006150699274449 -0.7291597143343572 0.3479214226748912
P 5.738874891871076 6.595185691882035 8.480407627480092 0.5310191918717564 -0.030661433639598806 -1.3543820691530997
P 2.4743904360037576 6.564980890317836 11.431365307977833 0.5902967465861512 -3.7660182132871913 0.37635165299112605
Ni 4.036399486801836 4.80680895332402 12.431173228881304 -1.7881050609748432 1.0258596198301106 1.8769464453892837
Ni 5.367477399944207 6.128470075390493 10.468046283576996 1.021163499906022 -2.857498085311214 -0.463992332229246
Ni 2.0120325401094035 4.184936040376374 10.800905067080835 1.6349079359921521 -0.7118957850475868 -0.6516553521992907
Ni 3.5032520095325594 6.246315558149643 8.93043672759047 0.4921615955746104 1.3598286940899678 1.461958053862566
Ni 2.2064373759354603 4.758986242735994 7.9643263306611765 -2.102411109588134 -1.6335730192308127 -1.2932936864822113
Ni 7.05452310761997 7.4567612916702855 0.941889512554236 -1.1506869354208569 0.5884697206797413 -0.08626025395082564
Ni 4.580544130213371 1.8993957491370212 2.117580086479365 -0.04267594160197166 0.0035553214514261354 0.4355448755218306
Ni 4.463540267312047 8.381692164089328 7.943987184097047 0.37249705513172626 0.07469054683535523 -0.8480256701353458
Ni 6.354155115932417 0.3836739202530242 2.9506163568887342 -0.315481814088947 0.1192639625703559 -0.2240546712252012
Ni 4.44743727403231 0.4585378768729994 12.074185204053594 1.0338128132389164 0.9537766858209317 1.205668433863059
Ni 1.9604225401611612 4.653821165834756 5.403545486517928 -0.730905236270554 0.9131848804414983 -0.034597535469211384
Ni 7.286408081114545 7.312797539323268 11.840609509777961 0.617976986110239 1.2408020443413987 0.591795956839497
Ni 5.425465008148419 7.582985567680681 5.621464246038468 1.2839083886125695 0.1229396116497302 -0.03198040956133847
Ni 1.7602479326431197 0.5580089278694567 12.80082108663707 -0.2450824384297779 -0.017319465115054045 0.7757506747200189
Ni 0.13296565107158206 0.9870517692583556 8.380741133649982 1.7727301211806696 0.5527277871934416 -0.7307756526712254
Ni 1.655961880926722 2.2408876821158055 6.643485320389495 1.04056273036824 -0.49175896081955306 0.5151143477160418
Ni 3.826321818956707 3.7389429750508594 9.18092991614158 1.6296009219569418 -0.5301761271451709 -0.1175796328893975
Ni 8.863323154727897 6.72484190664601 3.152918392380725 -0.7072834830865561 0.48109222513432626 -0.525363793358192
Ni 5.373331333621974 2.2497714472817467 4.926211432820148 1.0251548804536021 -1.2313537544443052 -1.1634262373643962
Ni 1.7810452944631756 7.028937863942058 7.41621765771928 -0.3578988456025771 0.3433191480161894 -0.7330978730464988
Ni 8.693016700830926 1.684763982727879 0.7102598304165343 -0.027442926702301126 0.8398647315911084 -0.4390639444186826
Ni 4.115390186124684 8.321974559510695 2.442473405595469 0.2125325295182146 1.2533500562097382 -1.3747850582894838
Ni 4.257932536045151 4.188171601163128 2.9580749790954233 0.3322904010058535 -0.023806615501294485 0.9330456239211673
Ni 4.195241207968866 5.85869350563024 6.6684084897792495 0.11628611088895457 -1.1003511632807823 0.31536919977048267
P 1.5258287482433124 9.367696584191275 6.518375723124132 -0.05578908194516199 -0.9400716775300132 -0.052040156425691014
P 8.710316664575126 -0.47298100876646926 13.105335048462507 -1.78975030988775 0.9426011288200864 0.5480820608913141
P 0.23561428459792022 2.327602581467146 2.7903317252321194 0.18678190291667188 0.20800327418929337 -0.3604252115688567
P 0.15282974998262686 3.5208138105658624 5.969282354948579 -1.0072103801600396 1.5273417214746987 -0.41544733344100704
P 4.994630451595526 3.8504482548810532 10.955194559950202 2.0455735317737997 -0.7550214125924674 -1.558210386029097
P 5.055937782572275 8.16689207370862 0.3338013977446051 -1.2433327811830521 -0.8160234061971365 0.10987223694281079
P 5.853690543142052 2.9824295875145577 7.20897531366185 -0.720045924958547 -0.3317792656973899 -0.33398578643040544
P 1.54128649963205 6.329495654098115 3.9048337300937703 0.8065900286983787 -2.237457274693411 0.22090995494863247
Ni 5.9096208583604675 2.824719377489715 12.710886523762959 -1.1322472406584307 -1.813802465740947 0.07699476948849966
Ni 1.7687763472024232 4.009673380649983 2.8669911375487898 1.1053822979467867 -0.10043011769330445 -0.2313373209295435
Ni 7.093228269748213 0.4697099129190522 7.769812084253602 -1.5835979728642662 -0.607134129858464 -0.5783166914061395
Ni 7.6070652469462585 6.4226255670324415 5.379265688752823 -0.14245659863673532 -0.1624960337861137 -0.8361983384831148
Ni 4.7384974748638085 7.429156160333592 11.950389468899612 -0.052308579595729265 1.042971854030365 2.5017520243855818
Ni 0.5814985381013809 7.51575884370389 12.077839704502908 -0.00954419204500937 -0.2739099041844315 -0.33979390847175023
Ni 8.213732894462515 2.4713793071790913 7.318769299781131 -0.5113679932997321 0.3683028145447205 -0.18144532119510687
Ni 9.155907622635237 5.672059626491443 7.229614637975271 -0.6214371767446975 -0.9096616977795883 -1.2437894091044968
Ni 6.387885369567734 5.313080703133385 12.743789184538079 0.9255703985900448 0.38238371811781885 -0.8860746544882675
Ni 2.1931584848453167 8.678353812641245 8.941701341820883 0.8064835850275014 0.9442924004795801 -0.7214746869852736
Ni 6.845333816291436 3.988707694858361 3.2713754522365623 -1.3504166567474485 -0.11490157183660211 -0.6108753420684511
Ni 2.8279081816177003 7.334473926328164 -0.025401957575539987 0.8312168261081233 0.15282997145125934 -0.39356595998688343
Ni 7.721993114198279 6.101940347205467 9.899559188477605 -0.3233401337911012 0.6412398132929215 -1.3332879674869618
Ni 9.270966408531807 8.28517706906019 9.2998657641832 -1.7614041546448889 -1.9409831120552181 0.3600156348352639
Ni 2.8082142769445713 8.478693528369652 11.223533830019925 -0.6689953861396349 2.0995870098757776 -1.3317995558668934
Ni 7.276701398754285 3.523189048831282 11.05707731940592 0.21260734862020803 0.02392025826102332 -2.207929183327307
Ni 2.979642890651978 1.747576878116961 10.80512064743537 -0.8349870917838329 1.1337842461282472 -0.8931660141174101
Ni 8.700292036935243 8.95546182649634 1.7159871443200492 0.7242684476803268 -0.4786309080780273 0.6025999894335364
Ni 9.23486091663107 4.19080867671765 1.2925551019833237 0.1242004806400248 -1.6005605688605338 -0.2656098689591684
Ni 3.626783101997912 0.3271095847417128 4.424555500364371 -0.30870515748674576 1.1592381674249777 -0.8568710363411178
Ni 4.90782203892665 6.124860461333595 1.5858409197721843 0.1859018143045637 2.0475954472998352 -0.31581580038959806
Ni 7.549610664652002 1.423515827526929 4.967052439120919 0.5670262060939847 0.1182316646510996 -0.24011378157059296
Ni 7.560187020865349 7.50858637224886 7.432915395698548 -1.17781361643432 -1.2629734382321152 1.3108890309664714
Ni 1.0831180003633187 2.87804067114887 12.902731900088048 0.20188353444480067 -1.2350335172887374 -0.015359256064889677
P 3.2184291469807267 2.6240678520522387 12.809689889672205 0.5435990854192961 -0.9689004288362474 0.1339076806254597
P 1.8334595089422294 2.7371535069487947 9.006247038983911 -0.7134654435275519 -0.2655885288029297 -0.14572164254125225
P 5.52413090948089 5.416422270342666 4.7541291610231635 0.3869204296459078 -0.20559826429222658 0.29388094798971964
P 7.974469720214331 8.739969737565863 3.9576911976979456 0.6393400251670472 -0.4424027789839284 0.9436223709957491
P 1.560503486385744 8.809758726443148 0.9954754489020186 0.09897513041433277 -0.2907215764251316 -1.1473930951609335
P 6.72460812335217 2.25137987634337 1.6454051625100576 -0.4401180967148097 0.5518281581973078 0.08582985128162637
P 3.0726138309464925 2.5597961489095913 3.97578508950803 0.7221066641423176 -0.5296889030961072 -0.1461319906057935
P 0.6869731440836637 6.245922802215992 9.107131076208342 -0.5670732572818363 -0.6022855435169111 0.32811415814097683
