# total energy = -381168.5156452219 ev
CRYSTAL
PRIMVEC
9.29873337757597 0.00000000000000 0.00000000000000

0.00000000000000 9.29873337757597 0.00000000000000

0.00000000000000 0.00000000000000 13.60963622846460

PRIMCOORD
 96 1
Ni 1.2190732116361183 6.144203004561724 0.5942634366575469 0.9189125269538949 -0.0724148634273011 0.047398543888621594
Ni 1.1349661705056258 3.9473494071927657 13.122737628531496 0.6377153450794307 0.5987564473177301 0.22870425418207066
Ni 1.5220259369021707 8.666930704353913 0.8964248397345218 -1.188616620587095 0.38948124839454856 0.30735429988580615
Ni 0.07302295124353314 0.3266654246123065 6.120974769211369 0.7374324958661106 0.729519154556305 0.19416302587209142
Ni 5.617764527329917 1.177498575826894 0.6657195513692405 1.7626629667526543 -0.1303004228901756 1.7529105153515812
Ni 8.946329738610176 2.8711140351150215 6.3213215536647835 -1.445796356501039 0.06281307867147892 0.23067809007898982
Ni 5.870104248187647 4.3905084305423525 2.5773521776713437 0.9612369987537188 -1.2141425327723412 -1.5692753855940071
Ni 9.068496494428022 5.538585814756546 5.685575538655966 -0.9866071020873911 -2.5141203161429475 -0.1044027291878073
Ni 1.4842916778742503 3.7746812317641183 2.157562730415638 0.6199449084698871 0.5907736862225695 -0.35798163512437053
Ni 2.669433812331246 1.0477998461764677 13.181667419848285 0.23674152266425036 -0.08061462562927406 -0.40901469044178596
Ni 7.417413440461162 1.1422656760100411 5.35441138695699 -0.7507991469810037 0.3182262096033036 -0.5256985509897915
Ni 3.0098418346314193 2.2076680239952453 3.9686109604868367 1.0733386392476805 0.9700795367460132 2.1241474728239615
Ni 5.925850153281877 6.847494087129169 6.526555752249562 -0.27236955628050513 -1.8721991605122852 -0.030447260746263693
Ni 6.738922079142476 6.751038328406493 8.82167092231439 -0.22228395247802366 -1.7176393508541128 -0.18639932276627252
Ni 4.166827405180937 2.506910554743767 2.0417990822288 -0.0031246616719107475 -0.1069758892316222 -1.335361819296855
Ni 3.862061426955189 8.219475666299816 5.92944597338195 0.49197956147079136 -0.9943363524108488 0.6668986515116063
Ni 3.720636994832065 4.4359234431328805 3.325623092118989 -0.9329826318937158 1.536064188949361 0.6683418117160361
Ni 8.084783516960382 0.45153253253012904 0.6470960486631985 0.16150204530396056 0.1915196747119734 -2.9982068480189072
Ni 2.9211505180694917 7.733254209840743 12.775188179190058 0.1616938495997925 -0.10321282264476417 0.0055155305015905
Ni 4.912920556330323 7.453194965532488 2.5991270210340054 -0.7877307299000305 0.18136047479078443 -0.07364642184155704
Ni 6.998607799170256 8.866100269193495 9.52950815550745 -1.263572762379011 0.7241954283505463 0.6111291099504701
Ni 7.940569464899264 1.660865321216088 8.424228190508636 0.5901609923392352 -0.616327366321958 0.29615997383188347
Ni 2.339682138194206 4.172481034921937 9.771854527873977 -0.42048438164428226 1.5428591003840073 -3.3159977698570056
Ni 8.255815115358741 6.701875926365928 3.4146844982593576 0.3333057296442453 -0.666048387696169 1.0320405518298421
P 6.723700053014161 2.026630988752619 10.8415315034775 -1.3716843078769732 1.202075574305478 -1.1033390422645128
Ni 3.8014801806351053 9.168411381873808 1.4510459173265613 -0.2775431300616446 0.013338626090435093 -0.4512671713530938
P 5.726903758037334 3.506701041787373 -0.2583801778967984 0.6300804542419922 -0.2833293977261185 1.6922309380833374
Ni 5.930834274237758 -0.24454552275097788 6.736456984990603 1.307944346515851 1.2728426177167111 2.425338838432165
P 8.265560187675463 8.76110827346056 4.114668951326967 1.3669077124239364 0.46484876669227043 -0.08798212173793879
P 4.848963869885267 5.7785396230895865 10.03243850552179 0.06614368570660867 1.4686043555344903 -1.161939882626857
P 4.774797174467157 8.929536226583458 12.876607601655735 -0.43907937103765027 0.5002078629178547 0.4875888886022635
Ni 7.290606616813123 4.632321985500722 10.842198222642681 -0.3307253705115788 0.217887880292857 0.2810701693782966
Ni 3.6685175956572267 2.525163967871369 8.623650680889263 -0.5175316989082829 -0.1552133840817714 -0.5593923436978108
Ni 5.854956611924345 5.694367490827207 4.424084296116037 0.058682344332557 1.1271991367115621 0.3853595129166912
Ni 0.9649388352849455 7.909028162133689 2.9827555549068188 -0.012416628496797972 0.3159284147080624 0.7822722778886205
Ni 8.480732872226 4.761871935421122 1.8230919492168272 0.4069704063182475 0.2551912447290056 -0.19634486401475865
Ni 8.445239607881598 7.133067480181524 0.3073705533745208 -0.11185661436269123 0.7270706930158124 0.7019772403822943
Ni 0.6295521288731598 1.9563976574470787 0.5888143790453336 -0.16077185200615537 -0.08812790328718371 0.5259530902027587
Ni 5.5302541498750735 1.1703478500525053 9.015036217936322 -0.6018510270826538 0.29070794957837676 -0.1737777773475201
Ni 8.967261186878252 1.2117644073985763 2.6005971507413275 0.5919561365664451 -1.6232790935039723 1.7808170119538622
Ni 6.160345605269578 8.472680169338325 4.489845866660975 -0.6965506700500842 -0.780541668350759 -0.05815501107417727
Ni 7.084416508462924 5.207820578708702 13.490933055034017 -0.9185016646687213 -0.4640949192453814 -0.31111710936234804
Ni 1.7035186100680029 4.299576119296903 5.37787488025545 0.7006284396638837 -0.6713975678232244 0.06859806078437218
Ni 0.1237717171555039 3.6204896390581123 10.498963385472008 0.28978055266810093 -0.05702809655858566 0.10918858061222485
Ni 7.105952374384231 8.924282442366904 2.2897256243446256 -1.5767642377718842 -1.3377177211235414 0.9527593003000108
Ni 1.2362386729879027 1.8466633078195562 9.147784932052287 0.2541124098425301 0.13674335030204193 -0.4073005359641566
Ni 9.019371287319963 5.918494855378702 9.819910380672471 0.455688440349241 0.5729685397203488 -0.29672175987262445
Ni 7.500441828548964 2.5790129314077626 1.7173588444536994 -1.2854379378832184 0.9250749470108649 -1.434351347888891
Ni 5.594303823651395 3.3685125687923207 4.762665117356826 -1.1634079825319512 0.6717621502514947 0.6725841319321578
Ni 5.848019757011869 3.684390533104408 9.29031870303742 -0.45192948752744105 -1.711293354031427 0.9643824863612359
Ni 9.378237294876524 8.8744784277406 12.48191450523553 -0.3620221237423314 0.5356253231852001 -0.09946364001497708
Ni 3.953077426798778 0.06068632200441491 3.805009049856667 1.6991194376730543 -0.9991175758495761 -2.587953142963698
Ni 1.4167270829760572 8.772006388684987 7.909689302058994 1.8119042202769697 0.6291211756525165 -0.10055944418231712
Ni 2.0104883880447653 1.9138466546595572 6.504943636716617 0.7984440025524765 0.23263701357757355 0.8693064338909933
Ni 4.21671510840538 5.773090565477374 0.027422893863784995 0.2506607038485038 0.6101888575243879 1.032816253653602
Ni 8.425963334110067 7.534958725915065 6.004829872966338 -2.166373728483024 1.5146533273737528 -0.9596308306088634
P 3.7772197859076924 3.432032214780424 5.938619173611384 -0.6537297182298161 0.19226220930495275 0.4492635106595037
Ni 7.166533620704316 7.172103561847174 11.190836553633245 1.214705861474979 -1.093788165351284 0.3219028871239424
P 0.18760659019660036 4.553133974194224 3.7469644979335315 -0.3437228112125113 0.13517497737365752 0.1130174674400118
Ni 4.856412155119709 7.810787046650698 10.982390572626525 -0.3361506552922081 -0.121643518546126 -0.6692681801850474
P 8.290694663316781 8.663322795900775 7.898896262518898 0.3266226611971149 0.12080611024649518 -1.624282595067822
P 1.2659667227937825 7.527808000140677 11.440028653327609 0.13132500749994802 -1.7346284292129417 -1.5889535807492248
P 1.8348446180155922 1.6264600086475065 2.436097912364437 -0.26878955223873063 -1.5082245410292734 -1.5925366701147927
Ni 4.635148800371222 1.2517675573093976 5.558774294247802 0.2756032327264544 1.3928992513916914 0.694646768159152
Ni 8.674388288321481 1.2618659814849327 10.727332832075875 -0.3113245973874638 -0.16403792435193684 -0.5468713284126645
Ni 2.3662672162032803 5.774280803317584 7.757274697253489 -1.7363621240745966 -0.6705845850036257 0.39695338840187766
Ni 6.417911214144483 2.614227233758362 6.9701071821370935 -1.0970454959463172 0.5371844401422039 0.02427018540127433
Ni 4.3088934498898 7.716060852289579 8.379793264389654 1.172393473860013 0.8964909647255851 -0.9822822494597921
Ni 0.33886629234777577 6.690094431494471 7.719072711949299 -0.9288832650133616 -0.06169721989948085 1.1386312898079036
Ni 3.533760355185906 5.636966411236436 5.979692607705081 2.166046427050592 0.6442413191234065 -2.334176262083716
Ni 1.685218703274768 7.264309799530974 5.737713535297058 -1.102563854661385 -0.7091418764515336 0.4815923046991964
Ni 4.446179945771568 4.937478510517789 8.064988373880384 0.4539879127183665 0.3043638497989145 -0.516935974305813
Ni 3.5193008251739752 3.6109305414039223 -0.30091723258463005 0.10563685870522453 -0.708141203101161 2.059853695841898
Ni 0.6832160476203334 2.206580072219428 4.43030421870445 0.1407046489426351 -0.04958449579634686 -0.6307507408361396
Ni 9.126204432211972 5.655191928164658 12.072972030172053 0.6071860661423221 0.6838905580839125 0.8174346847223664
Ni 2.629784014279237 7.003833687187429 9.623645740061654 -1.5728350779208073 -0.11574720766634904 2.620746021124003
Ni 2.168631942329595 9.377214434232593 4.931682610159952 -2.3855397041573556 0.4538243905573088 0.09990509842776987
Ni 7.827069128355451 4.201623264540838 8.333601807583053 1.5998907964870188 0.8181746482121844 -0.7523618634824333
Ni 3.0577768038992676 6.97948030512875 3.857447395577749 -0.007399892008496933 -0.08616769423701935 0.4583526174449654
Ni 3.0418852689858333 0.25422085456925064 10.236664721435641 0.012263647858701461 0.026370519573728775 -0.31898519925651514
Ni 8.245437729189407 3.3906993460324926 12.700049766160214 -0.6720611695491523 -1.7264425509680394 -0.02289798764409605
Ni 7.776019083490177 3.217324466886221 4.107728376921241 0.5397190336385995 0.5648181426990724 -0.6447822792285411
Ni 6.757054608739431 0.1308238763587505 11.871494519770438 -0.14383445282086843 -0.19455331933197462 1.1994062550034312
Ni 4.793273757189799 1.7717806099506943 12.331173672392822 -0.02005383332708159 0.7177908103757832 -2.9604147168717985
Ni 4.884884875953492 4.349993850309565 11.509206578423273 0.03307981327310432 -0.8631661253212103 0.3920083856917765
Ni 6.646492671863639 6.444208031426631 1.8834379375888068 0.7661180367262612 -0.5112965166318485 -0.5419885463990666
Ni 2.571220593047635 2.871830037565773 11.44556790865115 -0.22022012797045945 -2.333799081249955 -0.5214348906174311
Ni 6.119896116168678 7.301132782712482 13.403572387182512 -0.6093992717435569 1.595444330679891 -0.2837947673983112
P 0.8696100830172193 3.7091716568869137 7.721562912680613 1.3698642239490988 0.9334827114585859 1.9868765321532234
Ni -0.06329089715318781 8.53569768373759 9.778795102279705 2.083878598001585 -1.2642119386249067 1.4175862126154104
P 2.9582059695791667 6.174730745416495 1.8839409990509584 0.5473292418856895 -0.438579034362464 -0.022526720347606364
Ni 2.715918179231338 5.282759068976323 11.726279924024896 -0.8097224036797731 1.5993922595840453 0.5176527978671795
P 0.8246972020155302 1.7424152107367534 12.05987941392974 1.1504244257880898 0.6783673142728383 0.5716868447944476
P 6.827557603305644 4.697413117387228 6.311917744853809 0.4911030724031091 0.5183020014154042 -0.40913861761415987
P 3.773797852117087 0.5953950924790593 7.466872472088467 -0.2680015091197965 -0.7105030184651183 1.4465792574136505
Ni 6.0356774902406665 1.5978199106174438 3.441564346108547 -0.35707763525286246 -1.0081963982223927 -1.2459391084576479
