# total energy = -381176.1379488159 ev
CRYSTAL
PRIMVEC
9.15597297484452 0.00000000000000 0.00000000000000

0.00000000000000 9.15597297484452 0.00000000000000

0.00000000000000 0.00000000000000 13.40069194861635

PRIMCOORD
 96 1
Ni 5.581792296185069 0.9167692402858412 8.843853886793037 0.16898369839298638 -0.0021764388260285096 0.34638801674950015
Ni 3.6013279207701165 4.226928071387433 1.8116529588888841 0.08626128239209016 0.7544138609154556 -0.32630821528048964
Ni 5.920132957501411 0.2707448612378597 6.291089024975333 -1.0672528380649169 0.7256013075591375 0.03547531008847439
Ni 5.038467716768701 5.980772965075846 9.199547863277102 0.5459693854236856 0.7767958281550815 0.4356263794920433
Ni 1.5739391849718058 3.2818760312529687 10.45263337930255 0.2502148745603368 -0.430607071900581 0.20168324550853656
Ni 5.895979501366523 5.158429271840459 3.128632515206866 -1.3049865494391073 0.9189374666545593 -1.1602082446477309
Ni 3.8633901730418225 8.411088594023516 8.410006358043553 -0.9615655857377311 -0.3217164821447492 0.8030994990466169
Ni 0.8028231593159098 7.9434930652863205 3.662730620875271 0.09129113150651375 -0.2556062207792372 -0.6783801697886446
Ni 3.529572562267798 6.7528503678713045 6.731261499705856 0.7110249524068593 -0.799666562105668 -0.4041326797591363
Ni 5.392675678874187 4.961411050039658 0.3019310200479588 -0.03831072265474047 -1.6230314962695402 0.6806365699229892
Ni 7.137804086497242 6.587878050722551 1.2030902423791487 -0.37741763236179515 -0.6185757960365025 -1.1813260004629524
Ni 3.48196150392761 1.5468100376906562 10.448009613059899 1.4970525835728539 0.40604455206986845 -0.0022252897860929417
Ni 1.6280418279972235 5.608152341754569 3.645109035705747 -0.5771229282083544 0.210635826716134 -0.2508879893679615
Ni 3.572678882011184 3.8698909136998094 7.054539670238459 -1.8054551222175164 0.45771729785381177 -0.896614891897959
Ni 8.7297530698835 1.9242833265735297 10.58509924636954 -0.739150764108798 -0.879851042176059 -1.053997258606591
Ni 1.5751752412940991 4.667678287998969 0.6372190800468741 0.7158779096237864 0.5083382053344729 -1.3655524839476223
Ni 6.110732842399045 0.7580541149197205 1.2512799581976255 -0.9458782569094613 -0.18177056574500952 0.843367088317412
Ni 0.02097633358795604 0.3094892755594637 0.26893747221548403 1.2442246968697024 2.4197070940676846 0.9686461467335962
Ni 1.2868994390170168 2.954998647829303 7.859264525096148 -0.11776526653764234 -1.296364354987735 1.1915991002541864
Ni 1.5025592213525543 2.501448381302463 5.612718425368849 0.17318848050295335 -1.3559602122734968 1.221541910560206
Ni 9.630252146578858 7.359900517681463 13.41248469269345 -1.9294326882134578 -1.4240985598126312 -1.1307218051528398
Ni 2.5057516884985946 3.443066931652779 3.8268624197248644 0.26656734777643126 -0.4449204031994596 0.3916206633350545
Ni 4.3390521137785765 0.7311868284594419 12.78218295006504 -0.9271943073467129 -2.13796201010955 -0.8998776218096308
Ni 5.184597041982048 7.684168448869176 13.415834863125502 -1.0533717092074506 0.30100264663616544 0.6953790183394863
P 4.946294539016647 2.5109522810249847 13.141669330465357 2.074465532217802 3.91875125414927 1.2639900524220875
Ni 7.802976351373461 6.571900878260315 3.4214643295281943 0.577513992999186 -0.9532609225267777 2.306961135121504
P 7.249552734005319 0.055921019215102716 10.784421110916186 -0.5194394574539569 2.987680751676603 -0.6139313552859555
Ni 3.795709222416693 8.980260484534952 1.633825655988281 -0.7671048261195627 -0.9873581213208027 0.45864186655061007
P 1.707524827507065 1.0534221336949394 11.472197641336686 0.022926526889186324 1.57476417662272 1.1702386323005394
P 3.4958236466828105 5.7751206609645065 -0.20487770881603648 -1.156153614962383 0.48981032173361444 0.4755137026052843
P 2.89821330478587 6.52472015063974 9.233733518762634 -0.6873340365478227 -0.16070526043427807 -1.5109964473474558
Ni 4.0961624684615545 2.083835307849707 5.398777219119936 -0.2830933704559125 -0.15228386913980224 -1.4864989764267238
Ni 2.345824312339351 0.717029863381442 3.908445799385328 0.5595869762071202 0.36256102696493686 -0.36215427844482145
Ni 7.699165932246336 6.188073344283578 8.2851655850892 0.21159022020960336 -0.46392188400262685 -0.6012033661963259
Ni 5.0325254904489345 4.477307302420277 11.217946349424599 0.46095894471956095 -1.1498253587515102 0.7170673019461974
Ni 3.248008088022131 7.4903181936425485 4.125094426778701 -0.12104419439923024 0.06431537424861827 -0.009377070339525785
Ni 2.8551985447700616 8.101259631874742 12.95058875699794 -0.9856467950566509 -0.7644118526684318 -0.6283683566468921
Ni 8.991412459353866 4.329703865592935 9.220252264474155 -1.1019802142437731 -0.49215722469923623 1.0568614675282637
Ni 8.109875402239764 8.539345460413777 2.2508869464117396 0.5876749926925879 1.5471297027349031 -1.6209746137405117
Ni 7.0029823876396895 7.269091579870311 10.392236005006197 -0.6876651946349963 -0.7526061182827555 -2.401357387915903
Ni 7.145586663341311 8.855318080282988 12.930929967889822 -0.03259747432004708 -0.8750124831368349 -1.4458734895958776
Ni 8.552182134220113 4.933714232447529 -0.09083365893759732 -1.2943753495821644 0.06409323093548316 -0.5779618791698821
Ni 7.4897047434677795 2.247617348539955 8.439259691004496 1.2388912004719308 -0.6031378642148774 0.11759068863299103
Ni 0.5556384471782372 6.571021904875574 9.584964874124582 0.10456213758380702 0.3134074480584216 -0.5496517193712791
Ni 0.4249909563009332 6.7231209243269605 5.788267722247329 -0.08440674568185463 -2.596628045029876 -1.9077359199663142
Ni 2.077123979818292 1.7308176222027263 0.38523114460049707 0.8001288464540672 -1.54611977341315 -0.6850958912459233
Ni 1.6811922498558378 0.8099867924015566 9.161918646437389 -1.3117012424551218 -0.004831874171004581 -0.15779400032475405
Ni 3.097639547421955 3.438141018309121 12.474958862165838 0.21107419980513326 0.7512010104051128 -0.16678103431471278
Ni 5.8823554139030225 7.569398330351049 7.977887476950729 1.3985762471718106 1.539847053030561 -1.2995306685308587
Ni 1.6126048579276935 5.152505357466209 7.8147875562309315 -0.2987570451350983 1.6212260676296852 0.28356748187885356
Ni 8.17422357878108 4.161984756616865 6.941357197396522 0.19840791719137443 -0.22128070802448987 0.1601326757602597
Ni 3.292103252823351 1.270968046418569 7.487355320858147 -0.017318950894421786 0.8091179373265549 -0.30239284211547274
Ni 7.829482892507085 8.008738527157893 6.448680712484081 -0.17162987776658184 0.1082465284139297 1.2540121152737693
Ni 4.875198410552885 9.459218575464488 3.924231612016928 -0.45589849947751815 -1.9315080826852478 -0.2074376314938105
Ni 4.407666973624994 6.518329281654846 2.0165361612885753 -0.550755236848103 0.6347511202447842 0.21779994856474102
Ni 0.1728940647787392 8.825094214209727 11.385991411030846 -0.33698343560614863 -1.6169755198834475 -0.2884407508107549
P 5.969144879673531 8.042221919532908 2.3134011816096827 -0.7544657971993135 0.33191810526809934 1.0767777468362165
Ni 3.7284586025111772 2.0165114401621294 2.378220890748022 0.14550849808918168 -1.1462432978272066 -0.7375016585411492
P 4.815318348717341 3.3184632983928517 3.595579801072814 0.08317467304696644 0.30443044137079184 0.5165227980277942
Ni 3.3972779118913787 4.446506610063278 9.44329359204697 -1.7944783114910385 -0.2319196757955748 1.2314853949261628
P 4.411887877066307 2.7986237891000574 8.835129160352198 1.4822034343751633 -1.2845465364172004 -0.4025913034139454
P 0.24990037365761492 1.0323359284338907 7.556167949716131 -0.8937108308772865 -0.3405989208715489 -0.3313272657616358
P 8.416426526141272 5.965711389889383 11.274684997006966 0.4689321927330247 -1.2395825701120005 0.37571890450313356
Ni 7.569782881206874 3.8521557944680893 11.393630239102619 0.24003870535828337 1.303806413088077 -0.2574576721656792
Ni 4.853745966381528 8.614479372863698 10.775388743790687 1.4325826860242425 1.3524825381375418 -0.19114892163611596
Ni 2.3632939083610967 8.118765851787519 10.399258636111373 -0.5756910808578344 1.11767371371963 1.1948574592904841
Ni 2.0016604523490935 6.824624038319138 1.473727978735743 1.516217072316447 0.6208072564701824 1.7961017060270745
Ni 4.075268538628418 6.631231581730396 11.207547911163646 -1.0260874195702006 -1.4509691589512301 1.4765369801180055
Ni 8.237454726645952 2.021940932007462 1.880157031464933 0.663796872657831 -1.163853297599486 2.0008813310727476
Ni 9.084464610490661 1.0481849172775186 3.9069716877713345 0.2733514605778002 0.8018455720348577 -0.28736422991712446
Ni 1.0028720080995204 -0.09725108024348925 5.739971797144863 0.1467536833501924 1.035613613893081 0.9159621860763193
Ni 6.170924207308352 3.017250106609099 1.6856731829234701 -2.097594662036097 0.4639388532834913 -0.1442777110058741
Ni 5.561942147246313 2.867971126767093 6.957116457707124 2.4262022148737246 -1.292696933438477 0.537588360448842
Ni 7.89174350725964 4.247803689275054 2.498035950255657 1.0535694270405531 0.24547298899997722 -0.0754132839339927
Ni 0.33297068329393426 2.834579294119657 12.540742695235567 1.6535995988643841 0.5768293082273356 0.6523390085298765
Ni -0.023386185617790187 3.4498606634390137 4.292576396060347 -0.8454787353437762 0.8073006816121581 -0.4229503266862716
Ni 8.009095610095445 1.9844930034283526 6.090922979740424 -0.017566548128853617 -1.2001079090561462 -0.6766544453467895
Ni 1.3786514420222142 5.879901613203952 11.63409172044429 1.3213547063844855 -0.5416674156142219 1.0026417869527506
Ni 5.565009398120153 5.206827743837812 7.017272114322677 1.0294277967973433 0.46142637127428277 -0.46804336237016814
Ni 6.341234456574861 4.116644379520593 9.287898422402803 0.4722481444801351 -0.671750580287269 -0.7200528669370825
Ni 6.520068916478815 1.8024722650047098 3.9903908399697228 1.1255950254492357 0.6881537042356407 -0.4590229040391127
Ni 6.518091226363144 3.9196444696653066 4.875694664276354 0.9100936431106843 0.27246442998715653 2.0207140495279585
Ni 7.341707599811857 8.772099443887994 4.3727259503869504 -1.085166485120544 -0.28418197553440094 0.3395889915497958
Ni 6.355481150185886 6.272692844510504 12.223400341841797 1.6408412707574518 -1.026384381985329 -0.5062095890272443
Ni 6.223809105956992 1.9716197057309863 11.38367311872859 -1.2051009913953632 -0.843653252099263 -1.52237794971152
Ni 1.133335463924394 3.0008334474544913 1.9689635580339695 -0.34068376727587135 -0.32542401290332346 1.6134901324380082
Ni 7.505617824120712 2.1183991050101323 13.27422950405175 -0.9329306956098579 0.46373496480280135 -1.4157507020685682
Ni 3.9365372394033153 5.189147560442638 4.774197043867831 0.0006142365452312001 -0.42383710016659903 0.12514356127958448
P 9.168882679316917 5.7851281391887035 1.7964293229846087 1.0184329883487364 1.0624003950686218 0.7057940430252231
Ni 8.584511874027653 8.552465969375602 8.998644762235195 -0.28689577492113816 1.1852135084428168 -0.9987468227737186
P 7.551196256508685 5.759262516148121 5.763128167846434 -1.1135933730026693 1.5191938955565836 -0.411058460344692
Ni 1.507558382478274 7.529469133154595 7.466664653620232 0.055766199127026544 1.8764875034749942 2.5493133191043125
P 1.5027881206714975 0.08921396735675516 1.890382421840764 0.25969041815093985 -0.3875704045250809 0.32265467768830236
P 3.5099421566752285 8.850007616083506 5.900646300681138 0.32425518940620285 0.0279589471067712 -0.4629320092855318
P 1.7883445990395346 4.785350849881295 5.723368356145997 0.5688285494100462 -0.4266128631395233 -0.9200484403305509
Ni 5.537578103737998 6.960910692817927 5.276522092872367 1.1681411263415624 0.5406821688828172 -0.16683219926762233
