# total energy = -340879.4218835205 ev
CRYSTAL
PRIMVEC
9.16726121483496 0.00000000000000 0.00000000000000
0.00000000000000 9.16726121483496 0.00000000000000
0.00000000000000 0.00000000000000 13.41721342887344
PRIMCOORD
 96 1
Ni 4.683077032096644 5.885124985218983 12.565475040990583 -1.071116177675065 -0.633388692679619 -0.17413233247346138
Ni -0.08843015138497923 4.8294140220885 0.9250655740763648 0.40223160608168146 0.060102107498219065 0.6455160720707722
Ni 5.394740683669509 5.948544097964937 3.031672854772984 0.6501682261308028 0.17202582765341987 -0.27633676845836924
Ni 7.806848776173216 3.6371567038913817 11.021744012965318 0.6109437334125414 -0.20588108563996801 -0.3609276051265719
Ni 7.951728171639686 2.3747423359913467 13.210722802142348 0.1724965966422513 0.16530316421760563 0.1490414509431046
Ni 8.289715923566622 8.028595656516067 6.481238976699677 0.35125202971002084 -0.09324696968130392 0.03038786826323799
Ni 5.5295727608981124 4.684452121271535 9.008101927752467 -0.33521065997644206 1.0797337441407469 -0.2123476672009182
Ni 3.139640273154808 6.833056458821546 3.9990004195504354 0.2512268607646189 -0.8713147225702736 0.13911005076200558
Ni 7.1939256946186605 6.90500112445182 1.2678028840133724 0.15107390799210113 -0.12194742293978998 1.3544499462765576
Ni 8.594949051347664 7.525083836976972 12.724335426461224 0.14167318350349148 -1.2194917128993965 0.33470158155050744
Ni 2.9014656608025957 6.684610998761526 6.484727119573316 0.312186688277443 -0.9731808013791562 -0.22036256708559468
Ni 5.028343589389334 4.212365673009272 1.3238350177118134 -0.10799507452475596 0.6660630429841883 -0.9729604578382341
Ni 1.7452906825546064 3.491003059122846 5.53906821001379 1.4621647705567333 0.19478034774111616 -3.3596818410085167
Ni 6.02962852297765 1.8978247410946343 7.861185883282075 -0.8461037705222847 -0.27837591037558507 0.14286951780443782
Ni 1.6950907604099346 4.24614703040575 10.037498267706129 -1.3109149991084006 -0.0966955903515367 -0.2577811169433689
Ni 7.113812999289535 6.2982476096619395 5.271166919878794 -0.316959427075738 -0.34499036507102515 -0.5893971175900171
Ni 3.446257657371907 7.675729439716817 10.833916915662549 0.7052967916738305 0.11843863845558311 1.1329712633086486
Ni 2.3233690044174353 8.87830909398678 6.982438812972724 0.536652993118766 0.7033381252855629 1.3015654395727003
Ni 6.1137564786974545 1.352345199937878 2.8676613852532027 -0.29862926130798245 0.7612882194377857 -0.254456166335194
Ni 5.898903378751387 7.7858282463197215 12.486904278989568 0.053238290498850246 2.005001266778392 0.7521965415491626
Ni 7.228926297750208 -0.06504263469844045 0.5886252558342394 -0.09165494260383569 2.0190559450992454 0.3823832038971866
Ni 2.35242005505229 1.7957381207507583 10.346401966858014 0.1763437383024834 0.7147443102399754 0.8680162543246599
Ni 8.582059882148355 4.018303921387549 5.90502252557965 -0.5872376480448532 -2.009613568739423 -0.7871306344221863
Ni 3.8188059838944253 3.1049788586863993 8.755281698961554 0.08750672476341703 -0.9053931523112213 0.3318620552191833
P 0.40944288581094906 1.854096905333114 5.837319551690855 0.30800016099992117 0.052866251871412175 -1.6351015400601971
P 7.7409086666066305 5.586538121783246 2.930117935576732 -0.04676656673157752 -0.38886649762868514 0.542867092349278
P 7.654232212282694 9.22666501829239 11.689908093579694 0.23782627108799684 -0.9173472393493041 1.157327066445194
P 7.385374776808091 8.92569466695351 8.171458254526033 -0.411226353381124 -0.5433255200429352 0.44660678976294693
P 5.014574363118097 6.498891454800805 10.038732181059064 -1.116289945998226 0.20783435271159692 -0.9046891842656613
P 3.303211714138624 0.6764191992943026 12.203667077650074 0.4574221352108961 -0.10299556442763552 -0.5925806575243214
P 7.36737027587819 -0.3698898207843968 2.9956473518430835 -0.18267250873398863 -0.1293092626214999 -1.2833360610488673
P 3.897864444189467 0.9829779130399394 7.970642981603364 -0.7031941435085309 1.1799075228488711 0.4901255389811881
Ni 0.6633384343366269 5.97978612401845 5.247767485752739 -0.20275025332047017 -0.53535304336042 0.5413969355616548
Ni 1.3341665210458244 2.220301487128804 3.392743770315749 1.8429446345225422 -0.43120356783399927 -1.715620520651871
Ni 6.248982748156194 4.300518056380923 6.717663558895311 -0.10039515069031096 -0.24860536398137184 -0.2751815718080035
Ni 0.22349324359496395 1.2602417270037076 11.551724465668824 -0.39523152061476446 2.305858903196261 -0.26178329612422657
Ni 6.42713013439385 3.982010734431604 4.226690435307165 1.83494207593304 0.6133394873382275 -0.013985258535498495
Ni 8.333278748627155 2.088192086466484 3.75244601376644 -1.4340083627271756 -0.7470417368211004 1.5948894866176855
Ni 4.5208348439818895 3.1595057281013936 3.353901168029557 -2.193998175068512 -0.1731332017849857 0.33202634871118947
Ni 4.2384648655486945 8.156222266468244 8.544296266501394 0.06725697337544546 -0.7398076809665066 -0.5023261948124381
Ni 2.030355835770587 2.2068531149983746 7.486523586334691 -1.0468521629213776 -1.2832265320541965 0.47641358871173434
Ni 8.88343359297854 5.658638630853341 9.986418288489528 1.0628935326549565 0.4848979720336616 -0.564719412337679
Ni 6.340692028860229 8.477598941162503 10.073979383515976 -2.33903204751412 0.19750340309923406 -0.2950307453234467
Ni 0.909162209405697 7.29977089204057 7.964417494545576 -0.7361783117440354 -1.9658505647208595 -0.11479949904109907
Ni 2.2683287683771485 3.6875583057817036 1.5412485337015278 -0.1733568877600176 -0.5517101445622047 0.296094924921903
Ni 5.242334966785805 6.483912150055664 7.115282511254435 -0.09217044878767351 -0.6836437321804291 0.5054547131390907
Ni 4.37150932684994 5.0349715192123075 5.061643665574601 -0.4662266208764035 0.07090279765814886 0.4537567705441669
Ni 5.72896985851841 3.780110974513005 12.24653502431423 -0.7998128578755451 -0.6903530258798046 -0.451421694653087
Ni 7.123566965170093 6.579728363762039 8.63683426761483 -0.021714251748640025 0.21729395546259997 -0.9466213057230729
Ni 6.737396088554991 6.271195021961259 11.047961463173783 1.846878936579942 -1.7201508044220568 0.39023201051764406
Ni 7.137611209276308 5.206665153589143 -0.2907259369859468 0.3409892143314321 0.5448496699969455 0.32016173606311954
Ni 0.20040916325301772 4.250088952707102 3.5179263884410865 -0.014808782878058367 0.2766113622759946 -0.12251409407653738
Ni 8.317254376109098 1.5419333281106231 7.480927890119003 1.2322662389562455 0.18353459962396776 -1.5312847652828465
Ni 7.256437248509186 3.435962823082559 2.056107589111821 1.3632492897357424 0.7478539483097507 -0.23408788709148717
Ni 2.270941437809441 0.9455571529605841 5.027805471158894 0.7105171595325055 -0.14745430896164283 0.18632553210554362
Ni 4.903467157786939 8.354491790965133 3.235172301765039 0.2843928059936264 0.7067517789528022 -0.23208859727327125
P 3.6223974134142227 1.1377396160432898 3.1274184805683802 0.3469690860639508 -0.020845990211073778 -0.1091916659360184
P 0.2775360816203965 2.5221518955396154 1.312062420922517 0.9462711214725057 -0.037762563460754316 0.8877065336647357
P 1.5598828254735282 7.510232873888154 9.988417668149818 -1.1800957276002773 -0.6114772373185082 0.08499861362958265
P 4.9994575494554665 7.4817960297514166 5.304468829516294 0.08352897106259163 -0.5388736549191688 -1.2545805861827297
P 0.513106275075366 2.596718397863348 9.362826348390055 -0.04557100376157958 -0.16843091121330994 -0.25041464927596874
P 6.245104996683002 2.4063693870138296 5.591181339563794 0.3398970097085178 -1.780796957349204 0.10108086390342591
P 5.065159310231738 7.040814098625178 1.0983103090424775 -0.22129562042282533 0.5287090556813411 0.26795908591763523
P 5.785770208702557 2.892940107918274 10.101095225318701 -0.020678097174641807 -0.31574483794234653 -0.07618461488237847
Ni 6.203403125639155 1.5645947977128198 11.731326696253515 -0.7427089137737015 -0.8558950455810937 0.5759785301912661
Ni 1.874494061427324 0.9010390992865602 0.5781919959012863 0.6263760088072116 0.7664412243936349 0.2556553288496178
Ni 1.1629037479437871 6.2182999250338025 2.537100948322909 -0.2803965403500397 0.8884331274181152 0.1076610882241049
Ni 4.462219376086888 0.7093168327143845 10.152094532637044 -0.01656690321974566 1.3066618802590013 0.3987611310345778
Ni 4.683278711842296 0.6523853906955652 1.0967408739308693 -0.3933142489873936 -1.119847324332181 -0.027136708315791975
Ni 1.0926000220622154 0.2940472357063658 9.045321924812288 -0.22369060301756316 0.5832133573768085 -0.4321607895409461
Ni 9.304861756037834 0.25305124377229504 2.139548916970297 -1.2360879266951807 1.111731637203582 -0.6471248113187887
Ni 1.4146000705157566 4.557705568391289 7.3555307580823825 -0.5830832595568474 1.8214370994680695 2.6254891922359427
Ni 1.419972085558996 8.7281035197829 11.97910309795093 1.0547727033200351 -1.765148966399302 -0.49766247078818165
Ni 7.901500747711516 1.3809562220367675 9.703543193966091 -1.3669012846660331 0.31426362541112973 1.232951180838412
Ni 3.4258329994941987 7.895496191647828 13.371031614877207 -0.4488619043457108 1.2745274616183018 0.1554095592529775
Ni 2.1713116434580364 8.661998399515328 2.9917971021533902 0.3809768104679632 0.20920809313067196 -0.41778240933208693
Ni 1.7785036697587966 6.276832887578311 12.58552017425602 -0.66097174450421 -0.6095661363387244 0.06765600858607704
Ni 4.646142136859084 9.49361566344448 6.081781071750667 0.5394367265114903 -0.22532916706225065 -0.48126088950170665
Ni 1.097311994301507 3.4060042135922766 12.671954612885173 -0.013308801293764176 -0.48462389243666865 -0.5130024435793618
Ni 8.517934890292626 8.142746392554317 9.987760375524221 2.478757106152305 -0.7722246638446314 0.3956750359100863
Ni 3.216746106821505 5.843716466532445 1.3405313504733347 0.16862194417819348 0.4944005122074581 0.11966428333256811
Ni 4.139595953874063 2.7357215789224525 6.12831225597673 -0.20177786210487186 -0.3223708278992964 -0.1926699862663327
Ni 6.9369031933092815 9.407260063261353 4.9792620731069075 -0.30244477839933076 0.3541149530801127 0.9322364977563107
Ni 3.9463317539737766 2.4892780969985653 -0.15035958419146744 -0.8676100200251768 0.13613991239008813 -0.5516034437810113
Ni 2.9969060168011667 6.019379524994132 8.795788159149364 0.4591141782013383 -0.295665036473336 1.1886161063664629
Ni 9.137394229058495 7.970209370150215 4.02536546266367 -2.069409972071765 -0.0787991696870901 -0.7293576892777761
Ni 3.7533517391696343 4.230351839416841 10.874249197888206 1.3294562524456977 0.14461632529221546 0.615172169671592
Ni 7.708740747175356 3.7071395756321452 8.535937557770293 1.1576736511513352 0.3033228101289098 0.09365808907679354
P 1.546966154490723 7.878894281676316 5.275420529059788 1.500889440820441 1.361698657419171 0.2191520917172613
P 3.6912160429869125 4.54940002977495 7.176733413028062 -0.07644172519850706 1.529726162546475 -0.27420892348208903
P 9.039460378022788 5.141861784407134 12.061296761564721 -0.18139338491124887 0.6163602764424223 0.21142772648981006
P 8.474170385486442 5.578324255778566 7.214851801682145 -0.1582010059551856 1.4162818919816897 0.7479153976753055
P 2.9840535166465236 4.425871185563947 12.905963621763584 0.8523736626913965 0.4526085158723366 0.5328816990017919
P 6.028895142084376 2.4002364892938175 0.71088168419541 -1.19891620274089 -1.2895848701720565 -0.5933044230642233
P 1.221840069979597 7.914362415127326 0.9709312151417815 0.4412815208952916 -0.7824489126758009 -0.9906293358729067
P 2.6863192084992176 4.707755299155347 3.506011699103718 -0.42819717690750775 -0.23544311556780098 0.06450717854445019
