# total energy = -340897.2578426309 ev
CRYSTAL
PRIMVEC
9.03558900476898 0.00000000000000 0.00000000000000

0.00000000000000 9.03558900476898 0.00000000000000

0.00000000000000 0.00000000000000 13.22449783981857

PRIMCOORD
 96 1
Ni 6.549573312650203 1.8159094635176383 11.202869210295733 0.08034748801081647 0.5440408009424049 1.0337446790051423
Ni 4.553702019509279 0.2903993183299505 5.909856309648757 -0.46926026549640476 0.15165240620339043 0.2793755552846931
Ni 2.6124508629387595 1.6042236802965528 4.681842938088961 1.0880366075794874 -0.8473453562388696 0.4674129278750208
Ni 3.6251868045799123 4.320186252838383 4.776569344335969 -1.1368831967685453 0.4587866196585905 0.012416371386481842
Ni 5.1398316537831645 4.598816716266273 2.5749685283589385 -0.29017984498904864 0.28447019619878106 0.22189623012130172
Ni 7.458896936169223 6.108537169368472 2.488110313166606 -1.020299866354146 0.002253829031183215 0.62260985689656
Ni 5.2236457789820205 4.408771169122296 11.557668786920459 -0.6178867403892777 0.13022483245723382 0.5251174816753408
Ni 5.707338938764807 7.834569627349994 12.415079336386276 -0.9955352578149566 0.3610415049966169 0.08373028844012032
Ni 1.8815710900614162 6.4053382026297925 0.3999350552368249 -0.7673418818310332 0.8061724815449858 -0.11969616501176805
Ni 2.865781676673161 1.6455886075454058 0.39618709284651815 -0.6619063405033375 -0.1693271977753342 0.20225788706508394
Ni 0.5995556162308694 -0.13291261322365744 4.627595971351534 0.9846965153282398 0.3617979235466672 0.7086148003034699
Ni 8.427241028187481 2.2321519500997518 1.3645700378982337 0.6059753336636725 0.5486397331669971 0.010593202134814014
Ni 6.649543071296186 0.8369015691535754 4.804711590384303 0.05500695236349881 -0.530764395548473 -0.3540645594581516
Ni 0.7182389836197751 7.518929390656201 2.4252939936544275 -0.13415990584558185 -0.3885052576345245 0.3505318637145447
Ni 7.68737987966895 3.7103562681552047 3.667351381470863 0.4331558064643637 0.4536166454218768 0.6624444723949946
Ni 7.8001801749452015 3.7948842048989837 12.643056286892131 -1.2753885240670164 -0.492666560235487 -0.4245179282837076
Ni 8.065437966392249 8.89711877211979 6.752996953128529 -0.13371639055026002 0.07939309451734713 0.35534111217772996
Ni 6.700024908023872 0.7994454377823662 0.3004595433187825 0.19560412919399214 -0.4272744079829222 0.3506714746162025
Ni 1.800684495755664 6.387556163130941 9.18782620404065 0.5544136595362968 0.5916239500380069 -0.09199201422828028
Ni 0.12895683228229704 4.900966818319931 1.3864831487684648 -0.043724180360827924 -0.691437260082919 0.21490848594955894
Ni 6.266289520796547 2.0251556376611375 7.03655723401098 0.5110157521666361 -0.5456569963895893 0.5299943501516678
Ni 3.4186151648325818 4.491835340419524 0.3455082802747909 -0.08793327077787437 -0.6828135229696498 0.5393806764625743
Ni 5.881021033910604 5.514844746954068 4.714652969505744 0.6936075282613604 0.2954984289884846 0.03154589312708115
Ni 5.274733000184513 2.826214831670381 9.244254362005222 0.4074774278616531 -0.37712221260856343 0.16839414443810352
P 0.05467073586979257 5.596725256069207 12.437230083251842 1.3445206029779877 0.02768949549546844 0.34687369813666713
P 4.124773565723716 6.216449210900375 12.487403806388619 -0.07461727039525859 -0.07027570559711123 -0.1626004205744619
P 2.384537161557136 8.563344107949272 1.3933989887239633 0.5238738390762269 -0.2901651897010293 0.1118527577079493
P 6.356988764947701 7.904983973800476 5.812589999284307 -0.9214751454747485 -0.6949360172647967 0.7930030340425633
P 4.761159146995881 1.0269489234153875 12.511817064783916 -0.09695295777798142 -0.10029616321860146 0.18870611652257824
P 3.889667535357802 6.175572205467039 8.141728156484044 0.3740757124727558 -1.3254517592719948 0.06887394015357816
P 4.666936023065991 1.1846018833625236 3.7157405757453295 -0.8776964577269014 -0.6751835172282178 1.0352662578559912
P 0.13519138881390663 5.572040026439704 3.6951764783391114 0.7561812372285235 0.020928265512234923 -0.3281527246883961
Ni 1.2796562814966288 1.1496612600179812 2.5371726588347028 0.6344143057306557 0.2186471270563847 -0.17153654672182717
Ni 1.7587503263887074 6.518427636759684 4.873610668529929 -0.08043156308419051 0.3446386381585613 -0.6977104946861403
Ni 5.817717696141826 5.45248111045962 9.331920358869912 0.31035889104008485 0.2673659324183266 -0.34943374555435947
Ni 8.806898414194976 2.396247285129551 10.134765888859299 -0.17570379072563932 -0.134862074118929 0.6484934095315412
Ni 2.2809441316514785 5.363715482392181 6.8196488802460244 0.4512532873960229 -0.92124991683782 1.08398660587983
Ni 0.27026441140960444 9.050859321953611 9.316024046832142 1.5327124988683087 0.1513022219528233 -0.3359781342700859
Ni 1.5944291016295022 1.1076999838834958 11.564374097648148 -0.6552716087956393 0.7636382077272009 -1.0826766288191547
Ni 4.029402921968442 6.77211083847196 1.5297830753091344 0.5065296913708244 1.0672800917584264 0.22462751300953573
Ni 5.7049354720439265 7.663309070103431 8.028036952115015 -0.4627916270529255 0.5662358489822054 -0.3443995255645617
Ni 5.401764348413353 2.9325185383289125 5.071687950892672 -0.3584876282265117 -0.2351016730679822 -1.0471123585612998
Ni 0.9576369188444064 7.524974199815109 7.1722401588760745 -0.851455007531869 -0.2529785533484031 0.18590130008393144
Ni 5.193105487566309 4.395624386870859 7.195105620845482 -0.3714781269489086 0.6444485500382062 -0.4036439130481758
Ni 8.168696679498385 6.969764351702336 9.387039259962846 -0.13402440870898208 0.22944370345125645 -1.4819172705933124
Ni 4.7756612676237555 0.37621121229567406 10.358960541735978 -0.46738875950530473 -0.2572666392007957 -0.050318802859210116
Ni 8.032909845357764 7.279648918090861 4.725073714502709 0.1373025652396216 -0.8998241428638761 -0.5206751296332711
Ni 7.198482220520645 5.991119688023159 6.985881132116005 0.5025745633778184 0.6866938318606625 -0.09824082335146951
Ni 2.323239724585485 5.247535876764014 2.667910405743638 -0.7643426899933933 0.30848044307044936 -0.14103786391233775
Ni 2.3574936431526323 5.433614800259619 11.414791725953236 -0.14745148074816541 -0.5234256957952147 -0.24430416550285666
Ni 1.1743103472907797 3.322693350137557 3.933520863865793 -0.6479966724007807 0.41022079493474506 -0.8203906820268967
Ni 3.6629736385149716 2.7771064044974856 2.5529759043039566 -0.394154742610818 -0.2976018484847326 0.4536395282400123
Ni 1.2339181290864727 3.4668200330878527 8.239893507971532 -0.29625587597979947 0.11703533035015327 -0.2885474515919482
Ni 3.655907807779148 2.5611829299527407 7.228153288257601 0.2279187821662978 0.809541912237851 -1.0826488609050129
Ni 4.252220551054663 6.816701471056732 5.903442848451457 -0.2273667663175697 0.2684979891402408 0.6463383108617514
Ni 0.762213389022728 7.42013425860313 11.426587687622824 0.5945408665744857 -0.31689514949670583 -0.37583023327001724
P 0.11541248410710467 5.444701468178873 7.894562325244595 0.8868642402690984 1.2818792739976825 0.5258129650804686
P 8.57687038494611 1.6738428948995263 7.980098633740443 -0.3128160943313258 -0.13469829484755513 0.4589231452364548
P 1.769945421378076 3.3442161235553742 10.471752704981972 0.010946728819490825 -0.11378417040270726 0.23038138477417744
P 3.8677471960162295 6.285345578369249 3.731067645664995 0.7148620667647624 -1.068438887953218 0.48708546660328367
P 6.93476047923356 3.8170485051483145 10.41546911644422 0.6586834626906656 0.5121598930734083 -0.39692716314963256
P 6.234402926593575 7.618393156308313 10.187558125739349 0.871239646357964 0.20918546742285266 0.1168216716774504
P 2.443340775916144 8.470069720882886 5.943578935572341 -0.5734549924384641 0.7154199961507614 -0.9851456870505163
P 6.914367154462773 3.877288778186345 1.5631352420764928 0.10838639642590366 0.7785014979922785 -0.8325095767776178
Ni 5.084841058056532 2.858598383278046 0.5007704233258923 0.93994106548942 0.02471807157197033 -0.41507246660009156
Ni 1.456500832854111 1.2884659809434686 7.064262157543185 0.32416777189871915 -1.0196730314034246 -0.34597561180242997
Ni 6.977065107756743 0.658197493543622 9.081421298783344 -0.9006800631062681 -0.2915067913305883 -0.11388392920536516
Ni 2.886735207972875 1.7037416594837236 9.273745621517572 -1.048360114925472 -1.3289479453507111 0.22702892336217673
Ni 6.248959260756507 2.0665567072666957 2.5995263561810575 0.09382495367196099 -0.28313887898186724 -0.1899656999612922
Ni 4.139058832211361 7.041497894172551 10.264048905910858 -1.0052280596226881 -0.39142140284005494 0.1021275600003854
Ni 7.975154359343201 7.262101803910592 13.397871335497351 0.3637108242986639 0.31087336878265814 0.7396454443570294
Ni 7.644271083709082 3.7502483943683296 8.225241396563332 0.024192538085803496 -0.018607844909174404 -0.14680613385468264
Ni 3.073139412678825 8.247261127385842 12.31765490321124 0.5821880014360876 0.14737280499143005 0.3724795716302295
Ni 0.07120315338556943 4.911113784964855 10.11242991241562 -0.004910807038056059 -0.9796309278798743 0.8775882142838113
Ni 8.43484899427388 2.2071504748490796 5.7898438070920255 0.5262019729887712 0.9370596301765667 0.2580801362410265
Ni 3.63002988037838 2.6072373279840653 11.381201019631625 0.473703645979739 0.40654591718631916 0.6376091585188697
Ni 1.1528327518188435 3.532066022529523 12.676104857863168 0.4734380510231781 -0.34803120877987803 -0.12420176619160547
Ni 3.241011623984295 8.303643203845615 8.00732738172306 -0.330801732275469 0.38097089693069225 0.6974487563843215
Ni 5.509884208496309 7.842529981414265 3.6619164745813513 0.2696465009223872 0.15267313415842093 -0.10125132804301917
Ni 3.0508666853593795 8.296586408698968 3.773650570334806 0.03993643118362154 0.9926584504877937 -0.7877626115792303
Ni 3.4326926127691726 4.2655119027329205 9.401943464309063 0.1082465284139297 0.9640914374833784 -0.6075876724561149
Ni 7.224287863208003 6.013573127126129 11.432129214464616 -0.4867347681320842 -0.6090639998913252 -0.15118960763435899
Ni 0.6151546573847402 -0.03877803806769391 0.1954795504745712 -0.10699877204975765 -0.3821564325983612 0.8928173725287396
Ni 4.548389093073646 0.32341807185670535 1.642230982607513 -0.048951233087722146 -0.5876847628846008 -0.09273840547600157
Ni 6.010681738589731 5.6329398974876 0.47425729400603434 0.07050427666814954 -0.08051640948851295 -0.4084793867636062
Ni 7.874805105951816 8.689932712308474 11.278169099813812 -0.5477843271452373 0.7277792890470627 0.35723858631075894
Ni 0.155948847828496 4.658234750689266 5.761451275223508 -0.2748758676421266 0.22124676946276092 0.39963093523404075
Ni 7.7104658100142585 9.04706437449959 2.490093624990792 0.7777270817200993 -0.9762974926312671 -0.2129516193335042
P 8.472979180597637 1.4793247311133078 3.76878400200448 0.5065268631573471 1.5354288693582074 -0.7686929965422891
P 1.78045381159005 3.3938576504896685 1.6819577575387126 -0.15438034665751477 -1.5248222974869545 -0.9863299371666046
P 4.722206722057085 0.9102271824366449 8.151130590580847 1.0404899681487758 0.13758641502862756 0.1958671530473917
P 8.533418236597546 1.5236714027903218 12.41675905241414 -0.22041321781787204 0.6633808681663349 -0.45690482925484543
P 6.297380983152008 7.737690040202287 1.546763658048053 -1.0010816415544823 -0.2360360119567935 -0.9799348322735381
P 1.9957899728383386 3.2383280539989503 6.0057998097578045 -0.37093922372630306 0.4320980546238106 -0.0982271965047147
P 7.0417599262586625 4.085134436007526 5.9609823838847085 -0.4861210458074854 -0.7840291126787272 -0.2805880875355555
P 2.3048161582551194 8.566931236852241 10.169427312498296 0.14306595008596004 -0.19601859102359145 -0.2345779393540283
