# total energy = -340889.9944146043 ev
CRYSTAL
PRIMVEC
9.07137447510929 0.00000000000000 0.00000000000000

0.00000000000000 9.07137447510929 0.00000000000000

0.00000000000000 0.00000000000000 13.27687349290681

PRIMCOORD
 96 1
Ni 6.478276567896476 2.1136029874747777 11.37748359775249 1.2828503796617003 0.9048259669538418 -0.9321375102846011
Ni 4.698246154555368 0.4460186079960842 5.934775157872891 -0.34738791876892433 -0.6665577232324197 -0.5973544247638809
Ni 2.9195673759783705 1.9468802000277337 4.671109138469191 -0.20156960274880767 -0.9347584928472159 0.2573167757124407
Ni 3.5872205212040327 4.372012322194627 4.993764313686025 0.8280517981165804 -0.28277609632580974 -1.8399367009341538
Ni 3.696077012273434 2.5041891488060464 2.399980829905308 -0.7510040639029583 0.11866540975440852 -0.35734837241574585
Ni 4.942565477386383 4.386209022904928 2.2813118333034255 1.0140464292452662 1.661687003858209 0.7726524954106693
Ni 5.271811006000044 4.485195858784037 11.446483191754256 0.912446716723893 -0.30650917827669144 -0.3572591551360492
Ni 5.915570151435972 8.142574388482299 12.334653280901184 -0.6087441546580613 -0.2768967547268973 0.5580024053288196
Ni 1.7668769206702226 6.52237251815384 0.3881015119226091 1.5085006775087957 1.0876224028602042 -0.7142241760704474
Ni 2.6990876246915536 1.7239421063175993 0.24002765567060466 1.3138465709328986 -0.8610583349495881 0.04896203172099955
Ni 7.915218535509599 -0.35229679773503186 6.737269745723647 0.012991784273977625 1.1340524121879694 0.35563704615159397
Ni 8.55813404313974 2.3286127000853574 1.3124001633180458 1.9425954508476608 2.109812030037895 0.5047211774071759
Ni 6.977592221057565 0.7832487602296853 4.688488984405846 -0.9531009999101457 -0.4582114638814108 0.10178431772835374
Ni 0.9111288302508903 7.575459284133485 2.3485062238282906 0.985555263784109 -0.523410269176247 1.1574674486778003
Ni 7.659877492957805 4.061862036389391 3.8867781632907907 0.279347530260235 -1.2104509428533667 -0.8959870285059731
Ni 7.759181826935867 4.108779184040302 12.452724473939611 0.5981411823312343 -1.3664145748376015 0.0002648236256124471
Ni 8.3841269421653 7.679353733484972 9.12445177369147 -2.09039737295671 -1.926847443984785 0.08485488896286678
Ni 7.2876790072430095 0.9761433695420902 0.19126539049606625 -2.548800384023636 -1.2557661218503986 -0.6896369736493865
Ni 2.1092577992062576 6.614129468751089 8.930064923313989 0.29133272764656926 0.14289317195352166 1.4279230757650443
Ni 0.26640267631929504 4.896800394265955 1.150643953276043 -1.0803088999179267 -0.9653049981755052 0.20838071213337014
Ni 6.218154911111886 2.2405296560616996 6.816094545181851 0.7806871927896877 -0.26531496342656885 0.2021830679630905
Ni 3.3783158434675955 4.370352260705818 0.19915930037344903 0.14218354748100676 -0.38830214048478284 0.5930295721362819
Ni 6.160451899470846 5.828748028433869 4.584105587981972 -0.9571232336956613 -0.7898583177659946 1.5286704675884513
Ni 5.454916695353033 3.0487074598837034 9.152624740717657 -0.42320383745797435 -0.08017342432679742 0.08880924562492447
P 0.19282113118093314 5.710003739425663 12.276792427348095 1.2969785915329664 -0.6612717922431322 0.2723980955255954
P 4.338248667214601 6.001947777099542 12.452856916003745 -0.5732140800722515 2.50560739357593 0.9076469813424046
P 2.5929616172731427 8.523889605324156 1.2574566637256166 -0.14841101644795732 0.35776360557629355 0.001034611912101444
P 6.286897785222212 7.718188286673981 5.680363931182317 0.15986939479654402 0.8460335794059817 -0.671304750999102
P 4.930727333982586 1.26989261069287 12.463412367087775 -1.3053357052484098 -1.1940424195883566 1.2648308031558282
P 4.096904755139482 6.110659126180852 8.125247156516327 0.7427312823712048 1.9431901470088662 0.1288894014752619
P 4.934954594385781 1.0908418256322163 3.387262032758649 -0.6657290566835374 -2.624045260700565 1.1427859354062255
P 0.19427345819928407 5.70076000905902 3.227819930289297 0.490049177217298 0.03048454174210234 1.876345321470175
Ni 0.8100265498953324 0.28970431537012603 4.4777845460170616 -0.36642282391318826 -1.43378159142835 1.6793895633442948
Ni 2.1871174044436468 6.441374217423948 4.47192988107238 -2.1319471713740374 0.3290680374138139 0.3306814046475208
Ni 6.412073678577768 5.913048309392864 8.889994848951341 -1.4845048288148304 0.2874339068127953 1.4117999449509364
Ni 8.718361726619642 2.7627596005928976 10.060670210859005 -0.38607273693363187 -0.4716637327315748 0.21614724345266648
Ni 2.542234492434802 5.225610496915338 6.790297371073255 -1.6586412750533501 1.450610747170547 1.9874594012398872
Ni 0.7897139286617821 9.210801278094848 9.106527645299467 1.2032086594686568 1.8319084313130387 -0.1948058016624129
Ni 1.7854188096490438 1.1844765507004131 11.366968060715186 -0.9471468392092397 -0.09287467394354973 -1.072086254897818
Ni 4.29365379137317 6.777060421759216 1.5009241845140142 -0.1516367224741066 -0.040564294575607555 -0.7251976443628156
Ni 5.566086386857659 7.839445346351039 7.722135241612673 -0.4346542453867612 0.8789946077130346 0.9877530427663761
Ni 5.317657731488773 2.7370966828232866 4.547342029535558 0.48770973045084387 1.3263282483396772 0.7838463072439598
Ni 0.8603218773190983 7.589773912709111 7.062406848936863 0.36849873260561056 1.0776735191776086 -1.5938340487699776
Ni 4.991151757900359 4.534952346577009 7.077476215850571 1.5885931120860126 0.4437006718597455 -0.32288967651724393
Ni 0.9311584246076602 7.519352834361464 11.222542711188858 0.725108684193435 0.5941125207878156 -0.4089414140016892
Ni 4.838290030316152 0.4288201895445444 10.421522221654667 -1.583677677062266 0.9133324617629561 -0.9194622288097778
Ni 8.13882791091466 7.436005047699325 4.442853405170316 0.7409960448476529 -0.12190962772331906 -0.04535323132381867
Ni 7.524514446313004 6.256544966962361 6.892264153395389 0.31466857415903227 -0.10892787075167046 -0.5737041323347926
Ni 2.451756605607618 5.277916040874186 2.3306755305911224 0.1702995889909325 -0.285917727278585 0.20930862326427824
Ni 2.4051297419328903 5.539117191195214 11.594361106322335 0.8758025831382981 0.4050793599431218 -1.2361532327154774
Ni 1.30265841450476 3.671375660174936 3.7180288308350047 -0.7192000320184839 -0.23873155651108566 0.2408943684903593
Ni 1.4756041646912716 1.27232373899342 2.633454417676109 0.5548458619777089 0.5510650547790381 -2.2303605157476296
Ni 1.024457508828393 3.409376228919398 8.176097652044547 -0.008053980652728065 0.17571844601365866 -1.1754533437322594
Ni 3.655255828122409 2.7293225150860794 7.006046400685681 0.3411177694894964 -0.8862582312539834 -0.31951638916963676
Ni 4.077111016513363 6.876065400386836 5.831773331748172 1.1425933597794453 0.6487487200754569 0.5290510124017921
Ni 0.756040987424314 0.13815975132785877 0.11098100692010596 0.6832133295112297 0.9213609884943873 0.3920119852362023
P 0.46834144576471615 5.745608883379614 7.81018744296386 -1.1791421054377562 -1.8150689911581968 0.6803190386825703
P 8.418416736852162 1.5532369855722663 7.810226449873161 1.5849020363876705 0.4757546149714967 -0.21755466532315434
P 1.8569012387846175 3.2843091920549115 10.130135166360095 0.6245916632132791 0.56301785626554 0.8287696501192114
P 4.175680569176706 6.115920523249206 3.7003178797380127 -0.10665218734361633 -0.32255209067216706 -1.5626247130467088
P 7.001522506344322 4.262085408963043 10.239137706555013 0.7045881956425801 -0.012386032369178668 -0.5071410997025783
P 6.453457287932652 8.21019241218491 10.180082153012437 1.7872866788386055 -2.190699963933214 -0.6435772031768464
P 2.4983018269140427 8.47825152144331 5.670233927550884 -0.39752623018621214 0.40386502792004636 -1.047700369854286
P 7.119640870528877 4.154625909529032 1.4481886574154428 -0.5537716550769238 -0.6433370621415823 0.3113436235508574
Ni 5.354269797985116 3.03210684499562 0.2772611113034678 0.1582421436057662 0.4033176400570086 -0.7998881911981709
Ni 1.3986516968794604 1.1550217984918842 6.743695907246443 0.5661677147484313 -0.013298002660486776 0.6503260918649058
Ni 6.923327260259469 1.1081772218350185 9.116126973536938 -0.8577138439573875 -1.3910398295854494 0.5794886002270535
Ni 2.8489648701456076 1.7542767818289393 8.989837115422771 0.062361850066673254 -1.1854947871286616 0.8212723133009017
Ni 6.27459700173137 2.1780551015621192 2.1793985720894007 1.4800964153344895 -0.11775292524246816 1.1160675455747746
Ni 4.299577398762196 7.023311947306714 10.408909382889426 0.21428087966788903 -0.1758626849010068 -0.3284270613957053
Ni 8.55292707431692 7.325669922626232 13.4169444291599 -1.6758105877437848 -0.18007440898950924 0.5314305683775622
Ni 7.692951723494392 4.036081190754454 8.094869845545984 0.398789670279668 -0.5466550986368005 -0.3479252793296331
Ni 3.3791594812733834 8.580621979919826 12.463226403915533 0.10331952342595756 -0.5572020209147114 -0.2851947330696314
Ni 0.5082899637123353 5.200863787945561 10.18624252326954 -0.7143743284950664 -0.840680028403552 -1.4594815672976154
Ni 8.686004134649263 2.4450891455296166 5.893895916926629 -0.45454455655278486 0.46154001403401157 -1.0690726648824749
Ni 3.7094210038036914 2.82583286579336 11.243718927251559 -0.2322642036191871 -0.8396754983984378 0.527429417637969
Ni 1.4070155039432928 3.514957953882462 12.269411050116164 -1.691932947226944 -0.27085003431218513 0.4784326760242922
Ni 2.974576189465441 8.510082973706854 7.766479747524644 1.5576917945214657 0.5695772546506126 0.5572889242015628
Ni 5.76073993563826 7.896014436210105 3.3528887814286343 -0.17318770917200496 1.1482981234737062 0.4377310845398719
Ni 3.360726448785632 8.369748813969885 3.386823885382095 -0.49981808367860375 0.8680198538690858 0.45720333433187066
Ni 3.653931407481064 4.596302050668872 9.54044231862606 -0.6208681916151049 -0.1841218395860055 -0.03683413810921398
Ni 7.462139676930238 6.2483716587578995 11.233854714885819 -0.8956854381051542 0.7099029229872742 -0.4405199601389187
Ni 8.262869882488244 8.94552708073297 2.1053534797265683 -0.720137713341405 0.4439804078836935 0.7217983888732795
Ni 4.864814728640063 0.08456062940013664 1.3374063135915384 -0.4538441880516506 1.2079502879187005 -0.8078457554823507
Ni 6.24953279466264 5.731602681528684 0.23401242740159467 -0.16302413837544183 0.918848763595495 -0.2986336321833567
Ni 8.160980206847285 8.952475753412902 11.571312558613242 -0.2591270894483021 -0.20115591225015678 -1.7699245334110743
Ni 0.09584541897433126 4.873251106697942 5.651566853607332 0.6914362316416544 0.4470050536426301 0.32052426160886094
Ni 7.123160563740122 6.149393894253047 2.525447007237049 1.3746323347617035 -0.677071221169234 -1.4960915052111654
P 8.412846913059111 1.5633787819902323 3.3932237399195504 0.6249593309653431 1.7511706498423387 0.39070740749216587
P 1.7644457923696726 3.23057037096365 1.3827595563207535 -0.2423341862606794 0.3889186910228592 0.9392401827676534
P 4.770508721876938 1.102834182398362 8.094803624513919 0.39026852018253433 -0.18909409598961627 -0.048480464098890695
P 8.696418072294902 1.9084629300544906 12.06142893114154 0.5358446382848578 -0.16620202188279118 1.2563415347378946
P 6.6527190948351915 7.900459409595438 1.1745343245160744 -0.5250331494916506 -0.7967735568285891 -0.12780902392688956
P 1.873048284959912 3.3722380227162208 6.1135356589573595 -1.6534751574713782 -1.374855506516103 -2.5054865517273495
P 6.867474808966609 4.16919453658382 5.980435013051952 0.5198426064296466 0.09537867131232607 -0.719865690626941
P 2.692955375694644 8.62594256570172 10.104005979953735 -0.5616068348506263 -0.12381430094519966 0.5343778239313441
