# total energy = -340854.0751010938 ev
CRYSTAL
PRIMVEC
9.37648229357956 0.00000000000000 0.00000000000000
0.00000000000000 9.37648229357956 0.00000000000000
0.00000000000000 0.00000000000000 13.72342962600990
PRIMCOORD
 96 1
Ni 9.259782786935652 6.755868150380214 12.513558169261158 -0.7822599365934463 -0.5500384132867365 -2.941049424971309
Ni 4.920421703357919 4.580364812966311 13.768854452952846 0.9457800407687001 0.8803665483598968 -1.1829098000103049
Ni 8.171173170081051 2.6785422464115984 8.476797741480295 1.2049359265724087 1.4490130636661238 -1.1867410008309367
Ni 5.884080314577686 1.6438474038628883 5.630983735724359 1.9052429783411318 -1.608245081988985 -0.23371147758867492
Ni 1.9374719529740154 4.665981474564066 9.778698893730247 0.3923436575440082 -0.08597023351423258 2.7395458995737463
Ni 7.510684367145176 8.21594587396116 12.25933172426803 -0.651636068925581 -2.1708479622042938 0.38627045476673477
Ni 6.955812262953922 3.8542312561320804 6.600736122913064 -0.11582305520960696 0.9624518449974263 0.5405510426215916
Ni 2.681111402613306 0.24137222515035495 2.75093056651531 0.3612240533210682 -1.3999281332140148 -1.4040627242076786
Ni 1.5387745411025726 0.9019810470620754 10.337681647844233 -1.1963116752385075 -1.1739137671592814 -0.4453140390934524
Ni 5.424623296184126 7.806371742403659 6.312517115956258 -2.512049806767164 0.9823634963196889 -0.08500324161527296
Ni 8.019836742725037 5.85883882372004 8.72786806246797 -1.2464263325067113 -0.7589881105496993 0.6136755305214077
Ni 7.954810836670887 1.0074561609211254 9.807270911167622 0.29682923198476624 -1.0866109308765544 1.9189503006248951
Ni 7.60290207241447 3.9900964873829263 10.559795515612523 0.05556719574234301 -0.45016596786911506 -0.0612498479494171
Ni 0.163613055877528 1.251854176970352 4.3827282527328935 0.8224869024342931 0.0009721341052821967 -0.8866919763572924
Ni 0.33376808358692034 6.402693560987918 4.982194907636988 0.7402352554222285 0.3360586097990341 -0.9820225680405023
Ni 4.717795916792649 1.4049346300691308 12.585510482929179 -0.11452516233378987 0.1407522143511189 -0.6014442785625383
Ni 8.613068036774623 2.376188192104161 5.886446001109403 -2.5235742624669957 0.08250721466629661 1.019648348813076
Ni 8.9534624805358 3.4899549114740163 12.465979084172396 0.5228340849578028 1.0617699605734747 0.3856495333532842
Ni 3.8538937027625133 0.8606129439733516 4.554065654884021 3.4203184808539673 1.8008505335659695 1.7335436807891953
Ni 3.629345700140343 8.193798622324548 10.513492569790374 -0.22763133283286605 -0.6493012501448173 -0.2436271940404901
Ni 7.06249788070217 0.9107958782490263 12.734327449440672 -0.7709378267124077 2.1872945377960913 0.1628387618375131
Ni 4.464780913336967 3.029157056084675 6.6570578402736205 -1.0260910191146264 -0.6760453510078809 0.1412173269129955
Ni 3.2326736084863037 7.263623430069364 13.182081680040984 -0.4848954009305004 -1.180204999484632 -0.6748083932769862
Ni 8.50946728176492 7.686118354495302 1.3483860018323657 -0.15984136977208604 -1.3319008573314481 0.21998281514867274
P 0.2911594718650368 2.985359506383315 10.448017530225053 0.7297071021973949 -0.8638644369398155 -0.32095826382248593
P 0.10494721789497687 5.711890590168402 10.54973548755117 -1.11792208228501 -0.2687913520109435 -1.090035383177071
P 6.341643283508674 3.841122933613883 8.745461156560168 2.4315246555279026 -0.5772126597086833 -1.5374906369832422
P 5.700104351681008 8.411548675142933 10.958597944087833 1.1256708729924936 0.1128608872574895 -1.8424273285664916
P 3.899575925443957 5.635819187743411 11.326605191127864 -0.8890193389388883 0.3866720610805276 0.43370653676151116
P 1.6391779155838737 4.159041948851369 1.1697396315818578 -2.8587885219878633 -1.2744228177196375 1.6011868895906232
P 5.149451664609345 0.6845460440552872 7.523225412472851 -1.0643449203895026 0.28061405567748443 -0.2210194839433032
P 9.09928553618888 8.861985517383056 11.13649513338755 1.1944188290911688 -0.006237753379595709 -0.4680857855723293
Ni 0.0445692342101204 5.644351786807473 0.533051154145226 -0.6391585052838605 -2.2069709331790963 3.187309685759272
Ni 4.230865804709304 7.45623513333747 2.3634352382722583 -1.0126192098804367 3.1876418722877102 -0.9973581699563081
Ni 4.886919531428363 3.642069586876533 11.26089761479684 0.47922071914322634 -0.09437619818974069 1.8244064665090387
Ni 0.5862889464154848 7.967919159189085 6.674815960457607 0.135935766799082 -0.43030548149976217 0.16210368344370146
Ni 1.8381562504613198 7.314706506663884 1.693320538414223 -0.7600939420193683 1.6508104661550216 0.2809444424337097
Ni 0.2888078500570512 3.8920091040761564 4.135747953406478 -0.8498917768098073 0.06981933478598298 0.42226024259778244
Ni 5.76930279244231 5.50053529840682 10.007879816349728 0.48840238564249433 2.5803897287941435 1.0853315499434988
Ni 3.0956550698894363 5.660263677589578 1.1824353888705843 1.892944363479437 0.4996231940589783 -0.8290329310829271
Ni 4.17733546618542 0.9335085317796628 9.651263120236097 1.3329339265816527 0.4823602932134725 -0.1712652953383115
Ni 4.573519980750084 5.283779152732161 7.045993396226825 1.319961939802017 0.15794286719779252 -1.734271560094155
Ni 5.308973761177366 8.290367015468266 12.916588453690297 -0.5249925260617022 0.010688590062097722 2.6373160096675416
Ni 2.844824786853455 7.204682861149915 6.204554421293146 -0.6540153677910349 -0.28912800668576655 1.5128869795019493
Ni 1.8647104488672823 2.381354633955039 3.0053895482741404 -0.09755279614550941 0.729959327417517 -0.7019638706458556
Ni 1.826257494184072 6.834011755435047 11.230774727155952 0.6954340399471377 -0.3795153954310883 -0.6579468416349572
Ni 7.456094486100151 7.074856084621328 6.3523015311527615 2.242840136271879 0.37689595553037025 4.625779683802227
Ni 8.575158918075715 0.502017810054755 1.0838960591078934 0.28557242812402434 -0.6505112112925184 -2.0142842347422145
Ni 3.5186281949222624 3.470001756739592 1.3800419443600387 0.3486675568122963 -2.848722396001113 0.1277473174510187
Ni 2.3961507233210733 4.849441730923902 3.305782042445092 0.08167083480793032 0.1556162759471449 0.061979784136906156
Ni 0.686200055566167 0.7972101070378724 7.4110226724286745 -0.3673165393720513 1.2121972361205124 1.0119597219195668
Ni 5.66568328446763 3.819744553541286 4.5890324333781995 -0.2876825324884917 0.7607865972110188 -0.3375989577029605
Ni 0.8338449617666633 8.755412417424663 3.4873294963773813 -2.2739998497041354 -2.3139403946528145 -0.03993951650741508
Ni 7.3142283060569975 6.002327135233615 4.622312382672791 -0.4570539532381999 -2.103612843205719 -1.8742295606787527
Ni 7.986643994717584 8.564432222109463 4.7509145905884465 -0.40741880670957575 0.03001043031916122 -2.2573691831259897
Ni 2.668556292561899 2.0071017119297627 8.128798970421366 0.6273756537163195 -0.37199826111843676 1.2352057812005437
P 8.274567642476018 9.462277302746092 6.522677843848871 -0.08991816241838707 1.0171132410960484 1.2525411871551977
P 3.5874046939716036 3.1126640091226343 4.211473363627662 0.19389331715047253 0.16147839115487675 0.27478999279653965
P 5.859551436389127 1.012097519752676 0.734152324657951 -0.9718039756362877 0.08996932737129668 1.1465772841278576
P 6.12713749363113 6.670607795117001 8.212032130170677 -0.40500325528954767 1.0608039971157794 -1.0647529544611984
P 6.765704080510105 6.6832472935108 0.38441234080100367 -0.22740019065866643 -0.15726975239016786 0.023941084196629735
P 2.7224148079728625 -0.10161762896349479 12.146374177383569 -0.18518036275750688 0.767193529178627 0.4061705361247714
P 1.407419397928446 0.8479265631671132 1.02698737394359 0.037185607911361766 0.7875720928349791 0.2549037953955739
P 2.276300524159699 9.41333206415883 5.194400646360228 -5.036604945090191 -2.7790596413976525 1.2925683782804125
Ni 0.7462695529771689 5.602673322148398 8.118946162622995 0.9328921290624386 0.7092501198946236 -2.4161348033353938
Ni 2.820474061832168 2.7004738389509866 10.730294660229225 0.09990586975871826 0.34223517092339123 -0.19973717752575923
Ni 6.865507360112176 5.539119523844862 12.237799569882629 -0.07151600576211553 0.20445515182671886 0.5247624123287672
Ni 7.50012644786371 0.7630637707613918 2.9051268210301586 -1.364919992569946 0.30580829555492495 1.4833953978007357
Ni 1.070588017512702 3.0821435586242556 6.8242227077175945 -0.664750494820352 0.5011170049956853 0.5256527853535206
Ni 1.6909454754000173 4.718827329866326 12.961971566580372 1.2937832245241203 0.26560215564968453 -2.783607665779651
Ni 7.343979884991361 3.9867022007222768 0.3596377987712601 -0.820779175714567 0.5666989046615531 0.22784807682936245
Ni 9.104498860452198 2.6014206779479543 1.1359280357301982 1.3484988708994454 2.042103313837012 0.1475808072371781
Ni 2.571106510064312 2.1796102367436383 12.932630677578985 -1.2495201409406869 -0.5505318079833874 1.3452595380265413
Ni 9.183364454658607 8.00068058900209 9.211810827230645 1.0242889329088811 -0.05192831343817509 -0.6804738190928797
Ni 5.607408445804828 3.629373829587807 2.1851676779142646 1.6634332971253547 0.31215120705381727 -0.22877007442299954
Ni 5.413727823533091 5.875078891389224 2.9400804724488543 -0.4095085993590689 -3.6309496795844107 1.5779644287275727
Ni 2.887769076648408 9.208268392146685 7.385620843720485 1.8734353469122318 1.2161446508040346 -1.0314983061731267
Ni 4.371578677406435 4.058807351054852 9.049517980087423 -2.3821779867739745 -1.4433923750452367 0.5801881973972395
Ni 3.5538650161120953 9.284742983318658 0.5650727794899301 0.038606913738920605 1.09445588084227 0.5323091143277736
Ni 4.551400858560937 1.6046630835456155 2.63517320195994 1.5111795098925394 -0.12089301353334662 -1.980017857360177
Ni 7.770572332264547 4.985213197349869 2.563083991647595 0.45207501196636973 -0.03626438164867303 -0.6370098343719739
Ni 2.5756634805534704 7.295100281781515 4.073415910771126 -0.13773733878419506 -0.41874837278978205 -2.181806003877694
Ni 2.3220483822185587 4.633182538821107 5.751585928781269 0.9750690195408045 1.0141798694993374 -0.6392261252970023
Ni 0.7236909831461106 8.412336299671924 13.671157131317576 1.973085391906402 1.8235274063381948 -1.4664621123805066
Ni 3.807386349622127 6.937575004514797 8.249222072662757 1.8899598269298161 0.13932988008229552 2.2076476475311466
Ni 6.797124673327329 7.5393576505934226 2.739896321923454 -0.3050012262725973 1.4451576944757756 0.31146497962007
Ni 9.195225705005903 1.2054593416198218 12.33880491453966 2.3535693218983464 0.3388454285155519 0.3951451315485453
Ni 6.391563676274685 8.805604728182825 8.943422143087668 -0.3913393846492099 -0.19248332417682334 -0.74656891094974
P 5.67813525321167 9.090724807677354 3.927590979821547 0.43607298011115864 -0.37468146437755473 -0.18479958237932043
P 2.084654598587854 7.855007557068817 8.688193352116576 -3.451140094220514 -0.28917351521172135 1.493239637584667
P 4.245558752767971 6.119861343220457 5.016476265261295 0.938177545831094 -0.31771121764009796 -1.1326601598261332
P 9.003729803153865 4.797908583169959 6.114666771922116 -0.6306900628015332 -1.033684000970536 1.045872829727244
P 7.366577207787396 2.9140044746497793 3.432353304253851 0.7699209554121191 0.35622608588584453 0.10907468074217988
P 6.228628540081038 1.9823009157490528 10.920954179843333 0.19198453016353387 -0.5414293314614869 0.17018568912088755
P 2.680530060699051 4.092337652431872 7.913862799997626 -1.063220576977072 1.0437372714414797 -2.5325309574396515
P 0.22126810904787475 6.408516356612955 2.790275224683128 -0.1450097040758922 -0.4344732397242066 0.5288877473510504
