# total energy = -340892.47048835625 ev
CRYSTAL
PRIMVEC
9.09545545487743 0.00000000000000 0.00000000000000

0.00000000000000 9.09545545487743 0.00000000000000

0.00000000000000 0.00000000000000 13.31211844094514

PRIMCOORD
 96 1
Ni 6.384218472518306 2.204410982377341 11.482820683681014 0.2938128137559456 0.3765601694575063 0.1959928799919786
Ni 4.517712758276086 0.04727817780857479 6.244741481164144 -0.28447173886067784 1.1056815743547603 -1.1288410431903593
Ni 2.725262242902165 1.6508342728807488 4.684933617612066 0.08748358483496546 -0.5902399252062868 0.5155259813321638
Ni 3.661657579906473 4.24740491558793 4.6650318513821825 -1.3046371365194886 1.9316703192947249 0.08047707161014528
Ni 5.2146611331817905 4.774368322224213 2.41464516042716 -0.7808923668219584 0.8420545401535756 0.8706737465521651
Ni 7.2432751512105105 6.3073436824378755 2.5000960555202303 0.8203557150239033 -0.9431552015513434 -0.304308828191263
Ni 5.186447030149432 4.744771709952358 11.608114221692603 0.06547571310530659 -0.7218811783950729 -0.7073824705582656
Ni 5.7995171142219935 7.966427533477989 12.449426576204978 -1.2455693838230548 0.6848248969727238 0.17686361536169543
Ni 1.7250531899484614 6.734775519285925 0.5105170039595869 -0.09191539535407396 -0.4003498156779363 -1.3301723046761156
Ni 2.8496789790013364 1.6586563646305321 0.49785158214380376 -0.21505632438133285 -0.043678928945189294 -0.03307929905247206
Ni 0.5253607873731294 9.083704194468277 4.725056400560694 0.502726001354018 0.19466619076075506 -0.07181528217008923
Ni 8.537412944845611 2.41129621370359 1.5639080949018473 0.7576853325778756 0.7547105662202679 -0.1676328407920468
Ni 6.583845530337197 0.6494191625246948 4.81760266050726 1.1440156940482684 0.5520251046994622 0.6034636229854122
Ni 1.0992221817771253 7.497265746690397 2.7909923713302582 -1.5723576240637565 -0.06985378756834422 -0.43072097177062596
Ni 7.5066431613346145 3.8112323459822735 3.9747322544637935 0.4144528307382217 0.5569112291471698 0.29238867971490934
Ni 7.6599652550858925 4.186010590807653 12.784652323143023 0.006046463304396038 -1.4392223028279472 0.1030762970668999
Ni 7.98647391745069 8.653743820984833 7.241845345602295 -1.8464192233347037 1.4018212364716696 -0.24473456817205597
Ni 6.923142403167338 0.7954339673087917 0.36924638877628874 -0.4714757850904848 0.1448981181986924 0.2731856244238972
Ni 2.103378662427813 6.370420666489909 9.358938135867692 -0.07023816749095646 0.05615340726311619 -0.8036229756502546
Ni 0.10229385963056907 5.046540733294584 1.2651041900601199 -0.14515291452197582 -0.295347248122601 1.3207684948637124
Ni 6.281949170617649 2.065450612896886 7.1051170009071845 0.13494254964787727 -0.4428573500228437 0.4820275924644021
Ni 3.6493969058614635 4.378470429674418 0.4083013652465156 -1.0832474137209602 0.34191301169728217 -0.3597130159931805
Ni 6.121832771590687 5.841692741482163 4.680674215790644 -0.8491888372055116 0.2870364142640605 0.3285139646825568
Ni 5.174186356104423 2.831760931621019 9.29412210071966 0.8685528435544202 0.04776209787562742 0.514746679963978
P 0.18208374320612167 5.693900684688871 12.40802588175537 1.0389773881589912 -0.4056460310798691 0.641564800732508
P 4.004174243991757 6.253598635752446 12.646845257422884 -0.2557946826409595 0.6723085096732679 -0.8129565943463547
P 2.3515936436505918 8.618780889954405 1.4307733646838763 0.8890021125477077 1.030904638453186 -0.42091966940948805
P 6.295619640268724 7.8587282446300994 5.8210169519872705 0.4431432566943787 -1.088333569994616 0.7973484554954525
P 4.877165160545204 1.0675063283684103 12.802664053715228 -0.6881171945707504 0.18188935071106094 -1.7427562005263986
P 4.149883441470282 6.034652830402693 8.377342932641817 -0.4678836968638522 -0.019245735603489435 -0.2535621937660149
P 4.662839846601138 1.0851060348054231 3.7482663264876215 -0.24925893840497068 -0.47440530003245396 0.21798018289634719
P 0.24962568637439705 5.659756344655514 3.644618153529677 -1.183222189044401 -1.0781039218468078 -0.600831584679204
Ni 1.2908361432802504 1.1268450802004883 2.624204455677172 0.9699944332313747 0.4048345909221673 0.39983019572904044
Ni 1.9777977080216966 6.305442732233568 4.689726013127137 1.0631958943867237 0.4463345099381668 1.2540650799988917
Ni 6.206147644288934 5.925725655059197 9.25526358608873 -0.28609333362450085 -0.8806570830171221 -0.366986152615826
Ni 8.53632149018285 2.351439020906701 10.374000977236014 0.9752356270256558 1.006991065060382 0.10192495707127608
Ni 2.2982124151860814 5.221628252112412 7.015539497643327 0.6128046978806801 -0.5053364423936716 -0.24005824574230913
Ni 0.44273130258329496 0.22890896732965083 9.34920690800363 -0.40413499375198136 0.05212963081570377 -0.07976924690984326
Ni 1.499313079323025 0.8978415201333984 11.800008323225835 -0.8403092753276948 1.6954412174905187 -1.004799970946334
Ni 3.987202123985832 6.9451443100774854 1.4153847634845056 0.8326594720919207 0.9630084888318446 0.38709732154340426
Ni 5.704442317640034 7.902131758385874 8.049172530552966 -0.16121896684590298 0.3478167787762268 0.1495505293690392
Ni 5.100249398157923 2.692318502997845 5.158991488107692 0.9471229279498397 -0.7687950693377922 -0.10572247644049533
Ni 0.5339187014747239 7.297729643426735 6.76339527963461 1.6026776152035367 -0.8448570425993772 -0.6224023688714442
Ni 4.70384216009884 4.2002358832456315 7.132380628837389 0.20229825338471613 0.86550120121229 0.2570987461643637
Ni 8.479793234107381 6.998880261307392 9.123486807380344 -0.3907801697116302 0.7812523212645384 0.6793695302851074
Ni 4.829359446316295 0.340359222035228 10.513192371286753 -0.2036524534197654 0.7985239638607925 0.6147893324108766
Ni 8.085778100850847 7.320268182212739 4.527584965700755 0.06674763783919471 -0.10636910888555874 0.862210189165844
Ni 7.57505917777865 6.146799797001332 6.972395204369957 -1.5664471721165927 0.051933969865129916 -0.2892344503566438
Ni 2.6127878399046978 5.200981568075193 2.4697045004356646 -1.0620178149182227 -0.07320110677402233 0.6261338108894184
Ni 2.305406920504778 5.148628126084781 11.507661282259889 0.006207671472608664 0.05809638992209995 0.3284933958572665
Ni 0.9462820971578131 3.257337295542376 3.819420075044082 0.30671769474307176 1.062898417750963 -0.1771945163385529
Ni 3.8713078297117147 2.8684338082897707 2.586771198926697 -0.6007428816201396 -0.5959778561313285 -0.047667224168975966
Ni 1.1111554194233064 2.935276310928327 8.27861994884958 0.415786976168613 -0.010557720911188269 -0.6647787769551261
Ni 3.3986715789143354 2.217708538351973 7.253786769158446 -0.8347988870324268 0.08421391294475819 -0.5111700183563131
Ni 4.068215346329229 6.722987808928113 6.180696740644464 0.5111106258732875 0.011935832205637507 -0.44937741052954866
Ni 0.8175031805898086 7.437845135758612 11.18846263749893 -1.4943632096661492 -1.1823994360327894 1.5873134740426404
P 0.46257667698893734 5.504433250689175 7.983796215344717 -0.965720231336053 -0.06629203835901487 -1.1325426604116626
P 8.463475986899113 1.6642591652327026 7.97556937582416 -1.0139510413179829 -0.5166629231500844 1.3177441062150919
P 1.644549313114353 3.0684883525182443 10.544488924195857 1.0224020002988135 -0.47381780296010007 0.6968877416745288
P 4.108017059697894 6.418226380718817 3.7382695113222875 -0.3939454548134893 -1.5271650866875182 -0.010795290843291085
P 7.152547982368545 4.255108766415915 10.350931263847468 -0.8048198241718333 -2.0611392474225405 -0.44913212728796204
P 6.618026252192647 8.086878650969131 10.50533844544264 0.40951348445507535 -1.3320078152229577 -1.6450712496783992
P 2.253853878600391 8.290380372840822 5.958411084026664 1.4602166456914272 -0.2661821965228706 -1.4039002304878854
P 6.9512382652778975 3.930310049689442 1.707199720302357 0.8654410373983159 0.9455846369284424 -1.004450043806083
Ni 5.4347802522940105 2.993350794442708 0.32379821661894237 0.6075964142068633 -0.08060948342295149 0.6252442091956135
Ni 1.0903177308201042 0.6398416478589716 6.9955049377628065 0.985390713181787 1.054610466710558 0.4129384509762243
Ni 6.941633464245606 0.8177933256209924 9.362359846235448 -0.2734872148247161 -0.15796549290561182 -0.7993104643178299
Ni 2.888771246839208 1.433243690403924 9.557142664442786 -0.7923864835044869 -0.23117971230575668 -0.3620208381907507
Ni 6.450642584202804 2.0035287516962748 2.770944168266453 -0.4522855853152791 -0.3025764188811886 -0.6043578526649076
Ni 4.268606422412053 7.182981376548517 10.314309321729642 -0.30090314494382375 -0.749541877535135 0.7721480449704251
Ni 8.27877457159347 7.478920212900498 0.031044608791117246 -0.6991330860652798 -1.2072347499089147 0.04610862143260447
Ni 7.8120867487081345 3.8409744855424965 7.977725908328664 -0.15251218310052445 0.3481985875956778 0.2858585919058754
Ni 3.073609093977695 8.554103105730324 12.553846953336826 1.6111296026256317 -1.3457475334065534 -0.014118698789569232
Ni 0.33153753972346645 4.69851222316236 9.855800132450593 -0.7213281341050802 0.07337157091361557 2.270994230108592
Ni 8.469297078433835 2.145317807844384 5.9335968622688045 0.4008228986596129 0.8994374489484187 -1.3542743399306418
Ni 3.7549314762948787 2.666441932034898 11.525352852797685 -0.33435731083721126 0.16378055692549215 0.21647711598825942
Ni 1.1140477742796218 3.40525668871299 12.950814471456125 -0.4883681899704493 -0.1287220226594622 -1.3655038900978742
Ni 3.0758647669474 8.321050248864392 8.003085857417904 0.011643497776199304 0.045599800116985986 0.9654294395685117
Ni 5.639555337938922 7.985036835478056 3.48496653227994 -0.32651570330560536 0.34779106774461394 -0.4052354259050118
Ni 3.116812507711964 8.424692964549022 3.597560085744759 0.5046916097208212 0.5377734798764544 0.5801329186792719
Ni 3.2150161409938383 4.064086009521785 9.212358503295617 -0.22528314431566362 0.3690857154573321 0.1541538324690055
Ni 7.378597338481764 6.080894126281645 11.354744845824937 0.4739427585737385 1.660144341961438 0.39476100873624914
Ni 0.37808535245354397 0.14247485349454383 0.6885077921803567 0.7655940459019912 0.6958693277123434 -0.9947580133292997
Ni 4.709526819800718 0.5311191202647432 1.5815860222563578 -0.10959970000771448 -1.2910018051242411 0.45152762410333214
Ni 6.082376685531894 5.949301075774824 0.293216566513946 0.023078736196334448 -0.7225764046898846 0.7266050662333036
Ni 8.287933695305135 0.04827322064279142 11.504026738232897 -0.9315230166290538 -0.00820233330513426 -0.092679270103292
Ni 0.09168492030853721 4.75988835703159 5.784887983558794 0.25794669598695574 -0.41696968362280445 -0.2247966915975483
Ni 8.016980075274844 8.814133083677484 2.5525722861602023 0.128815610814533 0.5974924930036419 0.7014933587673402
P 8.482158052543362 1.6666512700352525 3.740944484791603 -0.5499008592676078 -0.6358818914151179 0.1641158287777238
P 1.8558913176468739 3.316021174576798 1.6253033292276764 0.26040647038135795 -0.5546514865787157 0.9200420125726477
P 4.755649874757871 0.9363862415487847 8.309171583951349 0.7847312809520743 -0.7042516382387678 0.34860970699116733
P 8.524033529771271 1.8100502218109336 12.72012825211728 0.8181126846259974 0.7141305879153765 -0.9121129875335582
P 6.4460766655302555 7.996915500391099 1.3237489586357927 -0.4700228546940421 -1.1553095217945328 0.23711176151947552
P 1.9775703216336213 3.288107221576699 5.908131405895498 -0.2671669290336431 0.5002708549453061 -0.06193299005937075
P 6.590266921936438 4.269170340654479 6.075824319373123 0.954447486635711 -0.9315106753338797 0.11340801801021112
P 2.2234932480646035 8.448432103464063 10.175503574993078 2.5975125045173586 1.0998253726842995 -0.2550624324606252
