# total energy = -340861.5810750693 ev
CRYSTAL
PRIMVEC
9.36723833556062 0.00000000000000 0.00000000000000

0.00000000000000 9.36723833556062 0.00000000000000

0.00000000000000 0.00000000000000 13.70990015905460

PRIMCOORD
 96 1
Ni 1.0310425514882189 4.553217821410587 4.324417405801918 -1.5504849923603814 -0.1014125362112318 0.09211491295938974
Ni 2.683114267214924 5.2531753354918065 5.771292272966442 0.7107591003399824 0.7513833016192478 -0.20892450045198213
Ni 1.069363923338043 3.120686069517744 13.590432383430333 1.2987639655681633 -0.1766124185828378 -0.5418677045504862
Ni 2.731055792789942 5.701126037821418 1.1691531128555637 -1.2586637551131679 2.18320956909344 -0.8982922796003819
Ni 1.5494348857686204 3.4924061866325267 10.807692853367985 0.5355417623324582 1.426569389950627 1.2059183450903361
Ni 0.9699681578287581 8.314857171012473 11.798973351757175 -1.0613436716693336 0.6875538658681126 -0.1771837177052755
Ni 9.002506133978887 9.541843613078697 13.688540153674559 0.7669706145345437 -0.4683048435616709 -1.8080987304879503
Ni 5.857512081095145 3.4374204978624294 12.447259305975768 0.7580154622237849 1.4553449194214227 0.3033400365200905
Ni 4.6222543676176775 4.301342150995059 0.8110389093589359 0.27724385365367094 0.6714322777159016 -2.449954580098316
Ni 3.903665416575006 6.801364378567679 12.797931238649934 -1.462737612341068 -0.0496945390116499 -0.8079627406761891
Ni 8.077594392331417 2.475395758104718 13.511791607803143 -0.7211777245701451 0.5483674533422169 -0.4623663665900488
Ni 8.451122386436426 5.299608735701921 11.926379033205189 -0.08200610666016199 0.9239349198691507 -0.13085886649680686
Ni 8.888759759407286 4.681876839341982 0.5211088333848868 1.2484945278896498 0.940355013098387 1.0217204008507565
Ni 3.724179763674864 6.114483529141155 9.422183700973783 -0.953669470819106 -0.3001215295827928 1.0826187789980257
Ni 4.549517762285513 3.478374063672117 9.246340967045137 -0.572449176881769 1.2692284180028914 -1.6491112240757275
Ni 3.6473590424476803 2.167513369945338 0.10418898134295769 -1.7842106110164435 -0.011380216812483626 -1.2324277042347744
Ni 0.4764982977462647 1.8783935600834891 1.8611053850930135 -3.510642363351206 -2.534140468018616 -0.5946743068285565
Ni 0.6048903493863566 1.6080456957574616 11.975557034234662 -0.6922669550730658 -0.3418520765523596 -1.727351435935554
Ni 8.322959832134472 7.117237020989562 0.35756059971361054 -0.2505534888466782 -0.47600915418446405 -1.019775875529876
Ni 2.5294540902839735 0.8295832310042784 2.0008224278273214 0.9663064428568262 -1.288382365223523 -0.6267009962467981
Ni 6.3229701517912495 6.009982618763097 6.1066909236066 2.1513767408535593 -0.30678814296969104 -1.4879033129734183
Ni 3.8840410523546733 8.871561509904408 8.742968062641053 0.8222549889291453 0.8613817797272778 0.7787568085361943
Ni 6.105387940760276 0.029438419778157567 7.125500798610172 0.07170678161668295 -0.45616692264755626 -0.13756353221049214
Ni 5.191707517824109 8.01527415597921 4.818536415498 0.9282690284681303 -0.7715330370942455 0.4587164285422874
P 8.644443450292862 3.5015111422516982 10.808816921962945 0.5167264293981682 -0.6632931935485351 0.25061853775665865
P 2.632296999484468 4.516929140269981 13.088073950933198 1.6202104818809775 -0.7457523285857156 -1.51816673984365
P 5.4619523425289325 1.4474443952526375 8.675254170480699 1.2242328271288077 -0.7971797911280722 1.6203724613801385
P 7.871299703441493 7.8304023410615535 11.818180873873542 0.7775010817522222 0.34785225999985253 0.0832752031805727
P 2.4088602645214126 7.697200212558865 10.110543637326508 0.05115158317315062 1.2513080860790449 -0.07047625164369152
P 1.4743752053402064 3.5688990545195143 1.9689194876547151 -0.09646599083923386 3.9561620906975605 -0.9249543622726006
P 1.557724891656446 8.802777879131185 3.5657254341864117 0.8589590292183981 -0.4882800011320171 0.4426274934002248
P 2.5197683658907404 4.363446940866567 8.52585796041996 0.11838927327488644 -0.18145200606332623 -0.06135654873061045
Ni -0.14643147914153196 6.501547182577134 2.7679880032011623 1.1018454884381217 1.3176985976891373 -0.26563300888762
Ni 7.92331597767324 2.896378181393596 8.84193949225574 -1.8868557340831955 0.7503548603547335 0.8755997230988727
Ni 5.825391820994181 4.020840200361232 2.772210754222893 -0.15345963461545828 -0.7164314681344113 -0.9139886072897162
Ni 7.695523476904718 7.995200164320893 5.18926547880156 0.5298377699691456 -1.3391246287733969 3.236923492131657
Ni 2.076220265558052 6.367352126815564 3.4660542718713616 1.1357362276482956 1.6286362440508273 -0.07119256098442578
Ni 0.7640875008713107 2.963812929852869 8.726818007102972 1.4487932343458338 0.5521500603131008 -0.7471895752528745
Ni 6.722201847767663 3.918128432496817 4.855840505269387 -0.07510757976811581 -0.205773099307194 0.9944775059744034
Ni 7.2038465062311845 0.8240471931741035 11.279944045272963 0.5195937236436342 -0.4329413764607125 1.2222191391328885
Ni 8.026945734890205 4.804025626660904 3.139717487554236 -0.7424106658069923 -1.4959734915760623 0.009104533404429481
Ni 4.1491526304758475 4.761507732056564 11.212792187410088 -0.21023524884360567 -0.3954526354866351 1.9557474148485863
Ni 1.9649468418953628 2.943083231514159 6.39943866485868 -1.6431701760009443 0.5154907572188541 1.2435649517985163
Ni 1.8632561030047023 2.500106532717242 3.6415410507449364 2.559735285768585 -1.7090166421821082 1.0522085421372847
Ni 3.60800727438581 0.3777854039084175 4.323732660682822 -2.9801564182750995 -0.6885005460520981 -0.8775036249898049
Ni 9.235918977722205 7.749694215943469 9.758268033456865 -0.8776298661550239 3.0733895039993326 -0.26307707523498564
Ni 5.0455223970496395 6.56209701089228 7.75257838861337 0.39756839627805723 1.5294842217389981 0.42646811003154295
Ni 3.389535175717159 4.279891175307918 2.7153413138324094 -1.2246827701820329 -1.8022024196081736 2.1803787845128646
Ni 5.987435676195869 6.158912340356926 13.124199642127534 2.859610760778843 -1.4044041667074973 -0.7782955526290596
Ni 4.055470880324274 9.007714318468865 0.06429204001253204 -0.1037545540808471 1.289915514038598 0.7877541269387982
Ni 1.461036258013355 6.313434303210678 12.650700734082154 -0.28934552201321134 -1.4595558721789765 0.8518584136178747
Ni 0.8722238364302343 5.469567907259782 7.40807571907787 1.0999570131661571 -0.29257045670841225 -0.3659826510519762
Ni 6.8112374477267394 7.2266932004237345 9.758364516011266 -1.0649190477254176 0.57579032543986 1.156425637676847
Ni 9.407330071215224 8.671823887818412 2.06179097169409 0.8816783251927848 1.3754016088275602 0.4937050288023304
Ni 0.1168132083881809 9.664741779460925 4.97724178697266 1.4990436458609537 -2.654373479370461 0.672770279801035
Ni 2.56024420254757 7.410281703695478 7.561832378563221 -2.0384752301661213 -2.029519049414098 1.6593123329784454
P 6.969262757701449 6.839104981643442 3.4558542860959345 -1.1815324600468038 -1.705077455028702 0.071808854412186
P 8.757402976847988 5.856369278023603 5.292898982913842 0.1744922869160414 -1.0736374014350218 0.20056532985400943
P 5.218619593435095 7.37433024313336 0.8921947884673463 -0.8253637097614559 -0.5821131823340943 -0.7193558408700579
P 1.0359135153997097 7.163586116055055 0.9029802266359818 0.028291390745525474 -0.9493957831444164 0.37008947413149806
P 4.152215717397112 2.149481436234531 2.9381139116006096 0.798027226730032 -0.8496585777530786 -0.6078915768497789
P 7.2884888714316265 7.58143988175463 7.656512676316651 -0.8600257799200157 -0.04961020682795972 -0.32690573965517244
P 7.776653127745912 1.4895594986104495 5.436935259224281 -3.3827243246502774 -0.41143769806098174 0.33618639362615
P 7.651581762080096 0.97992553213244 1.3301122418631168 -0.5345246339218537 -0.05714405331115965 1.976381031938538
Ni 4.601299855559975 4.315205663666226 6.779504054567206 0.4016705913718889 0.28107248337114177 0.3577417511994226
Ni 4.166407083408474 1.9715320104141665 7.1949832253599295 -1.2195996992321705 -0.625441155697768 -0.5992423858152132
Ni 7.874737479894411 0.5513668865135356 9.022553897369988 -0.6522626467659863 -0.9917588214916598 -0.40410311207278143
Ni 9.108093643998739 1.528452271996045 7.1468749629433255 0.9495904156537259 -1.7404483783288283 -0.24407199488739256
Ni 5.4051306750537345 1.2107811198222271 5.076063340774686 2.127053590727163 0.5213289611671861 1.326209977594258
Ni 3.6667773274256037 2.860979387890666 5.034905569170248 1.7934223594226983 0.9949238494832027 -1.1693703707629732
Ni 1.0845856855614515 6.054261554166205 10.224857666538561 1.2741415390337927 -2.5133775244396523 0.17292982752492797
Ni 2.663724083951874 1.5963647496081752 9.647368362602 0.02584704297009097 -0.09703908973388449 -0.34830760236971625
Ni 7.407864956216315 8.794703319724059 3.235070353016984 -0.34020759897040115 3.1830354838639505 -2.4263019736763827
Ni 4.760158849742613 6.136140584070706 2.7343436934301986 0.9079308311314105 2.141440455576454 -0.8149206600512611
Ni 8.440612345073557 5.888723719081851 8.709734974631077 -1.234676905280267 -1.2788857385869974 -0.3904551822720437
Ni 6.566134290595842 2.7161712511450213 6.818234774730362 -0.8440186058584819 -1.1044299613358461 1.1363265529341269
Ni 5.012212497685676 1.9272249732961837 10.764725331325662 -0.5142034058659983 -1.354358929224648 0.5238594408985235
Ni 3.156272207786501 -0.026664780520095247 11.625378755018449 1.2977350100830167 -0.17381145879893292 -2.1945118814801363
Ni 5.71397788875712 2.116246474776898 1.034921524864658 1.1809069106476628 0.069695407613609 2.058126942958778
Ni 6.7160288377336785 1.9298665344943382 3.3652590409613525 1.194486706214627 -0.7126077235129469 -1.0345581760453733
Ni -0.17142889124577076 8.371154273143356 7.274678752018722 0.5034574802034039 0.6107730121626319 1.0818078530609563
Ni 1.0065003871649385 7.333573389327791 5.65304400367203 0.7118541331763741 -0.2347751429664989 -1.5332943395137077
Ni 6.531035248718235 8.744073396759429 13.510571993377612 0.44956895771506444 0.7596969636912657 -0.5065952545014372
Ni 4.918512013057518 8.482287188231675 2.539814255834183 -0.3565698423785085 2.076980328219855 0.5066752158097532
Ni 8.758948571166059 3.646890680533114 6.692007491859396 -0.0016933285420228901 2.436261141771624 -1.2443807628315924
Ni 9.239244347315628 2.332011441579355 4.326598098876139 -1.657719534570029 3.3835694462593917 -0.706083292130868
Ni 6.617326247857951 4.693857537116591 10.273897969165153 -0.20185448097907815 -0.32315784257696606 -0.09875967196941701
Ni 2.1545397449118484 0.5315430001175974 6.751001421894353 -0.4640370694242524 -0.536086836202651 0.2310151617034344
P 6.625653722698942 4.662767673227672 8.010776944875543 -0.5258263348169073 -0.09725403395816799 -0.23422518400029987
P 4.635293563319205 4.93474543701639 4.395763912971649 0.033127121571271984 -0.6180656891693033 3.8556250151127474
P 3.473353223947965 8.237436946534643 6.054210034355603 0.9374067291033406 1.2242536530644141 -1.2328357383064703
P 1.9012215197994562 0.4179202730914429 13.238169893694298 0.17415958616697103 0.7257810276701113 1.7340226773081426
P 5.586442939420686 1.3816582807326385 12.81124395770957 -0.43801801965267145 -1.863697036578545 -1.2041856786699456
P 5.03889975957767 7.750256250240948 11.07894278274147 -0.8161974698811556 -0.5128481773896846 -0.2859570651569527
P 6.9048348927336916 4.590527531524948 0.8716383840370263 -1.3040586383081991 -0.805914857008225 -0.5058074684928192
P 0.6932327737118742 0.7025409984019672 9.124020759265486 -0.05745644234525589 -0.24498113696522322 -0.4470132811727463
