# total energy = -340888.00011336966 ev
CRYSTAL
PRIMVEC
9.10691513616077 0.00000000000000 0.00000000000000
0.00000000000000 9.10691513616077 0.00000000000000
0.00000000000000 0.00000000000000 13.32889084285898
PRIMCOORD
 96 1
Ni 6.500734389777381 1.9147288483585507 11.591895944770643 0.7844428031773781 0.9253564828070255 -1.0953202857250943
Ni 4.477150588151624 0.1416380253638567 5.779273666630734 0.5746677817996425 1.4165770546246055 0.22033531339208504
Ni 2.7876721718277966 1.6652631297231844 4.659060301697771 -0.7387751259369341 -0.5896691403044813 0.20686530393010827
Ni 3.630098223616426 4.541846111284747 5.54673770271165 -0.07140724809839315 0.47695017794149475 -0.7064815560105511
Ni 5.248825018428256 4.501839434324752 2.516241485252568 -0.6314338829460932 -0.5257669423338817 0.40987343889765543
Ni 7.002325046185904 6.075277541560425 2.720280091205974 0.36260602127025937 -0.09157086753046165 -2.2937919447293984
Ni 5.1013567461739395 4.726252030192773 11.688730681120138 -0.11831496839352526 -0.9085160142109192 -0.4393382811259917
Ni 5.728231230248902 7.968413894796702 12.264005385624115 -0.08204107366315548 0.321554245535272 1.2425007722000603
Ni 2.010752158594425 6.9647772362368805 0.1314018530663299 -1.3840402583391649 -2.6302992120300765 1.9110593279125925
Ni 3.0331217410119087 1.875168410226472 0.3027138497951878 0.34690120894049287 -1.3352206657333003 0.008842537992294449
Ni 0.3962436867436395 0.07802622509853219 4.482358832757457 1.2499731693177054 -0.07527161614980585 1.2507997789840588
Ni 8.89019760263573 2.4347610073493633 1.482358941074823 -0.3725441063195778 0.5358580080212965 0.0258293023582781
Ni 7.115123293585519 0.5205494317546021 4.883492022086989 -1.0024376413617446 0.5785830576936487 -0.3338916840547024
Ni 0.822902647721514 7.231883048947255 2.659633502417585 0.41409673295038363 0.5549515343176379 -0.37192112802359817
Ni 7.411070705643107 3.8630531056188597 3.6687233815928497 1.07814428816644 0.16754105240918887 1.0527824123628837
Ni 7.722454338380684 3.9394601212560927 12.527277187180346 0.3810850539110533 0.021989874007529872 0.5173643200924832
Ni 8.163210803554797 8.85856928734275 7.039026823744857 -1.4527691882744465 0.34845878323559987 0.14280601155635406
Ni 6.906857257756212 0.6272697241796891 0.4459911198330256 1.583291497367441 0.36150738888944195 -0.36721652345907724
Ni 1.9082720457260363 6.581640221353206 9.4819731261663 -0.04149066304461887 -0.40408022925464604 -0.7376986050433038
Ni -0.04235170753527439 5.238197248791945 1.4486906768542211 0.8067725770228299 -0.759237250446028 -0.044094419216053095
Ni 6.518237880129557 1.7048508885998295 6.995161546960607 0.1094300071990696 0.37804909529820696 0.4520999516670343
Ni 3.661416903804322 4.338543344051662 0.5517624717301746 -0.3509725507963891 0.46689485058802166 -0.049272363872566755
Ni 5.963745155325718 5.5592159974465885 4.804558748268852 -0.8193997788685372 0.2123947183887697 1.0905321203078315
Ni 5.535210169887621 2.520438862309445 9.18273902853738 -0.6509976640106337 -0.02061047716149999 0.8094205561686383
P 0.34510835983028276 5.7269835829137055 12.576727734845443 0.06369188173200643 -0.8524981040844029 -0.6101307505929429
P 4.132727068318472 6.39168819129821 12.599426720122654 -1.7129398884959146 -0.15437700422340508 1.6609719800690557
P 2.6824873052473386 8.6183197665411 1.4379736594523265 -0.5729196887602843 0.18969753390157007 0.5643412030626539
P 6.2725151034997815 7.63229588131172 5.895208335506566 1.1877871827072641 0.6689066830805707 -0.9475345615659617
P 5.067815978761314 0.9683473634949491 12.727104755704591 -2.862305791112503 -0.06378521277676112 -0.47626215073553463
P 4.041794523486795 6.020107851366103 8.508417518065519 -0.7105912073035504 0.3655915862611445 -1.0313013596709721
P 5.05853603252361 1.0295913658978564 3.881559267296622 -0.5116510717577898 -0.09280936792325306 -0.8395664836243992
P 9.045816563685676 5.61903021421719 3.8443456811227925 -0.47062115039967334 0.022727266394186665 -1.2339533968506813
Ni 1.6323780601801512 1.1088033113105684 2.6136353861741877 0.32641671583389587 -0.15759731093291568 -0.7579637830502429
Ni 1.827785132233561 6.182602533131914 4.753855089119646 0.6208517365548727 1.1854425937344875 0.41191643746961315
Ni 6.093445836697049 5.9289658474927505 9.342273052283682 -1.3558887356056133 -2.3742013963264013 0.7018119184490236
Ni 8.79685172536736 2.3448302231517855 10.365904853100133 -0.2515045399060378 0.5313063840948721 -0.26553967784286525
Ni 2.1651325792240286 5.484593937121025 7.160546763501537 0.96412254783163 0.17529781353647228 0.9694964105490335
Ni 0.44690636477599843 0.016745795036203107 9.206944297531683 0.4977154355133042 0.19815774885378132 0.006948663403691257
Ni 1.4323264615504614 0.963839440641501 11.472362223143937 0.4850206136544551 0.9654458946287438 -0.024570490250512524
Ni 4.195227824971432 6.747067329702471 1.8690303496138982 -0.3983225008352624 0.33731973589964487 -0.42039850679869534
Ni 5.989417548303234 8.06624948108881 8.094808766075504 -1.633821644906509 0.7737665544104545 -0.9199749067801383
Ni 5.037699411334339 2.7466364134891346 5.283731823069199 1.3748465076550387 -0.18064905054605665 -0.9415883712848558
Ni 0.8249535249469615 7.4749557133540945 6.932449509883002 -0.1779643046250419 -0.801468134090781 -0.04959375176772749
Ni 5.167345451216538 4.228559133342382 7.540046476591945 -0.8973821090812868 0.7299439007985493 -0.9516616963604577
Ni 8.072323793297397 7.116243444112739 9.258514024283645 2.006148750119274 1.3396272794414281 0.1398268743233721
Ni 4.572509093603051 0.4265086968827595 10.438014315617078 0.3035274699405482 -0.15332182348601336 0.3224289348307415
Ni 7.816947686920843 7.450412577818654 4.233055217206518 0.8776512063112626 -0.134466124232091 1.9869174126934877
Ni 7.101226141516101 6.093655295738726 7.156640807720034 0.6430341861891828 -0.49544772252505004 -0.7858255424575176
Ni 2.3252230354680004 5.276054693846055 2.4754151859555815 -0.15094509572372067 -0.7783135503511887 -0.1810151756362237
Ni 2.418559805821516 5.038282253885087 11.9037658867615 -0.3208433355111765 0.10000614278200841 -1.4808790591367853
Ni 1.0007588734654989 3.2343754524025186 3.6342956006733034 0.08896916824155646 1.3677826588297217 0.9481192304248381
Ni 3.901120009714645 2.5379150319170556 2.6913164591996983 0.4439359277990032 -0.018214980346129922 -0.3286630886659114
Ni 0.9751046943176938 3.6017757184159738 8.191483220723544 -0.5388340599304849 -1.1574723337738064 -0.5106575974962689
Ni 3.286494326120264 2.423750747289123 6.7982536553390185 0.7019219616643266 0.14311377260476 1.8739433968969015
Ni 4.229570000891337 7.086627757002814 6.312535440832059 -1.104263610961311 -2.660009080389683 0.4746780940778664
Ni 0.6274737190724511 7.601232194739778 11.332928981866583 0.6067566919143873 -0.6230199478507851 0.17449537223983497
P 0.08454768682652057 5.6396027348756546 8.220659954537437 0.31502312928497356 0.4773597546750876 -1.2284154977515878
P 8.532468880198765 1.8617357108146821 8.014542239922532 -0.5009748229908663 -1.1963427855867592 0.7369352445147179
P 1.7576436740168784 3.3848672203888444 10.26816397872252 0.5390029814081815 -1.1614212911192257 1.8079331514443637
P 3.784788279351115 6.017676305099698 3.954921841297678 1.729912254684195 0.21773952764045082 -0.45912831926872544
P 6.726267136172622 3.9310362250148008 10.587257525576721 0.7767359214514236 0.18974869885447965 -1.5641195524246805
P 6.302403998055371 7.799243844441846 10.246224510144254 -0.12297509287335597 0.7835840547215085 1.1603902787515499
P 2.290015702636827 8.630413749469138 5.746991474851131 0.38505355164049815 -0.5843204743980581 -1.389507194991007
P 7.195965376757357 4.18872548776464 1.393642108627477 -1.597691989063487 -0.9382366812038034 0.2133532256472971
Ni 5.528762474169962 2.8490527779535353 0.3568754045150109 -0.16048080312829782 1.030287316584161 -0.15722501519516147
Ni 1.1772599902789926 0.8911516890312341 6.93466157950139 0.32497612673262743 1.285228907196206 0.33599304666842134
Ni 7.058359893291494 0.5892538188070947 9.504858803198049 -0.22592283478219155 0.9047740306699836 -2.1244719460429153
Ni 2.8350827705652737 1.512121249513922 9.060806545537748 -0.9798821246587318 0.2773662381641481 0.9804572804359114
Ni 6.3789658312451465 2.045067013769764 2.4139690100428837 0.7509618978111131 -0.29564678164089087 0.8715528067230086
Ni 4.009401227345956 7.002115587144229 10.601080000944325 0.6700582801865105 0.2761218242340857 -1.2287582258029872
Ni 8.465906439520273 7.356201543639016 0.28665744821354233 -0.6317313595818539 1.0075060570235874 0.988104255458208
Ni 7.3626856670160965 3.9376023106255813 8.256340846941095 1.8896312399458037 -0.6463578512457772 1.4935605112591954
Ni 3.1789780893368107 8.516176609522363 12.593802289507927 2.068037774314587 2.4071346567193124 -1.613783495308711
Ni 0.13993321090291627 4.888965277915115 10.225244910391751 -0.7131263150205783 0.030315106043773594 1.5616227541447556
Ni 8.807889306172166 2.3014175600358513 5.730076291198617 -0.5342582676343444 1.2160137816531251 -0.004107080189838089
Ni 3.6731466101381423 2.7699227947745224 11.463098669352972 -0.30585791784593774 -0.3127451318840743 -0.6589611418320845
Ni 0.9581567257716996 3.280966428803005 12.826591425659993 0.9624495310045813 0.3390940541912483 -0.4526843634155946
Ni 2.796296420195908 8.47612439798809 7.933155563242338 1.1006707514037302 -0.7195602435713802 0.4436561917750553
Ni 5.469394496227277 7.859303947913545 3.7067775360078374 0.5336039218797971 0.3314187970341776 0.2750008232557651
Ni 3.176218694135609 8.363626678778704 3.567810568771084 -1.0436760791862412 0.07529475607825742 0.8166240158956128
Ni 3.3776272230787607 3.994502314642438 9.01563442647174 -0.15903790003418417 0.031597572300623 0.4914303738355408
Ni 7.410843032771721 6.290938392252358 11.750990104529427 0.10404226052459502 -0.45841586658273314 -1.352265022810097
Ni 0.8268586915347219 0.19456195035482401 0.46796974814517084 0.18197136890190596 -0.8189706617509187 -0.02279745751048977
Ni 4.807221610172587 0.06571367621396257 1.4507160547180735 -0.7629314114681636 0.7250701176460157 0.6704848262009679
Ni 5.797452890065185 5.7360813908543005 0.424327590774879 1.664963617726952 0.6318005222568924 0.3152730405122506
Ni 8.061741558235363 0.07192094937943791 11.404104985610847 0.22326637099595095 -1.166620575931978 1.3219658576059234
Ni 0.12500060261443344 5.157173027322998 5.951283253037519 -1.6884565586425695 -1.4243548987978114 0.5966136899431144
Ni 8.362916339419979 8.942453080076307 2.4469578984152687 -1.0051982348260171 1.1777907336161844 -0.8554479307413462
P 8.405072248285862 1.8924806553666842 3.5531757565983746 -0.18204490245231875 -1.7954864410405786 0.22604856172677842
P 2.091275499746322 3.197665478620196 1.6856243699570015 -1.1658523303073858 0.5329302928515403 -0.25527994778807006
P 4.576989695711934 0.877757238661837 7.906618013353554 0.7252526659704671 0.22965247702795288 0.8232199239455756
P 8.674500324284375 1.5735564971287939 12.786591123540397 -0.49958128507744926 1.02408247332503 -1.2033271873243923
P 6.555384985824942 7.893737192982004 1.4753211172745306 0.2758685705726991 -1.67423295884402 0.6013622603716934
P 1.690981057274978 3.498266524168919 5.961519425335046 -0.3509761503408149 0.11218417290543904 -0.9568064737861908
P 6.821616534709193 3.96434931955604 6.15249598331128 0.1942879814857299 -0.22422127871005257 -1.4783506362879766
P 2.4395148169039085 8.584296332641136 10.271989793653296 -0.28149902938559906 0.2799324562294276 -0.10704505190666082
