# total energy = -340871.4613339895 ev
CRYSTAL
PRIMVEC
9.28705847544896 0.00000000000000 0.00000000000000
0.00000000000000 9.28705847544896 0.00000000000000
0.00000000000000 0.00000000000000 13.59254882907971
PRIMCOORD
 96 1
Ni 3.526992611103458 9.209047128352813 13.28467735909222 1.0061863097708994 -0.32504220408387247 0.9787192146988822
Ni 5.707491770259194 5.5707676962136015 1.728442303548938 0.4476426872266291 0.9650244908206091 0.36285336139437513
Ni 3.9641623120644827 4.253463468877026 0.9022042920026356 0.2429821042573235 0.7387306458522438 -1.0320942878859127
Ni 1.4259720978981487 4.43767227261934 10.703928271014641 -1.094536099260902 -0.7194867100209673 -1.2560250319387403
Ni 0.783430244469427 3.4755608815786316 2.6516344188728365 -0.5373173661756424 -0.5226183694025709 -0.4485040067856598
Ni 5.000096530478403 5.048045613096076 4.736786135357476 -1.5091208275912977 0.15055454515352135 0.727439903429773
Ni 8.509620184695583 9.221501073692789 2.849541633783283 0.593591615287339 0.09415251221470883 -0.9227815229909978
Ni 5.483376476490124 7.787551392612657 12.391062667421384 0.2038146900292425 -1.2288746967761932 1.4838152589469735
Ni 6.715592674591153 3.3206341730316558 5.452053085854275 1.6117885763658693 0.5234596343569436 -1.2106774570418763
Ni 8.719015490870424 6.9613839627103395 2.3989892816403744 -1.1544302045133732 -1.1682686530583621 1.5281752731195875
Ni 3.1027597825202022 9.025999206912882 9.357110700728093 0.7463922761625598 -0.29498523679749195 -1.029946902525607
Ni 1.565147955366377 6.156400313061927 12.302983276669053 0.7188732448066845 0.4275651997504637 0.09292840999962061
Ni 0.12982286093437992 2.7082919761700754 13.299969429485063 0.3480155250505942 0.35626002444757354 -0.7574156238562569
Ni 8.154761682502803 2.042075553419453 7.223461036473212 -0.0010888621888045763 -0.8056492620516641 -1.09451964420067
Ni 5.393199139240925 3.5044900685540443 2.966505633630614 1.0383256135076053 -1.3771797837739055 1.3645844636073983
Ni 6.728975325773037 3.395850059167728 10.811934903016775 -0.8495670464805368 0.7535458564882055 -0.02073568988545461
Ni 6.399516928356421 0.3164007932793989 13.53562296463399 0.4128628605432825 1.6464236499412357 0.11975221506068409
Ni 8.492179088984564 8.0303522479209 4.734692832389817 -0.06820751021417285 -0.2680282485926739 0.2909390917525764
Ni 1.4647827150314547 5.102114867211919 7.182288720383936 -1.8988702420455683 2.162328354769057 -1.7858805425196986
Ni 5.071235397968502 2.453241490807073 12.806654816851534 -0.2577633763315561 -0.561452054440317 -0.6625306043508977
Ni 7.187022334060138 4.606557429970183 8.243350932762342 0.3201974743970614 -0.29567840620977465 -0.03950371452157713
Ni 2.490092538613955 0.7474521801539381 11.328152330417582 -1.8246957156146835 0.5703920372424242 0.5151398016373387
Ni 1.5330054461779652 7.239939992932015 10.052804246900854 0.18094986961592707 -0.7481100301846147 0.12684306046919447
Ni 6.243754384551728 2.252390278377781 8.583748556290782 -0.47192932768813567 -0.06461336510501131 0.46111218246797364
P 1.5342499120061208 1.8259378428323667 9.621282006164467 0.7374898314666073 -0.17321419153456621 -0.11173422985221401
P 5.053636422264358 3.923150662085856 9.447379051149799 0.04159273584012191 1.6730343105502286 -0.8093135982771288
P 6.468334031241753 7.505726317827467 3.00520387735705 0.238026560024261 0.8406712866528039 -0.6834971793002358
P 0.23385927546236168 0.6142711188952213 5.922789930765197 -0.1320857969253725 -0.45344566706165135 0.12566832343480291
P 7.925900701881588 5.038043451178734 0.5767504741763244 -0.6057781300512018 0.4024362658933198 0.8768287104099673
P 4.205365793324647 6.217239832765276 13.269167971532367 -0.20059644020226097 0.43210833903645585 0.15734251460963225
P 4.5852157697231535 0.27916990478317705 11.433059871025273 0.6458618854459651 0.3276343902910809 -1.1482891246126419
P 7.690102288621324 3.3753070859447383 3.114664862707612 -0.2739273876859282 0.049659829118972536 0.21000127845592864
Ni 1.6412739732275186 7.844007420742201 3.552032378012963 -0.9262201163589016 0.2777539605208701 0.25875427948991564
Ni 0.3814872847977884 3.3434803367425747 8.567029993724768 -0.4522848139843307 1.1525065051280992 1.3848547838206602
Ni 4.034743956049438 7.469181742948414 3.315113945507359 1.1147295434896414 -1.2260289997972822 0.8172472513019087
Ni 4.4615585868731955 6.156140275426194 9.585641990775432 0.07678625302211936 -1.3007414010095082 -2.1620064526532636
Ni 7.787913587891 8.784024899803935 6.97466259883793 -0.02845696978911228 0.15270193051382733 0.41257078322416046
Ni 2.9850927523505475 6.588601437768748 5.242170209112434 0.2240220182150529 0.6056066374703442 0.6858916476743413
Ni 7.109187497449886 5.664483402720467 3.898805567146098 0.7606773253266641 -0.6894911921001416 0.49502091940027654
Ni 0.19119081426177253 -0.006605884653486643 10.247408983837477 -0.14901573991149178 0.07840476246214884 1.0642513322344316
Ni 1.9584084441220242 1.2513661125611566 4.655081381503997 0.03470963556704344 -1.4210649151926302 1.0053810402607848
Ni 4.839839050398878 3.1196900900181723 6.64271898458837 -0.5442819704189336 -0.5738571129728891 1.5768359715500844
Ni 2.4889966657205043 2.567119401141747 0.9006719273634887 -0.8389859285305807 -2.1218861875936104 -0.2655669315363749
Ni 4.036341330097518 2.312830454569108 10.325172310097901 -0.15291687473811086 -0.9488288548973529 -0.28778717638715595
Ni 3.5109445741553 7.37504811881269 11.138373149035507 -0.09523083288055212 0.8076218123970027 2.0858727456134787
Ni 6.216673322201711 7.006194019582366 7.994988058166913 0.4563990932630204 -0.7836642731401406 -0.7751199831145553
Ni 6.500773726299574 3.2852690545718253 1.0317197513033443 1.2469914609815622 -0.40257767656719057 -0.9622474422961043
Ni 3.297175063465077 0.8829327170772173 7.1340489528377455 0.3754116576753599 0.9706402943454896 -0.9096897228040463
Ni 3.6880487782070226 4.6713810977353125 11.342220366510794 1.0015603809631137 0.13480730962159365 0.7439011343095899
Ni 8.88094464146538 2.4586837070406498 10.656952472119285 0.8823375560433385 -0.17455373628159618 0.1372871386206539
Ni 3.9163432482646754 7.965463570746838 7.097199762442546 -0.4869651389753355 -1.471239222054176 -0.09149964797289403
Ni 7.9449484586991055 7.637119620340512 11.923166733680857 0.8743234274896102 0.5366969589828241 -0.8049162405403816
Ni 7.16786313254159 7.130659176514783 0.40689853404405596 -0.2627970821007216 -0.21843064017020447 1.0815402012218664
Ni 8.691674390884673 6.070634328561788 5.9311631426358336 -0.8768863031207802 -0.9472440269087364 0.7646211404657606
Ni 5.988276694501448 7.963253250843099 10.255088452444207 -1.4962393436429393 0.4956048169282045 -0.20762660757616502
Ni 9.106694457516207 7.11555841952537 8.664855223582073 -1.3660633621457698 0.6056135794488795 -2.11232811159153
P 7.561587974218191 2.06846008638804 12.348028296119082 0.1142989052555967 1.2610294271318667 2.630154716032412
P 1.2435649834891351 1.1760387817240552 2.564274775147984 -0.9721924693239581 0.8314196861475487 -0.14231750195570975
P 6.066826634609968 1.0006619705382802 6.520426999326017 -0.09704526038147157 0.8488923890110155 0.5013116375049946
P 1.2457195810423602 5.760743763234159 2.7959738808220695 0.00032987253559298033 0.6327433457861361 -1.0311684336375337
P 8.958640172199345 3.9560918582983082 6.53618063652229 -0.3422025179132429 0.29399716185260977 -0.4341235696942717
P 2.125519773314824 3.937592037927515 12.699966947144906 1.651993173609213 -2.149234754809892 -2.755654375099835
P 4.436882872653719 1.4325659093756904 1.0571876516059684 0.8197880154458914 0.11578937375819413 0.34598203956033313
P 7.626671679619054 8.712867458196998 9.281984899058685 0.5647428093764467 0.3073198471034449 -0.914850183959063
Ni 6.763003107820521 0.9008084471222491 10.910073106742805 -0.9559970905110181 -1.286632729522268 -1.4846706649687333
Ni 1.6800660162439867 2.8598289083940904 6.6850326801573505 -0.2544204280012522 -1.7570615614054772 -0.45947927485024087
Ni 1.2745930456672583 4.653652103213303 0.6409881285552106 -2.490549470801543 3.0913401749404823 3.614674082352839
Ni 9.11006565972233 2.6745706670504212 4.6599060083527055 0.1750317043592792 -0.14929984681081385 1.1279465564005478
Ni 4.056707849210546 5.262855274329236 7.063341004858291 1.1546446345170243 1.9679411287013011 -0.7633677276746337
Ni 5.064623012374121 7.990770804938812 1.3387926231066263 -0.036052522748183075 -0.0347011509266112 -1.1558913624399318
Ni 7.350446701060565 0.9989438647307519 4.597801591292681 -0.3005771290629727 -0.11920714119049146 1.1085992622221876
Ni 2.821009004202365 4.13940910443239 8.524023483597725 1.4666359189542097 -2.094344787640232 3.419443791558498
Ni 1.1101285281238942 0.1725405435445901 8.076338975094625 -0.45692668363171624 0.9622050190939427 -0.6944855599909394
Ni 4.861756508267891 1.6585664760038326 4.722377264220284 -0.40031896244000087 -1.1323074044724049 0.10168507314632809
Ni 5.941859976522922 4.8016971014717456 12.848601673612961 0.16039569961365924 1.1157114477869365 -0.44035463820564813
Ni 3.1576091495432475 2.6874332429608376 3.3115802197789015 -0.07589793687989509 0.751177613366345 -1.2646495403829576
Ni 6.780797111751464 5.886731997747304 10.474445057479347 0.0830016378042119 -1.4033109336433187 0.31670617341435137
Ni 8.227702239326204 1.7397446536449497 1.5508282399900082 0.3688252627070938 0.5027987635734824 0.06752642498674821
Ni 5.842098394985239 0.5958530246385157 2.655521981527061 0.29602730490876117 0.305758416153596 -0.31445003039032293
Ni 1.0208613225997643 7.741868352249236 6.412679476253773 0.79804728133469 -0.036929526036497684 -0.17934421569170403
Ni 8.492244098393499 5.019246444938531 12.174098408634999 0.5077903032508029 -0.2798141854840084 -0.9122374289265645
Ni 3.214148761198564 0.2642344574336238 2.4931721271857192 0.29273500731073454 0.1887670516675007 -0.3667087305847233
Ni 5.909076660303594 7.824142402783804 5.120122473486502 -0.05678152776541833 -0.03805206967671511 0.3291348860960074
Ni 2.736162438485714 7.280877346443289 1.2840416989028232 -0.5270915746825761 -1.1703281066905522 -0.6906772419884428
Ni 0.29111120449842115 7.21284035646516 0.422758043706307 1.331948165629616 0.15747286953990947 -1.6416953912276309
Ni 5.386911800691213 9.226423214654897 8.408948471432833 0.7680383936774255 1.1335924418324155 -0.8474263459884502
Ni 1.3537187833977604 0.3128401350815263 0.3635066109926211 -1.1163007446315032 0.3266506862215729 0.43906625841152763
Ni 1.6220497623000374 4.85755875786247 4.700140331541657 -0.7671786167802916 -1.1500557295947613 0.25581679412814656
P 3.180780360298835 3.371712994336557 5.359460184710275 0.9359144608285301 -0.11780974662233258 -0.22154938830484427
P 8.868657863176947 5.519335966688776 9.996000882786436 0.009788961065963787 -1.1782802716580931 0.2805230386255749
P 3.7583703845562435 4.878946853401595 2.9810222346454673 -0.676005756019197 1.1389627050053932 -0.5112273539568098
P 8.43052230814034 9.064763388754093 0.5289620576693004 -0.24683695922703944 -0.647367266346898 0.3325842780971885
P 6.392310171023221 5.425973168401834 6.2619375162304305 0.5356253231852001 1.055004616825183 1.0129801927642814
P 3.7504299496079363 8.815015813748381 4.997898283750607 -0.6251845596022717 0.5139995173853084 0.3919507929809637
P 1.2970212917493196 8.344923490691743 12.07321402173445 -0.3219391396785165 -0.43953188519403663 0.22162420740683766
P 2.5495297124960223 6.5818683204149195 8.206813787530024 0.6576143979962029 1.0360116206624481 0.3846822843440084
