# total energy = -340867.554598057 ev
CRYSTAL
PRIMVEC
9.28423624627303 0.00000000000000 0.00000000000000
0.00000000000000 9.28423624627303 0.00000000000000
0.00000000000000 0.00000000000000 13.58841821139986
PRIMCOORD
 96 1
Ni 3.011472028734159 4.142867634798957 4.465127191057278 -0.15463385742921756 -0.36219901563982787 0.9472789939117298
Ni 9.313574503782661 2.0455772192565753 6.460613170112631 -3.2326019819381684 0.8217816488371524 -3.479999698764684
Ni 6.318804816182822 6.317040811282589 5.567052774204589 0.48458763988209447 0.024463789469319156 0.32907420806140103
Ni 9.101810357627732 0.45095299796670624 9.514297836109389 -0.24844749824726886 1.1400387116783912 -0.8726378122570713
Ni 8.993732562661291 6.163330994817991 6.099596569348907 -0.012013479521108341 -0.9208364834494851 0.016930971427383743
Ni 3.1736397844835627 8.106577361388362 10.803118810012856 -0.21233686856764075 0.9082239368917971 0.11447759692530607
Ni 3.886102795215428 4.756602076535622 2.0436163885464205 0.14039945899739045 0.23857240522540205 1.4536379640326451
Ni 5.969179044956451 2.054295117158258 8.807903930657961 2.4885990319433917 -0.3648336250491975 -0.5456546823967442
Ni 6.079178676840513 1.758935707204873 13.22265856915361 2.1552220827415787 -1.549718546508002 -0.2756487412524091
Ni 0.5337795269981128 4.446768542164001 3.985768143655015 0.22460308752950348 -0.07915783857808947 1.1713550052931698
Ni 3.7606727625724754 0.3391652221679847 3.056062358917547 2.1642836787232143 0.059885363501722674 -1.6967036291427102
Ni 1.0688198532880773 1.0703331838077517 0.7548566906026456 -0.4231228477083939 1.3809166251085185 -0.01586344939481784
Ni 0.1437923952307559 5.216691691461909 10.353450750352424 -1.6491950420387858 -1.4351954410567411 1.6449066990760768
Ni 7.9635722693972895 3.47734572288595 13.48926377080955 0.5831786474841311 -3.375128257470574 -0.029121599956304686
Ni 6.271826580418697 1.3049458355388692 3.2739800969033976 -0.3913707521077776 0.8550591799433598 -0.006439327867440522
Ni 0.9480040860946846 2.4572773944985493 10.164748647208976 -0.12951340821250598 1.4041316297724011 -0.7105295008276795
Ni 3.16239657430365 7.225243376286205 2.4417300123620658 -0.38000390503173265 0.0004851671665346483 -0.12308590741960737
Ni 0.6339805758731925 7.869977883085402 10.586437732304432 0.40211899176321714 -0.4365440062103062 1.0757801588096376
Ni 5.3825545732654865 1.0838881688306021 10.96662813791007 1.7789699314427945 -3.050473004412476 1.3816984975798654
Ni 4.969387488685424 4.261139521241486 9.274176846971383 -0.8490325141333055 1.4873700661777676 -1.8690199914533552
Ni 6.449786822143353 4.793674032149487 0.8793490153775786 -1.5587325770811542 0.31657324738091286 -0.05267804712000605
Ni 3.8015512550763186 4.483255590889893 13.330700155598414 0.30322742220162613 0.039658752042202663 -0.5087038162040077
Ni 1.3606141164957262 1.3710031769344726 7.830108587069219 2.3938916756664774 -2.5120963437343833 3.3774083117540026
Ni 5.835978106516152 3.4390853850235064 11.111603344847614 1.6740527245124137 0.5171257217191159 1.0899543934274907
P 8.791559032621846 7.641929186430418 12.630475625179647 -0.6264122613617857 0.16374044771617605 -0.3433960240007118
P 3.710073674644712 8.535759753615286 4.784088058152163 1.4175985539105844 -2.550713798996265 -0.5836589295546594
P 8.144679867233416 4.139126087563198 5.635388467192389 0.8254038189707721 -0.6562823094483408 0.923511716288803
P 4.856556164724669 3.114313514417799 3.6521595369227673 -1.0059752222013578 -0.9870205354757259 -1.0666769109567886
P 5.900113610994132 5.696955951905082 2.814351908522067 -1.9540304321574795 -0.10827146811459418 0.1283939498960821
P 4.017159075066495 7.15672571226659 8.946574212712616 -0.1378242420710465 -0.36196915901720883 1.1353536474978965
P 4.336360403881989 2.562161412171934 12.395586303206281 -1.6571708611554103 -0.580511127954297 0.07254316147504926
P 2.0110491443935747 3.0992916200568597 1.2488309828151631 -0.6670241213458771 2.1437585621866693 -3.2634482778950633
Ni 7.9721044825726315 9.080939394387068 0.44870899804888226 -0.5255723098245723 1.1884158174301986 -1.9496454157159067
Ni 6.227122982552241 8.098648623573627 3.2678376461560563 -0.4702362562564289 -0.0690883701572294 0.9880970563693563
Ni 5.980301560064242 7.406982302191889 10.480298485880986 -1.3552657573096338 0.13342714144461537 -0.7005055409327743
Ni 8.107292247584773 7.5804768262480575 9.211765425177473 1.0985814729748693 0.7993058363321395 0.729151486804241
Ni 2.311384905012883 1.4083258069288964 12.012052644102885 -0.4383764314333547 1.146202417286942 -0.1106998750504287
Ni 7.698108100384712 6.263517188914963 3.578672949626284 2.5893677639230375 0.1015467477962509 0.7107138489243437
Ni 4.4139673352559665 9.44197549204706 8.531325602350277 -0.6853758843801874 -1.3312421407015267 0.4965841501223383
Ni 1.5474779408484054 0.22111801424432767 3.2265292935107355 -1.364004165623896 1.302024638597306 0.10005447952144059
Ni 7.2343790648221535 5.59427229823883 9.800592117722834 -1.0894537996419884 -2.3081068186901734 0.24610239505386003
Ni 1.5115757990104859 8.439667907734119 12.781647131435172 0.11004578640619758 -0.07814636659443962 0.21061680055274049
Ni 8.092883112820756 5.514112201877672 12.665886630916397 -0.025441322891240056 1.929463284341077 -1.1781689428912097
Ni 2.8486915133878323 3.8618523699553693 11.138331732780687 0.7113026315482781 0.3401381791850464 -0.24759646310088324
Ni 4.964717517817962 2.6846761946113413 1.3140341744696007 -0.9987501652078283 0.017439278522369966 1.3880151838265127
Ni 3.907967171742012 0.07692918212283498 12.914949268051325 1.0866255861645737 1.2087678987239892 0.4634436588146277
Ni 8.138032354030429 6.827339576211324 1.1526945725996756 -0.9241403510117374 -1.1366235153492554 -0.06494169497870751
Ni 7.583076412416823 9.233971461600524 11.290426092126122 0.25088104738942596 -0.7030185371626151 0.2432057902323553
Ni 6.711175211412758 1.8935942707469438 5.826632594239439 -0.576432072788917 1.8552481344802434 -0.7319871564808231
Ni 8.26359236598182 9.267274017269678 2.6389931098134403 -0.05756699978119118 0.29176595852924586 1.8318058442969032
Ni 2.2293586771520038 7.933918418600726 7.774653843547654 -0.056032308304219625 0.8127689038155809 1.311197563345826
Ni 2.8328340377583605 2.6793191902564204 6.68967384852617 -3.3699585403441765 1.9092968366955312 -1.6590066288125684
Ni 8.661728271964625 2.226972628418529 3.675980102041348 -0.7454427677650968 0.4446411813961439 -0.19942170316786945
Ni 1.9074742040408899 6.057927059910853 9.603859150165164 3.2848144022756656 0.4246562536337848 -1.5557218152792884
Ni 5.661833685917791 7.072749794779137 1.2072589578584387 -0.5420816203335052 -0.8154616201563956 -0.7536260749068376
Ni 6.423902371291498 7.137535195799309 7.9181751390779525 -1.2881052003027365 0.427372109903051 -1.0282155216567967
P 2.262401274204281 0.6194071101263647 9.97315171918188 -0.918682927441592 -0.5207388929916709 -0.6424708574865451
P 2.565448031828159 3.7705140530685175 8.996565183161616 -0.048919094298206074 0.546608304559265 -0.6510372589993174
P 4.4279215424404486 1.9384371321581546 7.40741401918063 2.9226567813967343 -0.5607141478330279 -0.5014029116672204
P 7.755178301025439 8.1009789668892 5.483144631642249 -0.6348243966848809 -0.8223094963161643 -1.2175497586816773
P 2.1559389363570025 6.0345307843919604 4.965914255879226 -0.9980127728211715 0.16652289555731967 0.08247404743551603
P 8.350474249436502 2.410011347408596 8.572185526381487 0.6119618902644106 -0.7138966175276996 -0.04248362308550748
P 2.0945794185378115 5.963497092330434 12.108436015004406 0.4191314671608136 0.993662723382592 -0.5566268651375317
P 7.873552314067456 1.8633090918808217 1.4601569130159289 -0.5599029647856422 0.12247347064658906 0.3801250039906292
Ni 2.5096497715628643 5.044014180201637 7.045771660889137 1.323293061057779 1.5864971487889323 -0.5526249430669902
Ni 0.6967401565289901 8.07560514903478 1.6265610657967893 1.1689638793531738 -1.231087388156796 -0.5840366246090521
Ni 4.081582390870302 5.981907732947086 11.130667595700984 1.1210994515717272 -0.666860084964187 0.09726020460575507
Ni 3.923833931607801 2.153404339842456 9.895575425787749 -3.1501402757978263 0.9829947021457845 -1.2768208856381689
Ni 4.990165609562916 3.8806343800247025 5.895539267760736 -0.2881633287796521 -0.6905887960396946 0.40261418623208084
Ni 2.690423136891577 2.401172754434792 2.9505479415982365 0.8016509395255484 -0.05098626123987993 1.5847500841908386
Ni 1.7113632803164578 5.406665734980789 0.7970451888508202 -0.12392691526366398 0.6441323043493681 1.4800946155622767
Ni 9.062268795153539 1.6488989383755417 12.05383727807127 -0.4001148168489948 0.15537767757377757 0.5471934876387737
Ni 3.5039079229889465 7.202682682035843 -0.051327900478649914 0.0009045140921403777 -1.6371805340764125 -0.12447070358227594
Ni 7.01517824537729 3.994719075888255 7.688843360963957 0.39725806412649 0.44562899923071 -0.6407926984531738
Ni 0.722117688077935 3.838038303802211 7.840435443124642 -1.2818203957352892 0.5449900522295517 0.8818912125345393
Ni 4.1597742291322515 1.4628428425824431 5.083794347549177 0.21476681816537208 1.1245953805401276 0.18855776387017203
Ni 8.52957645222815 4.316529275108833 1.9298408577522248 0.38165763858507173 -0.2786456190972039 0.7453838895027034
Ni 0.3242157448503177 8.476127103751061 6.547973191737639 -2.0499282091980695 0.09684085768014934 1.3790165798723284
Ni 6.654745623077907 4.061974083768754 4.175747757715686 0.8708424109195454 -0.09144385503429413 -1.094828176580024
Ni 4.274230294448485 6.247613292103907 4.379832912012808 0.09160249209934547 0.7476212634736543 -0.03411391096457351
Ni 0.42525980238298267 7.767804862416588 4.220956418037788 -0.24651017201523995 -1.278924819355049 -0.07945582943448251
Ni 5.946999004395088 8.099781300404302 12.625257884369482 -0.15984754041967308 0.005090270038713814 1.3297020499079164
Ni 5.606276815796738 8.952733375085328 5.617696426466675 2.0435418460557515 0.12372122701076112 -0.15554557061020954
Ni 5.334620061160708 9.271136259577558 1.3699438455707005 0.3218159838370909 1.1152833591105824 -0.977719055569142
Ni 1.108305710344367 4.152421113969171 12.592210645199044 -1.6463673427820031 -1.7501118695605211 -0.10266774877457158
Ni 2.0429590646151756 -0.006278929021201218 5.586389053182049 0.1684244834554067 2.0390146476093594 0.656686743975611
Ni 4.214346970203701 7.555734336463197 6.790173849810658 0.4055344452026693 -1.6467931174655124 -0.6904849234719785
Ni 7.520565649294322 0.2706800529754802 7.122803898035091 0.06028028494729618 -0.4344331305148905 2.0782229423777046
P 0.4214783329310601 6.852945499973667 8.074034256249941 0.3723016512914685 -0.909119452122873 0.4411128565279113
P 5.2277027957338955 5.467291798130937 7.312906064015148 -0.4517451394307768 -0.38516488040738184 0.41488683295184675
P 6.487982170351577 -0.17413049424388505 9.24763878588281 1.0372470357314458 0.9654934600372274 0.06995328926068599
P 8.174547255465272 3.6867145360710873 11.37059825799449 0.21966374124635718 -0.37496659971814134 -0.6319324198490666
P 1.2711512153449132 1.921400558516421 4.641029117590451 0.7627444922683381 0.3690407211520096 0.14467828887840245
P 2.6783907666247186 8.986908648968281 1.1670340755913142 1.1501863416353546 -0.46230748832765545 -0.282164687994056
P 0.4553026626812305 6.033518802633405 2.528586828378691 0.34830657392845177 0.9852688428919418 -0.16963110216899818
P 5.827696567721369 5.83794636461536 12.588704917565737 -0.6230081207762432 0.6837864284058804 0.14576560840531025
