# total energy = -340861.3028400299 ev
CRYSTAL
PRIMVEC
9.35139344806338 0.00000000000000 0.00000000000000
0.00000000000000 9.35139344806338 0.00000000000000
0.00000000000000 0.00000000000000 13.68670956457959
PRIMCOORD
 96 1
Ni 3.0793204207235965 1.3396151970297225 4.166398426348275 -1.42806345799765 1.0927250141940923 -0.02728120431345624
Ni 1.9123787077615988 5.866063787776631 9.008551002444483 0.10571604868259213 1.0775254236355183 -0.3571761085039397
Ni 1.1270393161833903 6.349895544731954 13.070575718653298 -0.6146191253815996 -0.08847705909648633 0.6002718555209919
Ni 6.905695627351246 8.92719574781722 0.7142912430511061 -2.304727617805295 0.9005239971443781 -1.6714566816504632
Ni 4.415896414811429 3.8267679651616793 1.3447219931114658 0.5250467763384054 1.2506257153000397 0.28024973035953027
Ni 6.1426686610633485 6.770156527536591 1.6593767520912872 -1.080421257126075 0.10542320003252166 -0.8399225814122374
Ni 4.851792927827885 1.9134167124586752 0.02840766368269349 -0.2962106245641608 0.37692346633419604 -1.6148543597753868
Ni 0.5371805226882207 0.3354213988969188 5.638787516085215 1.068116728727109 -0.9505478944709888 -0.03379946504794824
Ni 3.737565020968772 6.210681347206028 2.047121068835795 0.0786374472982452 0.05904281299576928 2.2635634848621597
Ni 7.8652234287712925 1.7478409361844731 10.179599847505182 1.1923655461065659 2.4887126747031205 -0.6608185067557973
Ni 8.567485039008712 3.1116481886316456 2.5026555085536994 2.6711812949564187 -0.11506586532860828 1.7757773926474256
Ni 8.771850396215106 5.080397097420065 1.1192926216693526 -0.3327449720447689 -0.6069628943879224 -1.2319096269477752
Ni 0.802526317999442 1.2804302265090275 8.276545414369304 -0.4398985245048359 -0.24090773822679798 -0.9327185795990518
Ni 8.369413169740447 7.484378570274559 1.5005695145535172 1.469697588598669 -0.8784927283759515 -0.3013137501186811
Ni 6.181196402972855 0.3383324877455667 10.628373229601587 -0.7845564459371068 -1.0524936774778713 1.6688781222900098
Ni 4.472612617403941 1.6507454157363177 2.2928111697976017 0.13706936618289295 1.209019609723479 0.8933668172743067
Ni 4.842890401056562 1.5538369231615097 5.521190935300116 1.0234183573784696 0.10073376497665233 0.21922716792957084
Ni 4.842909103843897 7.825610925196373 3.739920637033579 1.0131012917231779 -0.9317528732516728 -0.8269061145479114
Ni 4.099202116872756 0.2829423127750847 9.533683189531681 0.009715684625867138 -0.6844744556118405 -0.32139200892579484
Ni 4.021651009189375 5.401224711359708 7.063273156621759 -0.3533518496618431 2.5502767114588463 0.43210165416823654
Ni 8.235071048315215 0.421600102377803 11.906766722569866 2.505175962465466 -0.6484026495899479 2.5916866418642015
Ni 8.900647141195597 3.2532002345744107 12.516154031460575 1.1815671699394812 2.7517095315194737 -3.283957710702325
Ni 6.809928004803856 2.3580006701921055 6.751913828770313 -0.2649028155898147 -1.7239506377841212 -2.235590139577685
Ni 6.6826087800228064 5.1153993639169775 7.507803811411285 0.3779074275140201 0.8796949762141688 -2.2899522592683335
P 4.107375234938025 0.2152915255673325 11.73161792459839 -1.121502857657733 0.4499967892811025 0.2724639157665243
P 6.701470541049863 2.853559074806292 1.8059205719736868 -2.9881157823314926 -0.4075877281872723 -0.23617048065212876
P 5.114548387093248 3.639983228049914 7.048025709247136 -0.07620312682513973 -0.8697748888869795 0.015242527981367295
P 5.05378303104277 7.537765676721494 6.188705572087741 1.2747251794514045 -1.8461628843495237 0.4983453557878191
P 1.8536426041369372 3.1147060943608706 7.334721671440297 -0.4935376499865306 1.2721306792513511 -0.32128633658586603
P 0.6741634776851156 1.3249896173339781 10.402597856593784 1.7319395695268687 0.7904478717208774 2.1808390119787346
P 3.6906864845143175 3.9733230067164795 12.901955128601006 -0.15531288577411317 -0.4386232573368381 -0.08047244362445495
P 2.461847896868092 7.47051045346587 0.7295723554429323 0.5347534621032081 -0.15175884987426766 0.09938779247171915
Ni 8.191381337101328 4.000245669084797 5.454099361433671 0.5506274530209873 1.1783584331941965 0.42800820082515323
Ni 6.68768658678418 0.18828563579537566 8.253988917704275 -0.7472391975438872 -1.9130799578870472 -0.05577519798809103
Ni 0.17232280680519926 7.986604518573571 3.4381156280920706 0.7196967691492444 2.0793274882957933 -0.8771063895513862
Ni 2.156300460180908 1.9618288774745765 1.982013860705564 -0.5718336547849572 1.013325234808526 -0.4323348532249651
Ni 8.21276797441857 1.6770976430909266 4.814382677461627 -0.6352038915114867 -0.16584798097748213 -0.4126710562474506
Ni 8.189707437634873 1.9660650588058888 0.29549749391287655 -1.996967340730322 -2.3713510713618002 1.3929918111054977
Ni 3.4887524896614357 3.7717443648229576 5.485003847225548 -0.5533440806212019 -0.94314414580775 -0.9437763800751101
Ni 8.797454512076326 9.037140083164322 9.853760821699202 -0.6649831796564484 0.0924329584204408 -2.0577039964887467
Ni 2.9613245354289006 4.507465261602176 10.449652199249183 0.8255722262278363 -0.21093870266853348 1.684232493258893
Ni 7.489858486963629 7.508608031266678 11.523306279264373 0.5988415508323687 -0.5590390741234502 0.6326461580866395
Ni 0.5361125935314086 7.591423973584781 7.937183338180962 -0.40480528034612856 0.6179147654137358 -0.48098243902933935
Ni 2.7388548800825054 1.1597317884444662 6.8227431546856 -1.0175657552524346 1.8879317407561935 -1.1962134590977462
Ni 2.2330099424342276 4.836905509109455 0.8245011579783614 0.16946809422857265 -2.2019377416305628 -2.260392543333346
Ni 5.834502834149305 5.640452064158005 10.9799987234453 0.8724871456118201 -0.33874875503668755 4.700540935974518
Ni 5.2916076747909635 4.763141715861352 9.175830602644877 -1.941534099462682 -2.878590644315455 -2.8249759443137927
Ni 6.970687813339369 4.893163493412267 2.7896937317550856 -0.289914507142804 -0.03132812068932024 -0.19921292959117304
Ni 1.282384667785505 5.392359590163054 6.457513253334619 1.1250226978855333 -0.6740409189833424 -0.9307938517725131
Ni 7.511591125846564 3.3221574114774923 8.511791878883407 4.683577568647302 2.6564964392507346 0.2988220940450789
Ni 6.741298126679131 8.849158367663136 5.339363371971416 0.20270474479451545 0.4036487981441822 0.26332184425594
Ni 5.97559666180237 7.464665832423773 9.740229291741304 -0.42692962304899373 1.0573227234353983 -1.922888202226721
Ni 6.302203437028439 3.168542067703838 4.370714221168232 -0.8808815403231024 -0.1377180555104854 -0.47023471359453206
Ni 2.683653603264104 8.410447085152805 7.626919058527964 1.237993885468642 -0.8663365526293918 1.0899335674918842
Ni 1.0939540853882854 2.815339928887809 4.4471815023255665 -0.4773057615087005 -0.4995195786015784 0.5043103151220024
Ni 2.8623306820662724 6.154816121437244 4.563149070333814 0.2720396837449121 0.4005914993750972 0.03485438867502385
P 4.798480632530289 4.999797435401125 3.7595753962436276 -1.6886424494011303 -0.646199728401358 -0.8451953997754024
P 9.149179130692913 8.052924602462458 13.126047250748687 -0.7452548201240068 0.35425173576829316 -0.53925212130451
P 0.9947077443966381 0.7056505553024693 3.2219469417987407 -1.3120030899662565 0.16431946014809765 1.424097788481683
P 0.13519777394579668 4.823869666337161 3.9443729622010792 0.7408453782024016 0.46680974707338313 -0.503953703113532
P 4.766031296504565 9.00422317745523 1.7626152030395288 0.6279502952728669 -0.7746286453004336 -0.10143464769841887
P 6.535988278712335 6.131297366363844 13.0601601363866 0.07559943180286981 -0.2205605420290137 1.197268639835138
P 4.634270159731521 0.45649576298690797 7.417813479871587 0.5561177867115971 -0.1510947339277075 0.10369670425971819
P 8.325283943024196 0.6643454494737588 7.148732737929624 1.1853394924977199 0.7094478377277266 -1.6465959138530417
Ni 1.0793939654482123 6.272765249763603 2.104509636632991 0.26121482521526623 0.6118970984647462 1.5633299666438496
Ni 5.24560816934124 7.776852758614779 12.402677674725311 0.8152980979953377 1.9841979568797956 -0.9195704722528679
Ni 1.1891232187409653 1.4015962342569568 12.660699458516259 -0.9690510954814988 -0.08251107132103855 0.07379040361858905
Ni 8.422744167825378 4.945690271641805 10.311485357814002 -1.4321792799382367 0.6818632432412386 -0.23121545063969856
Ni 7.345220481110638 7.255073046157327 6.999725760955243 -0.5066279075115855 0.43577036126907526 1.193139962378745
Ni 6.685021439588984 3.9350571038296596 13.420489907455886 -0.6737789235712074 0.3245660357784023 0.11533197450580136
Ni 3.5848006540188475 8.775749927374394 5.375838482970937 -1.3247228515257703 -0.11599711889362604 0.05873145240293756
Ni 2.924377179049178 0.43428433274820444 0.43191843015036346 4.730626442505988 0.04422194593285287 -1.9491332519661788
Ni 3.0610477974975834 2.3005737616808735 8.961934305012713 0.22205409585540467 0.9660081948901169 -0.17445114926546085
Ni 6.294114481506176 0.6106740606593368 3.241409997438608 -0.18387038569683173 -0.048907781444296416 0.6501083194271449
Ni 4.07061490643165 6.292823989180081 13.478316120476714 0.06636222947531796 -2.649146683753883 -0.2091006210185302
Ni 2.333443910421629 4.137888832474608 2.972657489414369 0.8519859403346747 0.7419514667823867 1.1905485475024853
Ni 2.7453353958939832 8.720212000383967 2.8722515756079696 -0.13329627229370591 -0.7629560940585118 -0.6832650086847717
Ni 1.8834922527231368 8.729871990042344 9.878465333489626 0.4013201500110056 1.1207346120331407 -0.21132796768715217
Ni 5.8721047880857435 2.1287886600115473 9.064188054207783 -4.6516766061736465 -0.4026380974914808 -0.10750579359316323
Ni 0.9409372308093421 3.4535818980785105 9.6841003566711 -0.2821484900441399 -0.2111880996751782 -0.3033914585833162
Ni 2.9861057286473933 2.2393034303723582 11.305126108193194 0.5875934887223752 -0.514304964440869 1.1424979718521613
Ni 8.935181838009143 7.090993492869902 5.299562905383783 -0.27414516012368917 -1.5686580637249823 1.2722301809436927
Ni 1.074736971401869 9.097634248798448 0.9503615653473033 -4.41682227322978 -0.9012562473247123 1.3561437890392127
Ni 2.7887071597231796 7.550941790398798 11.8389223615132 0.7230296901772193 0.767497433572291 -0.3821836862918708
Ni 9.054505621204603 5.35153140541138 8.03263394848303 -1.360696184296586 -0.22272463955986802 0.48678593308499385
Ni 8.253521348020907 0.6729365748359585 2.1713421768948495 2.4199058403420515 -0.672242432322023 1.6414333958154956
Ni 6.273410495926651 5.975475093684695 4.854921904148982 1.0266276083443866 0.9807113054282464 1.2095950226109748
Ni 0.44753712785358113 7.271886851971233 10.855791642476749 0.1854143331451839 -2.459328050893416 1.1179627057149584
P 8.074797512250402 7.213328424826251 9.17239490061149 -0.19423347409871064 -2.306508878075434 -0.5128288941159749
P 6.6501874981780835 3.5739997943330515 10.412821735290304 0.04575175231381798 0.7701238154515446 2.143423547444754
P 0.6634654833296606 3.0138606650521056 0.7294479819071564 1.1388799154836 0.9695612023486979 -0.3808585397225441
P 7.153096098214812 7.809077661192488 3.410303648185988 0.7929151023144473 -0.11696951010922436 0.3357202526230089
P 4.088794015720989 6.398775279431222 9.71611298261256 -2.167834629299266 0.5780755219296109 -0.16108912613625806
P 0.7524421237958177 4.979785452952984 11.518844729345679 1.3863753342302445 -0.6408338361037543 -0.7980866192130578
P 1.650717361555316 7.664299384434485 5.902215340555261 -0.25180484475527604 -1.030220725012284 -0.528873092063031
P 6.473390049503055 0.9455942248556853 12.738207549788772 -1.0879083095317392 0.5110615178029069 0.42445467914594
