# total energy = -381173.15912107314 ev
CRYSTAL
PRIMVEC
9.19903259691347 0.00000000000000 0.00000000000000
0.00000000000000 9.19903259691347 0.00000000000000
0.00000000000000 0.00000000000000 13.46371405804679
PRIMCOORD
 96 1
Ni 4.589240898943325 8.97076764547388 0.6015679664653417 -0.7619813888500684 -1.1297728109760092 0.2242673014566396
Ni 7.389665547411445 0.8438750803550046 0.42515168211076276 -1.151208612252282 -0.8935061710656483 -0.3120743310692948
Ni 2.300052478125327 7.6937211665301035 6.876227991299305 -1.3250573520470534 -0.8862433188556479 2.042860246607695
Ni 3.1498406965304167 2.8492163165105167 5.716692712407188 -0.12043869960474742 0.6296166272316963 0.878073895670978
Ni 3.222549848907323 3.882801202993869 3.07400847264137 0.4298249423189178 0.8660897267259083 -0.3931237302431423
Ni 2.858645324757775 0.9181351896006792 7.103482728413369 -1.3859711568132904 0.024392055691119283 0.06418399087707656
Ni 7.040562266451983 0.3285186060766427 7.325970526918916 -0.5044216438888862 2.0776323599815574 1.300739344126979
Ni 7.6211959948019246 4.269142167255673 11.38565716492162 1.2463206601667827 0.3862455150660703 -1.3527810432145668
Ni -0.05378858246182254 6.618381871818161 5.803183855180232 0.5560419391683392 0.6074868852121924 0.17568553589319422
Ni 4.696924772643231 4.022230937631617 12.65178439236345 -0.3299041601618641 -0.1956123567241083 0.3491774065691793
Ni 4.2387853602157195 1.7579167005215082 1.9764056796269749 -0.1504748409555215 -2.4537497854746904 1.2352412624241695
Ni 4.5682579059560116 3.8173316891443694 9.644758674407356 -0.5787067277557066 -0.08385858648786848 1.8062045987890312
Ni -0.27729747356780526 8.085507957994226 13.323745194838224 -0.07559531803781175 0.41995936237874765 -0.3279994869399835
Ni 8.771544199999859 6.86067518715917 1.8396951789774112 -1.818930273885816 0.6678077935894371 0.06028362738140586
Ni 4.2449395129156375 8.57630393557078 6.134539442860245 0.5144078085673205 1.447629810165352 -1.4284820335923076
Ni 8.742714432344341 8.153268030920376 10.966207963018148 -0.9377042057391011 0.7644648173935544 -0.6079224300877143
Ni 6.765152434340116 2.6783442890053255 8.75791675334865 -1.9914001310551899 1.725305352039803 0.513674787056038
Ni 6.068399319546136 5.574567661265587 8.601522163091788 1.5507868398715163 -1.0656340715145713 -2.0867906294420577
Ni 5.171622443456173 1.705555807893807 13.091845866247047 0.013391076594925326 0.9307966799859906 -0.17081920893982838
Ni 4.146289089068226 1.4164578155166527 10.864099622877914 0.9940923547208428 -0.43706953969647305 0.2860732790198428
Ni 1.4479828996760222 6.989176471262535 11.89197375002478 0.07129566222119335 1.8477723949284888 1.1090810869546124
Ni 6.549784686940303 5.2068731357522635 -0.11010413913391026 0.6656550089124923 0.8064337056261726 0.40707607865817635
Ni 5.610830247129678 3.40910622671649 1.6383587157527615 0.5182971163193978 1.1713894580755309 -0.2589558539777605
Ni 2.9670835191174625 3.0644736755210937 0.7346476090122783 -0.21477607413675268 -0.1292681249709193 -0.6672490928724896
P 4.724899030282171 7.412258371075119 10.360395562986675 -0.15135441534699737 0.723528998411141 -0.5967083065394498
Ni 4.995359782943281 2.4115263531890094 4.272817180713995 0.3625854524449691 -0.21745799184429 0.5866928312849767
P 0.8043937530414363 0.06258193756772898 9.637905395242276 0.7142635139488149 -0.02891436904150504 -0.6478282651437165
Ni 7.424667865831754 2.9094883770334783 13.082731464909111 -1.0223981436440714 0.4269144535403422 1.4468852186898435
P 5.498178895914142 1.713319791270086 6.6622897735401 -0.5263328421396807 0.20439678778495768 -0.6226111424481406
P 6.91255773010018 3.7445029493457915 3.7342018728235673 -0.3172625601384536 2.4417293639750466 0.6696319912823693
P 4.58988483121387 5.278073646809609 1.3670378535588525 -1.0446988640238006 0.6095903047084406 -0.3760230660071137
Ni 4.779476889727032 6.4845267508368405 6.525229709657955 0.06444032986225677 -0.9862517756305015 0.5026470684869666
Ni 5.8487356239985475 5.630939332035537 10.842477297136274 -0.34905759316186336 0.45082237050619134 1.1419685817112526
Ni 5.404532745712105 7.000077324699609 4.205269605437125 -1.423806482493509 0.19444276189603932 0.6070698522794319
Ni 8.48540829606721 6.165973456598494 9.752265926684487 -0.4263819780756399 -3.1079124774768667 1.1180730060405777
Ni 8.619778562864965 2.0958983512654235 7.684333553928808 1.693660214330696 -0.5011378309312918 -1.664256050136966
Ni 8.537125256424368 5.353376926333565 3.8626994773139582 0.06066826441433423 -1.126039312075506 -0.14559308738318796
Ni 8.017103952797532 1.2697976413839334 11.520603291149891 -0.19923041309266978 0.13683693845711273 0.08306411561103114
Ni 6.7989588785437 5.4229584076821125 5.640663629224003 0.9780191033080641 -0.7769932888778682 0.20519125866179502
Ni 2.3523213804286645 1.8370007823768046 3.8512954368026158 0.2300918785582166 1.6037214830870188 -1.2241436098491112
Ni 7.972948597103055 4.111259173550608 1.6874741897369185 0.555199645772702 -0.8700700515298949 0.5876878482083944
Ni 0.8513520539192694 5.369530427291795 7.803864861503489 -1.0159742423955986 0.2391233926328656 0.9201895938941055
Ni 3.676025351889606 8.294436382688595 11.953152835145964 -1.6988620702466097 1.5154763374956803 -0.4786409353803564
Ni 8.75982463267595 9.142918338487723 6.006997617839991 1.0336446630921683 -0.21118758545454597 -0.9380312500612168
Ni 6.892651023907919 7.4142453620813695 6.8587930651226925 0.1157513214314071 -0.9582745736912851 -0.9610413378031447
Ni 1.6349072387826433 6.815802306934656 9.555709280713762 -0.29250875023254136 0.28691480108453166 -0.0772739912918153
Ni 4.720639878264141 4.67727563935919 4.953731401459069 -0.5316599107795489 0.10165370568776042 -0.7017075316606755
Ni 0.4744400979047232 1.6750518163348722 1.2785624794892871 0.3770165402686346 -0.14483204084744733 -0.9472049461406847
Ni 0.9419625234173116 4.926505025157205 11.193637481748505 -0.33072254229810144 -1.0979944901231478 -0.5012954395550786
Ni 4.441854001248134 6.3995276911249706 12.852272704797468 1.3719036229766308 0.7202554698661918 2.2121571053657254
Ni -0.15405527630830068 3.1436865438304995 9.768422187352446 0.5400982713548892 0.2992005604304202 -0.03215318769377688
Ni 6.64169222001187 7.504865030611849 0.7496613498516443 -0.08786539365441642 1.4842628880073534 -1.1967729311456423
Ni 2.7828636955471278 5.077516341632317 6.560692899603326 -1.1455506426355562 0.9741308239972513 -1.1713943431715375
Ni 2.234141410718883 1.7585238366623073 9.576618681441587 -1.3128775221514097 0.45972995740846634 1.0023242557123317
Ni 2.682879411996446 3.0547502982358727 11.816791897728985 -0.10922894693185704 -0.13621755970555896 -0.8741244241049269
Ni 1.8125405551285512 9.240796043610482 5.0571193270112005 0.6610265090015455 -1.5744983245558433 0.8454000595870408
P 7.8037783905985885 4.290805888643276 7.748448050300434 0.6452849298965726 0.805858806959309 0.11023476248855207
Ni 1.0033292688001987 7.465842735016855 3.545400011196687 -0.6238861525058222 1.7775964481340354 1.0797687111437404
P 8.122699646134388 9.105220703563562 2.0938902024845687 0.286591613417158 -1.4673614842663245 1.1996841912551661
Ni 2.976990877051411 8.815202807942773 9.202879471714336 0.3096415532580861 -0.7673166850200528 0.2295995123028304
P 2.395658022236307 0.5283740250790401 0.30921995592842516 0.2999284397353802 -0.03576995851075775 -0.6906741566646493
P 2.243533622836396 4.565093438797907 9.474940856019373 0.016119788379998043 -0.6551893334944782 -0.9179468206065158
P 1.858020571493863 4.974707955123677 4.469387625233372 -0.5836998100949238 -0.05794443772526795 0.46709848195839554
Ni 2.3693763865656567 5.326377766132879 13.231639882569274 -0.4158293993707742 -1.3116004552111993 1.4871340389075616
Ni 3.321871802122588 6.779604114297621 2.594781198256771 2.3234863864700372 -0.5499857056719303 -0.25019507706599486
Ni 6.038042512506183 8.934394671220554 11.954121493261514 0.4619992130586173 -0.8018409440491675 -0.2643423151006544
Ni 8.896724633393703 7.519206322180117 8.10185739834335 1.1131046062917087 2.262173803603485 -1.0516287583744146
Ni 6.962977626883811 1.8464573877213717 2.990802304351346 0.9584630355530072 -1.8579691329558323 -1.967904619036411
Ni 0.5899063530457815 3.370424295321641 3.2083621811807412 0.4026879768928097 0.37554124127468874 0.025403527674769152
Ni 1.6880960443296158 3.081298705847177 7.793968542408464 0.24258101216416283 0.3901710753727216 -0.520141368616988
Ni 2.495596310624807 9.123719957793062 2.368550313452872 -0.19829196043880043 0.0062598648667827675 0.4326230738893452
Ni 3.8346074720598344 6.21242857040206 8.691150175925626 -0.8910697937100138 0.08072209774141582 0.329612082842742
Ni 4.4123986993869435 1.7438329818614573 8.506522835218362 0.7404450574401894 -0.29869533865922754 0.06241584323306025
Ni 3.3734967721553812 5.410070563238787 11.167477273306012 -0.601189482239255 0.25509997056677997 -1.9323827719807174
Ni 6.791112103875494 7.652813069285656 9.388354963212233 1.5091961609139235 -0.9678143948609202 1.6750125173225217
Ni 1.838150661431348 7.325888655530234 1.0085681177726997 -0.4734519349802492 1.354974194211144 -2.077315342961771
Ni 0.396965846725788 2.7726067743805984 12.269347497467631 0.39131727316202286 1.10522134688889 0.7374078132757622
Ni 9.017020380563846 5.342568063220855 13.43494217902557 0.22658412251527427 1.0605376308282704 -1.2525594419876427
Ni 6.207369102562067 9.448602186347618 5.047411588081121 0.3936919440417865 0.14957649751096821 0.01939074582178596
Ni 6.463884122049672 5.8899196922160835 2.253462138544948 -0.36065789640495305 -0.7012023098894827 1.6568970386687334
Ni 7.578227314291735 7.360173449420508 3.9339358645978044 0.573366803600032 2.2806302105364593 0.21044093709650855
Ni 6.850501057284566 0.6830640346254487 9.712696288659528 -0.5543876913943678 -0.16514838380729624 0.3571375419565205
Ni -0.06461584363940584 4.119363521127031 6.002352106459634 0.5742497204256174 -0.05083739436684148 -0.4226479649545044
Ni 2.881330138745813 6.900828963743834 4.838805129522025 0.6160771979843648 -0.5252709765340695 0.11168615022309798
Ni 5.757922775786906 9.030607351472332 2.7487785206607227 -0.05752663346155899 -0.7618523194713718 -0.5401003282374182
Ni 0.24729390937340787 1.0668117916434463 3.525742598783452 -1.4492102672785945 -1.7451501546798718 0.16327507804398333
Ni 1.3348531987737966 5.624610397719328 2.429419391180953 0.4105234137768285 -3.5642987152240813 -0.9081570882096038
Ni 1.0747873527657612 0.5432874964648498 11.85081451919482 1.6132595044844409 -0.2415417722663711 0.6604693509464947
P 0.9380529346318629 1.9433875925031858 5.815651303841216 -0.16208285750809504 -0.22846128493332912 0.4168493559948563
Ni 4.503745091479893 4.020639505020129 7.436709399290936 1.3861549906893225 -0.9391337390967762 -1.2086863947537765
P 5.878687673611301 2.840044881171476 11.20703403268556 0.5172131392265996 -0.6450751278786117 -0.429455474794641
Ni 5.21046075840244 8.538265936446475 8.367442663813195 -2.6671359212424517 0.4261960873170789 -1.171549637802479
P 7.619411382509273 6.595347494597541 11.943916086676628 -0.03924069066817758 -0.44518779792823326 0.5293520885819787
P 1.000597156166603 3.8005250568831594 0.8640228011970972 -0.7586099012746742 -0.08338421795461122 0.6009871364204616
P 3.899258272022498 9.642425799781499 3.970502938435537 1.8645809818453951 -1.2522352258790048 0.5141257585505274
Ni 7.960907063643873 2.269576083663701 5.056728368132656 -0.02641731365126418 -0.44355129076607486 0.9104777659229802
