# total energy = -340868.2864607433 ev
CRYSTAL
PRIMVEC
9.26242924063979 0.00000000000000 0.00000000000000

0.00000000000000 9.26242924063979 0.00000000000000

0.00000000000000 0.00000000000000 13.55650145437487

PRIMCOORD
 96 1
Ni 6.640522810485508 2.425061492211781 11.270224982476677 0.010695789150949321 0.8333922364928873 3.4384848673503488
Ni 7.1939622327581105 5.883180266224836 0.036055859133413026 0.24614533247665352 0.36001614905589613 0.7562385728290203
Ni 7.213404072180885 3.6257687471203526 0.0393403166176035 -2.8307750674940735 -1.9582745521458143 -0.7953512225597658
Ni 8.636428158830968 4.226668857912392 1.6367981797066844 0.9364885881644452 3.951769360946504 -1.2845545068370006
Ni 2.129284332475023 3.365494479478637 7.938592092593933 -1.4298799423810988 -1.4662247995587199 1.2220941835192503
Ni 5.495899565917527 5.362409432634522 10.782218140592024 0.8238824972302391 -0.13909025326766367 -0.26109424047700197
Ni 2.9871612860233516 1.2595422067968343 2.4866686892354584 0.6605426273865914 -0.05028794962127468 0.15980048923182155
Ni 8.839367988155878 7.356378933224213 1.4690907795367758 -0.4551209978815452 1.2734805084110261 -1.2124990836316472
Ni 3.038558507060501 1.8892206859007172 9.706645381356505 -0.34852048971147076 -0.9318312918980919 0.19904477944442497
Ni 3.7547202899711696 8.488655359330757 4.448606856289257 -0.7187894268436266 0.3937747335635799 0.4663137812735711
Ni 6.089621293883147 5.093558155318919 7.364515051256117 -0.5706008108191205 -0.1686808224405869 -1.0737962956103895
Ni 9.300405414200945 7.722828429690733 7.00217714722398 0.8227452983020024 -0.25942250920153387 -0.7690046142454369
Ni 6.227529606015444 8.76625037005041 3.925677876636291 -0.24520508005057123 1.1572779583748134 0.1530181762026655
Ni 8.858003996216203 0.9504549359354804 7.055481502485593 -1.2144245827891342 -0.16521857492359934 -0.08351765820868197
Ni 7.073291301838671 -0.022894873123017526 11.11718556558924 -0.12148231037791335 -0.5931522137570752 -0.5246032610430836
Ni 5.581808599098199 7.3643446225541735 5.926183873691276 -1.0081706871907798 0.3682375085244239 0.07651860118302951
Ni 4.3159957275613845 7.240617089915098 8.325631043492509 2.0857436762347823 0.8844255489206188 -2.326525430406677
Ni 8.843628705704461 4.037131764006611 5.3709503188335415 1.370806276147394 -2.0353803932908816 0.1144508574524287
Ni 1.3915503513672876 6.189516595538518 2.5488659030153205 -0.7880639448697331 0.14528018412845947 -0.5785614604270939
Ni 4.079442541749934 4.085453858465217 9.54865797465504 -0.2600172053627393 -0.446070971864135 -1.147764105347107
Ni 6.625480625053118 2.244490430016932 2.15438551629385 -0.939879101903233 -0.16088240944209067 -0.7950115798321598
Ni 2.9177579021287126 0.7149910118277542 13.693964726005452 -0.8914670291484325 0.06968152365653806 -0.7506250832969846
Ni 3.245675692068913 5.2508990444445365 11.649874367157297 0.8939332313007379 1.38491057675926 -0.035519275952532375
Ni 1.6052623861465507 7.008018961480266 11.300727088909806 -1.0157731821283862 -0.016210805431907567 0.34734163891202113
P 5.247888754872168 5.0065839427511 5.071717346667704 -0.1957907912835015 -0.9326126501488066 0.7547815286675195
P 9.362000570066334 5.814842061717342 12.97729999317546 -1.4558377998974412 0.9793792168803842 -0.3368546233377682
P 4.946091015990672 1.5965371776014086 3.662451672727764 1.2521082133828372 -4.470698968643578 -0.7363078953433642
P 5.59639692548737 7.924314057591452 2.04023996692436 -0.1606206711402718 -0.46375733340030456 -1.4843852725178306
P 7.296580688672793 8.810534045267314 5.9514666011273905 0.3808598252741247 0.5609509464341823 0.90487456080359
P 6.263643818454413 1.6256026812263091 13.331816701777113 0.11881556217902763 0.7825450719340329 0.6731112080802214
P 0.5787073298215923 6.936086934344837 9.104804207731997 0.42200107539912485 0.1338565156725501 0.2761256808888277
P 2.169501801161867 2.6393663224760644 12.672631827406343 0.4524095124876531 -0.9754114904818879 -0.39760027795725716
Ni 3.024248053554933 3.765640694296778 5.856083028858792 0.5210335414139542 2.1433991219647215 -1.17214330552242
Ni 1.3033257108232539 4.469214835580219 10.433653469157155 0.14960297987352944 -0.10125672735965786 -0.16527076831777343
Ni 5.028396964113956 0.6371458497292475 1.3456939156291876 -0.3144718847671939 0.05328534168670178 0.34846109722844504
Ni 4.267895931409661 3.1977981942240725 11.618775760267367 -0.30345342216950316 -1.7356694688829464 1.3054838007905
Ni 1.7102520240013142 9.504919856532942 11.222804122403891 0.25867894616729004 0.10943283541254703 0.9133527734779303
Ni 1.143039369131443 0.7654342026311984 3.740062495361098 -0.7617453615798623 -0.03283350159025313 1.0284003839740934
Ni 7.433062586669259 6.052719774940636 9.54865797465504 2.8268533638421642 -0.573920876331289 -0.2614871050400464
Ni 7.881799506400155 7.25367711544445 12.022068422370841 2.5943091670887126 0.9265237636422494 -1.6077185200615538
Ni 4.17249290803921 3.271703118833085 3.011956809670216 -0.04011743684617607 3.0045433317598964 -0.4113975888516656
Ni 8.090685815434176 0.40925396169971007 2.6819642355324436 0.36743198190399295 -0.3736877330057177 -0.6671629609165864
Ni 0.013239716660749757 3.398820700652121 12.786004890159418 0.7705313353026084 -0.45626873833274323 -0.7697517768241066
Ni 3.1292469538391496 6.459331165517279 5.99620320914457 0.1841627201262699 0.4978524753118007 0.51288700104742
Ni 0.5859412872247304 6.212978329344087 4.720509177866823 0.601849484420757 -0.5971765044251199 1.105983421865895
Ni 5.635780775523405 2.617238378511792 5.302720484750652 -0.14393678272668758 1.859256484308688 -0.08553391730776236
Ni 2.2161196086010397 8.606927321021756 8.91594882863399 -2.0131254385474233 0.6462084701521065 -1.2842043225864335
Ni 4.072921791414711 2.2672852689018526 7.314478481105679 1.984392589389105 -1.5496069606308023 1.0350590269411917
Ni 3.1062020293589865 5.320876698965289 3.941824143659531 0.8471954609245668 1.2675646571472234 1.6356988073245637
Ni 8.03991843959986 4.871000500411619 11.311409448798463 -0.2860043734551203 0.007391921588696946 2.0631092266647175
Ni 1.4243023019146577 5.5010124269758265 7.4482400035716685 -2.14230871711402 0.6566967712779399 -0.725406417939512
Ni -0.31429553494302437 1.5165746241298452 11.400055529882627 0.6647849476027131 0.04857765179838731 0.06022217801585113
Ni 1.3796388670901611 2.813333272470609 1.3071668403175962 1.316846791211803 0.08895939804954357 0.06057339070768277
Ni 8.112572936232658 1.7032218400461516 4.785051638784297 -0.2122905887107376 0.08489345551028606 0.04357788459095075
Ni 8.454013873174885 8.726357086394435 9.187254649754756 0.871657450621673 -0.3137943990841951 0.19277308750310027
Ni 3.894860847601745 6.408267391940454 0.7242034241621473 1.289096103461096 -1.1207703503670827 -1.7188613961866719
P 9.060110206890306 9.063778128953867 12.769817868446582 -0.2926915556673088 -0.2589517402127024 -0.7034692515467884
P 3.307493146241184 7.983769592253096 12.36859999054068 0.13986646931205587 0.40563446111564333 1.006121260860919
P 8.701255902575607 2.666301467326673 2.7502209306607472 0.5755234449317185 -3.5142689043601996 3.0047950427593864
P 2.92639048637932 4.890849886730345 1.9541558738270164 0.2929844043173793 -1.4655545129645728 -2.0992674217528298
P 1.2421566267127242 2.5299307184836493 5.623372825027574 -1.511714299350087 -0.05640923202766414 0.11448119646973187
P 5.238070579651519 2.098412655106701 9.783266050281267 -0.6993297754571183 -0.6327166063132587 -1.724319848198082
P 3.601714217829764 4.834247180340363 7.681249383874232 1.0781759127353236 2.35346416377905 -1.1473735547769077
P 5.983010730874032 7.392548720239904 9.781408933175852 -1.7557502987932212 2.5797107004492474 1.2311220980494733
Ni 3.153153284258483 1.6286778078048518 5.098288478040793 1.8087484482568075 -0.31016682963393677 -2.1736093269995145
Ni 4.350248191680213 3.1511989116438066 0.5764093210741934 -0.11548778335737529 -0.23900589321839483 0.07586245565626934
Ni 3.8601174747218847 8.316114823472043 10.34461373482122 1.37595285334534 -0.15991130377807297 1.0130742951399843
Ni 2.687623579928496 6.199427395053701 9.276605601720329 -0.62354959510201 -0.937283830372231 1.3293544367605106
Ni 5.103959863595135 6.519175722215966 3.5767742002834266 0.20304978683876 0.5182770617147396 -0.08315796087641808
Ni 9.01267730565923 3.2866619424003933 7.925632101302678 -0.5568664919521635 0.838248279033608 -0.7630378551390408
Ni 5.816416674724428 5.149734789954044 1.6701475569538016 -1.1608433071285684 -0.3942185059692178 -0.2934991391702687
Ni 1.7743480358191317 4.721625300615963 -0.25082381087036887 1.9750851959452504 0.6467306612041637 1.7497688843988062
Ni 7.027553425197574 7.327739501354171 7.820881434127814 -0.0869480240464696 0.8878759693630646 -2.0209091962579
Ni 6.718456891906768 2.4729575149155285 7.267071514677072 0.2397309443098775 -0.2749496583028555 0.33896909857760976
Ni 5.002054614748368 0.30492751379381333 12.189898086609535 -1.4664199462886618 0.7286542354528484 -0.11941797164971693
Ni 3.1993820696606114 8.090667290575269 2.0347899534339544 1.349260431655818 0.991209633856409 2.0802422868005785
Ni 8.597136933089468 8.192053843372642 4.357899884651701 0.3174916454301242 -0.5222329610386942 0.27526307577821624
Ni 8.807894252873083 1.4850823639881432 0.7931057106233558 -0.373024388390106 -0.5126987962960138 -1.6474513198748015
Ni 7.366419406751745 5.701442137918854 5.122771857815075 -0.9674194734153468 2.2156376077151583 -0.4629713471638994
Ni 2.0007310740907034 9.841609167165553 6.654439610739304 -0.8807516996134573 -1.008700334442005 1.218686443389282
Ni 6.792537802675395 8.764231160429558 0.053630392778373566 1.1911859239761677 -0.16962338885951433 1.673975334307259
Ni 6.6981814338331835 3.870880417746784 9.312747601447656 -0.691319760668448 -0.1882263486726823 -0.368083756555379
Ni 5.950369929480103 0.1908421702157702 8.209506112948818 -0.8500121044377554 0.4155818021363423 -0.06093128826773377
Ni 1.8002921007182222 7.48018982772837 0.4463935250791758 -1.4466903290702182 -0.6968057234836837 -2.8161917703632597
Ni 1.7958831842983838 3.543768459169032 3.638321191515657 -1.9036350104240636 -1.3909015042353723 -0.011068341999019647
Ni 5.623350595196886 7.149076499626731 12.210910834067613 -2.061101966426702 0.7242972440357333 0.12425395958577955
Ni 7.588550989904186 1.698701774472872 9.442116879866825 0.6576172262096803 -1.6972864982293736 -2.550243030007434
Ni 6.824391297565782 4.1222164409659285 3.4520009393590567 0.48927347539353794 0.4440439141317772 1.027476072387611
P 1.16098069498276 -0.16607721258610278 1.718137130195029 -0.5329210368801596 1.0010333048150504 0.36491975700510054
P 5.227446573068421 4.85996894693257 12.874148947567207 0.07176977364413446 0.5329686022886434 0.9478063271701096
P 8.424299999488243 5.4437613505241025 6.981029168295882 -0.019842231536907763 0.2517002008566117 0.8075850456217961
P 8.747836660296967 3.4042762716001977 10.049149645199988 0.18884469898297152 -0.42114155561230693 0.5481244840934754
P 4.139889156363095 -0.013920505225577732 6.619856477888988 0.6568078429345076 -0.4864385770479042 0.5225744035385129
P 1.5180103006951289 8.22945553350564 5.077600841856531 -0.09944127141747389 -0.543764664462883 0.27796119143566966
P 8.303323408396839 6.047847737048125 2.961051423637045 -0.2144554575725403 -0.9473365866225427 1.8784901357273196
P 1.041745440628603 1.494807914914257 8.548106262777672 0.8411155732790739 -1.2918443556301944 1.048828055700826
