# total energy = -340883.22945953754 ev
CRYSTAL
PRIMVEC
9.17509440126875 0.00000000000000 0.00000000000000

0.00000000000000 9.17509440126875 0.00000000000000

0.00000000000000 0.00000000000000 13.42867808901554

PRIMCOORD
 96 1
Ni 6.8945972939659725 2.3825885595352485 11.643174831929294 -0.4515852168141448 0.5682940170628148 0.7921016052742165
Ni 4.67746321492248 0.5307370157953645 6.424145237083217 -0.49154350237463734 -0.5236905194208271 -0.657966639129299
Ni 3.1175228101796297 2.027484874154423 4.569470516742252 -0.07791471019960776 -0.7628869313834733 0.8636944870208546
Ni 3.4181539590618386 4.387603627072674 4.562782790305694 -0.9408846603496119 1.6853316398603426 -0.17663941516603127
Ni 3.984936251409075 2.8250024449027396 2.3035019968171877 0.13392156458253066 -0.8969247098288939 1.6443084033704454
Ni 4.844734364140314 4.915226615768892 2.417981486862756 0.9504661333904599 0.32191060043342623 0.5679528316733121
Ni 5.665272247180196 3.084134641017011 0.382279398005931 -0.3067971418307555 -1.0262033763227745 0.6395022617765245
Ni 6.247294371618422 8.224325400698584 12.49460617591654 -0.26608115216863204 -0.0612822438492493 -0.44630365670023137
Ni 2.398452298057416 6.721802737813295 11.470132548223061 -0.4714832412896526 -0.5899013109199454 0.7295911454448208
Ni 0.4644038345381557 0.23757806393597433 0.9130778869349557 -0.23404006457268725 0.12448047377428885 -0.6371702712092381
Ni 8.223040887457923 0.046788394791089025 6.959278040690016 -0.3196269466055721 0.04567667610150843 0.819551473955053
Ni 8.773720888824013 2.6279764639744436 1.192363178285746 0.12210220335009939 0.06959127793557693 1.3601164005337156
Ni 0.5844360918212115 9.277029876893426 4.8370768302070575 0.8145442505484487 -0.6727242570544478 0.2269127094992866
Ni 1.6087794331717093 7.268730125497738 0.4717347351045014 0.6145664177667932 -0.22309282153256416 -0.8555014096871008
Ni 7.643028108731873 4.190990525400305 3.9532418047052142 -0.47057024255707985 0.5420934474080471 0.37782103844780096
Ni 7.656047567935435 4.346214775439651 12.97973104404548 0.36257696780453685 -0.023784761124423556 -0.6104256561255423
Ni 8.889180278970313 7.367628469934084 9.378427517092318 -1.2716599102625197 0.7040454357652326 -0.19741495715048582
Ni 6.971264384244302 0.8072927165097493 0.8619817852403632 2.4691602064924894 0.3532374355711658 -1.5608951319501119
Ni 2.14326539261089 7.164308374126548 9.107342925273691 0.9913477020961702 -0.3493532700254112 0.53350544862872
Ni -0.18982353168601646 5.275376603166602 1.1610256427608974 1.3089445056455908 -0.23192404667094896 2.1429790037081675
Ni 6.275838090844832 2.311876105636842 6.78599445199643 1.2304806078107324 -0.6276137378690546 0.3013183781043714
Ni 3.6615049925051273 4.576271096842095 0.3972889352230587 -0.580743041459445 0.36497169328895857 -0.6411225709887669
Ni 5.934460346949931 6.034734955572701 4.91903244499908 1.0222539047567232 -1.1132773844241473 -0.6501211749429513
Ni 5.439656671552609 3.5706715562012192 9.838198846378972 -0.2531307626555511 0.11286782923602497 -0.1890997524165711
P 0.5191874067429039 5.799063476289652 12.624112635858932 0.07683021888617737 0.855577514340675 -0.9611835198079639
P 4.131416636317348 6.523684920630437 12.746353338406466 0.7107354461908986 -1.0803405244868105 0.11410812940102931
P 2.699716528465379 9.2019776032605 1.0772524417333382 -0.9743992471672895 0.11681292992670206 0.953461468573358
P 6.230311271557965 7.771892312053934 6.427153750594738 0.5313693761223236 1.3855237848632267 -0.4767437183576434
P 5.303874446920131 1.049245465539633 12.67590696225077 0.13909436703272174 1.1077346002290471 0.4501585116699473
P 4.138591560275899 6.47908478589576 8.476329465836642 0.04041928435731103 -0.1908658431780584 -0.4424516299439928
P 5.095085994745207 1.072366703871537 3.9530674779082675 -0.3998499932233824 1.3949216811383591 0.021710137983581967
P 0.0015322407942174464 6.032413656644934 3.6718572517154007 0.2646212797936539 0.6219303143310322 -0.008075320808966738
Ni 1.4310119757587572 7.827236482537285 2.792802450487733 -1.455661422220577 0.4885283696973974 0.05130584936282777
Ni 1.7866478166249995 6.644328239212264 5.105530004901242 0.4481985597300991 0.5413665965443516 -1.2654800067040528
Ni 6.367965215483979 5.844076490280254 9.240582731199119 -0.5197189363675888 1.0410029032294523 1.5939183809536681
Ni 8.892198885085868 2.767970057017376 10.069199285013303 1.4366054340303902 0.9710447288727599 1.2888150818855675
Ni 2.893898230075068 5.315031361924733 6.973270977428107 -1.0953809637597007 0.9037602446934886 0.23893158833703368
Ni 0.6971493761608706 0.36180242193087414 9.16762421414847 -0.7529509032166839 0.04957446849401785 0.5015088411174653
Ni 1.7925657526266177 1.5456639575823572 11.84680688095242 -0.40537220859319223 -1.373291504463093 -1.402665843860152
Ni 4.141270687892135 7.531422258307557 1.578097916909056 -0.5622550099575866 -1.7285899363283455 -0.3607383719339013
Ni 6.1585528568778765 9.073911633166565 8.502528948398846 -0.6787084996623408 -1.577941288799121 -1.9693035562664667
Ni 7.118845780501713 0.5948250514097888 4.960178156625836 -1.1810796887801016 0.18386884303493495 -0.5236013021411304
Ni 1.0331798749367902 7.717979456324463 7.208246067032826 -0.5379591135246993 0.7593205541884536 -1.0597734989687362
Ni 5.346024831402976 5.244410658972087 7.1461783872440705 0.30712650014571624 -0.16425749656191066 -0.08223802016530998
Ni 0.4729385075128926 8.114838997121357 11.571156762072702 0.6421895788007005 0.9883806490480462 0.5529733275453445
Ni 5.054862380123356 0.9349788376882314 10.476907457637042 -0.5222758984614877 -0.5486605591026035 0.061674337081345385
Ni 8.114343542014245 7.50840194601599 5.016524247436903 -0.03338191789455541 -0.9489710369021721 0.1570614930341037
Ni 7.870423652707235 6.682102103582284 7.268876009501499 -0.8243854050085867 -0.5124470852965239 0.20995139905459972
Ni 2.1896271455041876 5.724414906818075 2.206049647286043 0.6125380744828548 -1.0285723907755835 1.0286829482115187
Ni 3.497307499970305 5.081240777029794 10.022654947737939 0.031479815775836105 -0.7265469593018584 0.3932312023552841
Ni 0.7655653038868659 4.002405631482069 3.6385672560647464 1.3220792432553359 -0.8529403338281438 -0.0010783206658433043
Ni 1.694190388581112 1.2488312978546758 2.7213082785314384 -0.1630483067451579 1.145578410549698 -0.08814153013393852
Ni 1.471630119447384 3.754990031141544 8.218754283271943 -1.6293422689789168 -0.17837465268958314 -0.0032817560750653158
Ni 5.401332301508021 3.240349801270581 4.658865298216619 0.6452216807588049 -0.4307705940616388 0.18165409477180328
Ni 4.227021121800855 7.2183955566529665 5.9301847528774445 -1.4318470934097987 0.45350480243436087 0.21474702067103016
Ni 8.338087398348296 7.438258347981305 0.27642908440923397 -0.7293330066874278 0.5082528447095181 0.6174383399979495
P 0.5587577546309338 5.725488392883485 7.992386349889112 0.4928653065098544 0.8587898506303855 0.5797436536606532
P 8.83434073868865 1.9383213050633743 8.05546145506233 -0.9553558573825933 0.47505424647036254 -0.6558493356759801
P 1.8824174538108778 3.505152205832915 10.53281039138008 -0.8559865768536356 0.6689678753358093 1.8156721719598345
P 4.087165155176565 6.53486018582419 3.591902725050436 -1.1970624373616028 -0.46253091719237116 1.1962494545420042
P 7.372986725166558 4.3995496002108245 10.777884507584771 -0.4793405325505422 0.20617650539319976 -1.3327287525493823
P 6.797607369201466 7.852972622823393 10.08153978721823 -0.02587583932549737 0.213499007196542 1.1846995449208757
P 2.5563832009967262 8.700017354093779 5.954518021202858 0.23091668845235713 0.14854625647424097 -0.10684450586008051
P 7.044958743879958 4.128636582660774 1.7478903821164165 -0.42872605282778414 0.1008065271961167 0.17595935837987114
Ni 2.892228362862208 2.1903244526919754 0.41053777179102274 -0.6374957728694569 -0.9937236585275144 0.08644125961338016
Ni 1.3043130947566692 1.1479511329898804 6.9191397544477224 0.9017745817220275 1.2291207513487281 -0.6579766664316281
Ni 6.960850651900369 1.8645535446711092 9.20714501652579 0.1665033551732939 1.2423130816692862 -1.0766350506107651
Ni 3.0841162908278585 2.457457331276652 9.257516285748865 1.473630862214804 1.5815793997723406 0.7452671614191809
Ni 6.764200849849694 2.156817007299867 2.9292379418540335 -0.008743293410268813 -0.21925956382940304 -0.8159807258846591
Ni 4.479519724536568 7.584968110253981 10.34444661724113 0.30065966147444995 -0.04072678829540083 -0.3053169577408032
Ni 7.804821726487745 6.563137827307892 11.53742360935402 -0.47444283813860866 -1.5512167283200835 -0.2846807695476904
Ni 7.799490996539001 4.3171664260115525 8.259953210447241 0.9457005936810164 -1.1491604714740016 -0.3652275180535065
Ni 3.675001556626648 8.609431645343427 12.591265797276304 -0.5533253115681245 1.136766725795339 -0.5171992552695287
Ni 0.5631049144411149 5.38547773808043 10.187747011993936 0.2516467219108569 -1.7745954565241826 1.1024954633172948
Ni 8.50101872783161 2.5638609030762907 5.632659373509264 0.7152045377058457 -0.2871929944465828 0.31183419003403073
Ni 4.040812577377843 2.6948629034345943 11.83582245772585 -0.10262532557241036 0.9362890705591294 -0.4874711320774766
Ni 0.8299873129438622 3.498252534711648 12.720141010711856 0.5594417088785075 0.9760542662722091 -0.4170406460700559
Ni 2.972079210958462 0.46305509563546127 8.596301167495497 1.6997077060763566 -2.7171765307396103 -1.8215204032104955
Ni 5.590256673925575 8.16526531691189 3.6207345422465367 0.8391183403433871 -0.3198984550994039 0.2038332019720038
Ni 3.3100254694818827 8.806283299474776 3.791009617428603 -0.23963761326512276 -0.10343393751663477 0.57804569713294
Ni 3.9637234327490103 3.213631925864826 6.849982479079975 2.012673438611669 -0.7796304693903993 0.6541668057672346
Ni 5.502129890521632 4.805859488421156 12.082949960096684 -1.0919549687972872 -0.25917388352583753 -2.3120994847893344
Ni 7.9294378610210465 8.471557499147584 2.88543328781911 1.7115005849462268 1.2786893063054752 -0.3578528228559901
Ni 4.874828674350094 0.5373375788334486 1.4594960568704223 -1.6675437197493024 1.0465135486350365 0.5199261672823885
Ni 5.975234467246352 5.975656521596855 0.48122637044353106 0.296502958993599 1.1580873416499862 0.8161128805871493
Ni 7.914922861401574 0.5308067465141433 10.82274888504324 0.7185780821637688 -1.8775434555433343 0.42263922320375596
Ni 0.15346721942801267 5.047430553516673 5.971652510323822 -0.21224662284667964 -0.9274210786455384 -0.43341651632491807
Ni 7.070988487192502 6.202593310843408 2.647410231796192 0.6523127832776314 -0.3651640118054227 0.6025089723816268
P 8.741837435171883 1.4232039702744517 3.5606679505848406 -0.013525802400576707 0.9256935544314704 -0.7499992767875276
P 1.9042358287129681 3.5725065751164498 1.7456745967762757 -0.22188003217138563 0.18149185816232616 -0.30512283945212615
P 4.910272064697771 1.8071541530027 8.332521785978402 -0.030331818214321956 -0.3984983642914944 0.3534719201794751
P 8.812320511705884 1.494760532873864 12.70025307570859 -0.13175309617630213 -0.25441065780923927 -0.4459735270543223
P 6.422988257657164 7.970129405466283 1.4942494801059722 -0.23829189787050575 -0.36897130136665485 -0.8593002146079007
P 2.085893526226209 3.2871427836089584 6.160298877375719 -2.152791618923215 0.2509262988050646 -1.9390966936657832
P 7.009295151262453 4.222130796391766 6.175365300179219 0.3793696138818434 0.8791450172479699 -1.396119558101202
P 2.373009760797745 8.935532856769035 10.463720094202737 0.17496742678024707 -0.6087361842382614 1.9311154752325195
