# total energy = -381170.17876813235 ev
CRYSTAL
PRIMVEC
9.28013834162154 0.00000000000000 0.00000000000000

0.00000000000000 9.28013834162154 0.00000000000000

0.00000000000000 0.00000000000000 13.58242051372068

PRIMCOORD
 96 1
Ni 4.8208091592288715 3.419545386105719 3.224086183769914 -0.5550312385156376 0.8084049704199304 2.2239517840078085
Ni 9.049415568596283 8.408130166902668 0.7957041201075956 0.31857510830229 0.317239420210002 -0.21031700992413455
Ni 0.37385779829455534 8.973364834664627 3.6193755336131903 -0.055148363037369544 -0.5736298274534315 -0.02372305464855269
Ni 4.584128510273052 3.6600308917927133 13.16226153195229 -0.5503749706905489 0.35891314579970446 0.8238812116786584
Ni 4.909369519681561 0.7837772862761175 6.828262706762817 0.4599179050495564 0.5611394082959046 0.5251910152257535
Ni 8.197730869807062 1.919290377003437 1.0595904227051525 -3.4641455053412473 0.2179555003059988 -0.5280014880913552
Ni 2.3604681550523567 8.471439270854072 1.8496401545046874 -1.6592861077262004 1.3527949271716377 -2.4439834501165456
Ni 1.8170789330103618 1.5417093871953513 7.20699536174246 1.3403376752448917 0.2721648964688667 0.74850418029924
Ni 0.3971323853233036 4.74871176424229 1.577285725645674 -0.8699312119591857 -0.733208430482434 -2.198371107325227
Ni 0.5349906968183038 3.031236556343394 2.8755752274018422 0.25432195475017494 -0.3382435332654949 2.0588897892667317
Ni 5.520355269601307 3.278422321932603 7.453040598326154 -0.36612637571869205 -0.2917906411195943 -0.5343307727434926
Ni 3.129151296271752 3.467532981610367 11.252084250826936 1.271095038897985 -1.0188214820364065 -0.2955863607166006
Ni 4.363725224015966 -0.053427612616391236 1.5723691083379265 0.9918380114690274 0.7331274407328535 -0.8363500335696307
Ni 3.779586914396925 5.6580168421628905 11.973501791306768 2.039515755615494 -0.34540379845936 -0.8059534235556443
Ni 2.894586518864001 8.444554709999892 3.948192180335166 0.33932699613766076 0.12876650274415244 1.2536277353511571
Ni 1.2848165968724612 6.526841956519136 6.5920377126009 1.0984673159945082 -1.5848465005593866 1.276727297483098
Ni 6.896154343040694 0.8054241370349923 12.594774574608241 -0.4381725429526647 -0.7540343660888498 0.8069898352399585
Ni 5.8607693052426715 4.690488176116945 1.54786583098916 -1.427433537723135 -0.026140405840793687 -0.5651043064809236
Ni 8.366508746318962 5.7025243857792685 12.425497426652104 0.7284287497056036 0.14662075731675392 0.13526522309461866
Ni 3.1192493886323285 1.085646267203006 11.330876337632711 0.8219839946559456 -0.24028707392366358 -0.3645808856084431
Ni 7.304211307251653 6.2662649512638655 2.162878232947094 1.189720395174235 3.475129772266893 -1.8499218371713235
Ni 0.6598169100021113 6.325889840282887 4.328622172622449 1.0584930895944156 -0.3329681437991685 0.6087865778602225
Ni 0.9678998715806945 8.892460588366133 7.789708242108066 -1.7721040575608966 -2.3966777230520466 0.383719663320423
Ni 5.531110949970652 6.082109885474998 3.4994696497924775 -1.3234735524997012 0.0528089162709155 1.3735321597189893
P 7.402738536312347 3.5990325422951206 8.95726657863641 0.7175133883446804 -0.9109462209189666 0.2904431259527643
Ni 0.8909962929329538 6.763067878694889 2.1391359269445624 -1.956319999522605 0.9298075765998438 0.01396083305546628
P 4.125847437210583 4.120121591837083 5.283385080328384 0.24806774631034695 -0.8538816146954906 0.6409994151473412
Ni 4.486538575187599 6.843795802364379 9.703321958471358 1.5738041267022962 0.28826000225851645 -0.4252391227204482
P 2.8626257223221314 5.4726367981093516 9.94556419435155 -1.071618057012148 -1.064910305974669 0.04051955738060118
P 0.810585749995674 7.576676169757255 12.531779139333702 -0.9468958995406984 -0.25971561496192047 -0.6012391045302677
P 2.0205181263294283 1.3656930027558507 9.433344173048575 1.6293445829717617 1.087089927395502 -0.8015555515982647
Ni 3.4361475536473582 1.7370006190266822 5.341151157632151 0.06733539202186468 0.4024732897788423 -1.3159438197815594
Ni 6.200403809261063 7.238674970091757 11.432961571743972 -0.18793915644956663 0.4844714260192043 -1.0197614773521728
Ni 5.138097090055386 5.496644516069229 6.821051111236484 0.5049389498449368 -0.015887360654217798 -1.5488168606293389
Ni 6.710746458572049 4.549894079830846 5.4819058003120285 0.7010411017212701 -0.012553925405610638 -0.039772137691615375
Ni 1.5851961155911705 3.209229610255431 5.586259100240604 -1.3173057331260927 0.2679220620321128 -1.5180294429348373
Ni 7.513960994661449 2.241431820196793 7.1676466470452525 0.23905525839909153 -0.08696627887891474 -0.35000247357363595
Ni 4.240884032429228 1.9462955796564103 8.948845781080635 -1.1964512861401653 -1.418987720948627 0.4241818851005275
Ni 6.401662170063481 5.419118240136948 8.76955814786616 0.38008772299479054 1.0714234245028387 0.428219802615327
Ni 0.25399738715184955 3.4923109510548476 7.555506318110531 -0.45080565833564296 0.5000672235749324 -0.05262225418140615
Ni 3.076588592551325 2.059568948584999 1.9183270986407641 -0.1881044783828373 0.038881250446229816 0.43465861626213526
Ni 5.363465250339737 2.235047084999114 1.46652077811815 1.5207154744074325 -1.5970484419422173 -1.5273216668700407
Ni 2.900757810879199 4.543797028922597 1.3770806605481063 0.8024073580755987 -0.5267910127230218 0.02893365231521469
Ni 5.41278918576948 2.360096949517608 11.474985750332879 -0.6481062013954515 -0.527717124081717 -1.0665144172369954
Ni 5.311032468556472 7.859209982392916 7.3771290664700295 -1.451086915476017 -0.23592776851370334 0.19563626798350822
Ni 9.231380521730133 0.9329694307608346 6.087355947694835 -0.17171086751616232 0.35188992040433587 -0.8352686275799938
Ni 3.2055268350463124 6.102758193345398 5.193347321847394 0.35716428142939777 1.2735090476561164 0.11977612632008403
Ni 2.671259989020769 7.523844342024135 10.964218998698446 -0.6222311334009025 0.19457080283347136 1.111415391514744
Ni 6.7392179230872795 8.995683567441398 1.7451235241408223 0.3300615116753348 -0.32113566994061465 -0.03920623788581635
Ni 6.271164864322548 4.762251486122252 11.227446411471822 -0.2931160447992371 -0.11834273630766715 -0.5370250317462042
Ni 7.713771653878346 2.8310082908999044 11.130562694916229 1.013883164194525 -0.0949508397462881 -0.04387227590291799
Ni 2.4091424807962896 6.460071360956201 13.446609611639037 -1.1518683573234678 1.2964456018476316 1.5811852496577157
Ni 7.0460471379722485 7.302271758332591 -0.022092297400573366 0.2556900387422951 1.1669201094502677 0.48477275930970704
Ni 8.503873354452747 2.8709964071307157 4.870982227319352 -0.1315790324922831 0.8027112624692627 0.9112578386221145
Ni 1.4198333299989596 4.595775083925795 12.053474311713044 -1.7861664491912337 1.5012162280322403 -0.09019275623601242
Ni 5.094888765810629 0.03555777817358519 10.296765462832713 -0.11685303913601812 -1.222091612416089 0.18804225768633423
P 5.75135647387547 5.676697760699123 13.107931889886459 0.13868093364438694 -0.5711926787668486 -0.24021636858672824
Ni 4.517459996232172 4.142004158110523 9.39217562321726 -0.26986478758078036 1.22130588329 0.5979529775798282
P 6.481517760726311 7.78975742684142 9.010754512152198 1.5939695459065777 -0.23723543158153332 2.6533383532377273
Ni 6.713521219944296 1.4762936918342484 9.432909862572918 -0.2794362333192994 0.471428219682001 -0.17658593622027652
P 7.118757022091165 3.2043668177502225 2.4216502512896496 0.8962981319884887 0.099467496669719 1.5462033342658918
P 2.9096760238515382 6.442856704282226 2.249765384451903 1.9278326907161893 0.08261802921254803 0.9565331655201461
P 4.64762321699183 1.1652048934380372 13.263464224904686 -0.3246015170020281 -0.13610983048310107 -0.7181726191952342
Ni 4.942406812274202 7.906408766136224 5.150603004521073 -0.6738416584883427 0.4437222691263003 -1.0151378625372325
Ni 4.180758015938295 8.283655670963036 12.76354966707863 0.259934672951262 0.7143378188301762 -0.3225109530215865
Ni 2.8920808815044463 3.5277703597617243 7.395587261685412 1.6099396960825887 1.401544071550883 0.4148660070162403
Ni 9.115137508523555 7.840389861781153 5.873337396635428 -1.9357421753712531 2.1009679493837043 -0.8159277611595367
Ni 8.817625552560779 4.970878276789432 10.206944859589553 -0.5063877664763214 -0.23935967701338776 -1.0893159885125432
Ni 8.552788963794265 7.490779209016388 10.38791683791795 -0.6102842454516715 -0.19001583647293727 0.5693258007614388
Ni 3.056998220454959 8.62782816264373 8.703465930417977 0.8610511358607364 0.5254075021119339 0.29246144193437373
Ni 6.882614621160732 6.908459806517615 5.855299591688149 1.273304130734162 -0.15809224829146323 -0.5664171117550761
Ni 9.114673501605118 1.4760988089285054 8.966366682320777 0.09842928521319178 0.725888242671937 0.5038300330514742
Ni 0.7743041210293287 1.2870438300809541 1.5139784777219443 3.700791382967897 -2.6014298372938938 0.09091652177591439
Ni 5.228318595276077 0.5394052586403036 3.6992942292169277 -0.34698502690355076 0.025914662983232792 -0.08290573565629593
Ni 0.786976149971815 2.086963917049459 11.656759532616334 0.948070893685406 -0.6175350134768139 -2.0426422170596177
Ni 8.37854508578319 6.702088089474033 8.027617581383904 -0.2022074934431227 0.1678336439489432 -0.6276281360467578
Ni 2.504041175754814 4.392697816003109 3.767003046768941 -0.1897265873672926 0.03924454732291951 -0.9967038242017607
Ni 2.0906481319818404 2.9242551212287964 13.504117701096154 0.15916542675098394 -1.1428964928421608 0.4631808920715442
Ni 4.851080970587634 6.958219908450689 1.0598948112436466 -0.4688275488343603 -0.6169997097986342 1.0238958112355203
Ni 7.64584104101932 -0.026883632840343185 7.819439949413769 0.08307105758956661 -1.5826867739039066 -0.01375668746446018
Ni 6.956568043821057 0.24474880125358384 5.585485136700654 -0.48179876428304763 -1.0047464920005793 0.8805940909896706
Ni 1.4704100841084804 3.5451984596181796 9.56775584115343 0.3538748120448486 0.43744132121359497 -0.03983178728495721
Ni 8.123341280643407 5.119462572210998 3.6937391383894123 0.7135538894763002 -2.5500787365154274 0.8139130447223532
Ni 2.822609765676213 8.80515304659322 6.262555679957888 0.43058444619276165 -0.754272707351901 0.13615662456063649
Ni 1.7388380864236888 0.30420571976813204 12.994491478467232 -0.27340853906798074 -1.1114781264318794 0.9706981441666186
Ni 3.3161089638479724 6.0026719010387595 7.7480914615935434 -1.9327337275622325 0.7495472768517737 1.091716627534236
Ni 7.638945898211362 1.1101643927731626 3.613562454939024 0.5268097817760992 1.0877866963522105 -1.6970607553718124
Ni 7.0836502586423 3.6540359224065204 13.382609137379163 0.00839233782875329 0.12418788223453452 -0.5791741543104284
P 7.058742367260657 8.217534685085909 3.8182219864535774 -0.5837843993889301 -0.8094462672002511 -0.16666404912087424
Ni 1.054854768095595 9.038437164906089 10.273837952978957 -0.4387644109003927 -0.6765397741457961 1.2713932868646942
P 9.204867166410702 3.1961260548787997 13.127314386883366 -0.5791265889019446 1.867055925748449 1.0394391582867581
Ni 1.2840092248343828 6.627670659895273 9.026713566104887 -0.15190771674730613 0.11901456556371115 0.5970073258371072
P 1.917304427392531 1.2692630849664877 3.584794954009831 0.07383462659296317 0.01845177894728435 0.45268333497433005
P 8.50739980703286 0.6356764860635618 11.204057678741139 -0.5859479826991523 -0.223852325406408 -1.0619584224351968
P 8.931650612697235 4.958814096910097 6.084611810779204 -0.14414658474464853 0.6515031428921425 -0.8953398818402775
Ni 6.058631135402138 2.3755483799015256 5.122011826220886 -0.7618106676001589 -0.029519606725671742 0.13738226943762147
