# total energy = -381168.81447111553 ev
CRYSTAL
PRIMVEC
9.26130118962751 0.00000000000000 0.00000000000000

0.00000000000000 9.26130118962751 0.00000000000000

0.00000000000000 0.00000000000000 13.55485043769851

PRIMCOORD
 96 1
Ni 2.77509335104593 7.939407936655135 8.018994928926675 0.0140500503351629 -0.8166803230548452 1.75675122925391
Ni 3.518331298771024 -0.031141125445168064 3.6836936848077717 0.8482102753423263 0.8344399610311113 0.22064178888891034
Ni 6.4766872789051275 2.6133817699609994 12.517416398050273 0.9874226560101511 0.09963950347120905 1.9488776843119469
Ni 4.4896195284178475 2.903806915785542 0.24721469259345866 -0.4860341425206338 -0.3922924925910986 -0.5451815994150675
Ni 1.7517751309899003 1.7576931024871383 11.261410762537823 -0.245348547606971 1.0991396594711844 -0.26051214272128687
Ni 4.527563079629402 5.509520328313501 11.013492211049543 1.3584791220406087 0.749531850232806 -0.4959886826301846
Ni 2.6511771403525923 8.677089103631648 0.35923476183421116 -0.8363279220824434 0.28602802760420415 -1.1263871823332279
Ni 6.982067226687247 5.3026784262488516 6.029712801311085 -1.874171710857624 -0.015986862346559563 -1.784377732721927
Ni 3.146823460523448 8.793781499351832 6.064494544276698 0.4294840140397313 -0.3579518103276997 -1.10954748506807
Ni 3.193407805799046 0.12122487655077557 11.653931567186154 0.5926107394313084 -0.6101304934826266 -0.6628527635770068
Ni 1.182464420695366 6.058233904633298 3.893020393997161 0.4123314135198447 -0.5363719715432375 -0.10364399664491182
Ni 0.881253563437829 3.23808432301763 3.1451045630118877 0.5941971100818219 0.009621839360480205 0.30028325197163763
Ni 5.912562897309268 5.539925180309482 3.661693463694018 0.4139157272878291 0.5797526525217176 -0.39306870863549076
Ni 7.812796687298736 2.672292907197197 8.632419995454063 -0.2400649306105285 -0.0062274689669505655 0.038260843253411524
Ni 0.7137749700659969 2.8105456122218717 6.95495291502455 -0.7636631474278655 -0.7415377762837358 1.5138753115571477
Ni 3.702779374418895 3.5393729752056475 11.628326847626822 -1.4958079125324755 -0.7254750663939182 0.7080663839991675
Ni 8.116687765137337 4.503687445013003 12.871537069335542 0.0638443481494707 1.2704867158900248 -0.30262449851030465
Ni 3.0771321686350057 1.386185264239563 1.7719851425724864 -0.13041535120148506 -0.22924110052214713 -1.3262693700772834
Ni 8.960179298868065 2.593858946930988 11.809799267183829 -0.9599573607103467 0.24833179860501103 0.26774105636955825
Ni 7.470304505859996 7.869531418741739 12.745897330480018 0.6710964916430378 2.037011501136402 0.864367344718163
Ni 0.27095418608151794 5.125444904272887 1.5527080913226394 0.8270259279552272 0.20874015235531793 -0.44633373860721837
Ni 4.539704645565051 7.595313550100555 12.286455289146412 1.0622893234120545 -0.3401880585863754 0.3944869291392561
Ni 0.013177905545257884 3.057414858278793 0.778279933255765 0.2716365347692225 -1.5025979388711155 -0.5803383498218586
Ni 8.939045009420965 7.031874504797021 2.440604786145396 -1.5182119912592886 1.5515247464788053 -0.20432196868296426
P 2.967635803984233 7.274844743028689 4.229655728526897 0.08731389202632059 -1.0240575336243654 1.4206985329921469
Ni 6.26995651245545 0.346903339222987 6.5824661572351 -0.9287842775416519 -0.6761283976399904 -0.5755954358202345
P -0.08428617652458886 7.022881781285569 6.704852400962328 2.2526008152030688 -0.7222408757273368 -0.07749407772242137
Ni 8.056378171412748 6.963303830359541 4.716125951421597 0.21683038556262013 1.8475741628747535 0.9350017192062736
P 8.108648955654392 0.885167389345079 7.2382496372787895 1.2478257839573994 1.2196233533812544 0.6884411535690724
P 0.8217765606954012 7.194151025258057 0.41399776224159357 0.036984804754465334 0.10649740693330692 -0.34587688144103657
P 6.094001050051659 1.850491340988427 4.223258021625031 1.404755379399329 -2.2472012414540523 -0.3193806349227209
Ni 5.195451080403749 0.5895429490001146 13.292428944225874 -0.4889873116116869 -0.7548411782608613 -0.848449902156958
Ni 9.15647257881166 6.673730724249781 11.453090062199847 0.37065254572381967 0.9853580601716384 0.6993187197135247
Ni 5.945468300642111 8.403454696969066 3.4326846370931574 0.7670084097510146 0.4141352994978029 -0.7411505681476462
Ni 5.177965743648216 2.966857854679432 2.3997235501780914 -0.5803956854223553 2.15194983974821 1.2602010176933005
Ni 6.737003934373614 6.190948351511888 11.624246318297114 -0.8578444559979806 -1.3799105524415074 0.9686798281850091
Ni 3.3461359246737716 4.897200135024955 3.465107526630998 1.0739821863689503 1.6182687847735744 0.15633875593546623
Ni 6.4065607058580465 8.813545116214282 10.680585476402104 -0.4926480482927258 0.3280768771451382 0.6315884062460865
Ni 0.5619433451520417 0.7913124363714351 1.6703775543244481 -0.14369818435332027 0.6754028323278756 0.8174794219173728
Ni 2.1211528699505195 7.190242756131556 11.971372854880169 -0.030332332434954215 0.3848044117441695 2.1156024114674277
Ni 3.7782497182858616 5.2727366393152515 13.31739648625937 0.16109632522510964 0.0416698689349605 -0.32533479562362677
Ni 0.29702382296348184 4.420011588240634 5.406460568029834 -0.8044763247894856 1.672307716796849 0.3362768964574273
Ni 1.867124638029177 4.495611590325066 7.937246348943937 0.8527274464863895 0.40192178815074653 0.6843667263893827
Ni 7.974563836191153 8.45968005684345 8.98350388606023 1.3286766939671957 1.066853802854285 -0.6683310130827587
Ni 5.7879706116248535 7.560102082757052 5.441797989070305 -1.0554311628396404 -0.33356232573974165 0.7550237265853126
Ni 2.1340723851909686 6.2404963131867275 6.327228399370816 -0.8368280016473136 1.7539286722034504 -0.04703627545319641
Ni 8.807886461151979 2.3263369990918426 4.984687943390852 -0.26108061363024715 0.5828233210272413 1.137036434516958
Ni 7.8073695647676224 0.8545874987555175 0.37141244684472463 0.20509767050672417 0.6133721403483758 -1.1479476821128232
Ni 5.164962876696539 8.130329661875102 8.463188237756054 -0.05257648854513526 0.734121943435639 0.291208286253563
Ni 5.777394205600055 1.407013930745491 8.655748287166727 -0.9794653488362873 -0.20231136601083866 0.27729090484152247
Ni 2.8470536617400435 6.482605250402366 1.5284583001358354 -2.4928302964159195 -0.6604521245553141 0.1409275635867186
Ni 6.097325857199559 3.6638633865763386 10.572335682899265 0.16228237511341084 2.8376594533187323 -1.9346278592611519
Ni 2.1489089897896774 1.680444588780626 5.586292811135885 -1.0377962233666964 -0.39788335641531475 -0.14997399005970302
Ni 0.43856336380094174 3.4387859823550984 9.59733552371239 2.2507547631332656 0.1863926378980532 0.04672568619131307
Ni 3.874576512562499 3.6909619540269145 9.298491855053749 -0.13837137282376813 -0.3579003882644739 0.8407481626373262
Ni 0.4892078635435015 6.3775820942542 8.895654886945676 -0.049124268330476686 0.21695919783100057 -0.6090706847595446
P 2.283790581160214 2.642712311012255 13.31361509695996 -0.13685519328955784 0.039262030824416254 -0.34635793484251315
Ni 8.851488667425837 0.4389125148579775 10.822504730590719 -0.566263102675715 -0.3514196656361367 0.11294419099991516
P 8.136710698434722 5.11200675616257 3.9021029521307153 0.3100207909743758 -2.2861796795997784 -1.6330762821000522
Ni 8.479378844597166 4.889689219713126 7.644230817160432 0.29038373346973856 -0.48427756484084333 1.070598614608698
P 6.950226872997883 2.9392591769614835 1.113391783730265 0.42251169648695625 -0.1308992328164391 -2.2427645458389374
P 7.1176619382538515 1.8254024759085874 10.576795925580125 1.1201674266757613 -1.8778152211474823 -0.31889778174903144
P 3.6118056122633897 7.295340002689701 10.207371880113268 0.24779572359588295 1.0883711081007708 -0.922955843785333
Ni 4.969595726877708 1.7184344464984191 11.025122553156322 -1.4746613603618475 -1.978506048701341 -0.40582677963210756
Ni 2.6103255405492805 4.182968582807451 5.564089767524807 0.3552156423434592 -2.166642665873695 0.287165226532441
Ni 7.231001742922391 7.280688624115945 7.186822557580805 -1.497240274103628 0.35952146880766467 0.3448934344818447
Ni 0.562517545829395 9.243399152321949 12.905071315023099 0.22165454642414084 -0.7653091676717207 -0.2912787344801822
Ni 8.355842347254981 4.976310170282242 10.344980924701233 -1.1235417424646328 -0.7433378056069521 0.026980899464218052
Ni 7.085617835937039 3.098266458082105 6.376499448138352 -0.4244945312449399 -1.6752631998807472 0.27769559647910885
Ni 6.1258043585360324 4.866674886112755 0.5300418668744429 -0.3362169897537693 -0.7453088132903939 -0.9596442003453021
Ni 8.224794934600965 0.21703303795754544 4.642238363937852 -3.835161862162388 -0.044763934479251935 -0.6176378576032654
Ni 2.5678902582326226 3.9138907363587037 1.5619795800016452 -0.2858691334288367 -0.4514497196775451 -0.9637641360509466
Ni 4.404971235014476 1.5514624463048325 5.631661147557668 1.2232889751582998 -0.5822900742315907 0.3772271136175439
Ni 0.7344165582867226 1.2372357562738712 8.824438258741749 0.5613888053025493 -0.3219949326171164 0.9302816880227849
Ni 5.989700275400809 0.9854209753507129 1.8355167430011283 -0.2731516858621683 -1.0196046400593344 1.310838123123878
Ni 4.387837827706354 8.243910260376081 1.5894013668657638 1.8567141775028086 0.3944745878440819 0.33078090633986257
Ni 1.67448031077715 8.220080932265919 2.545980797871096 0.2670489153985401 0.1396695228099014 0.379788703697133
Ni 4.32237895048808 5.829831693264158 8.276293326318557 -0.30479502379906215 0.5998499374922249 0.06598839107566701
Ni 4.714196822371715 3.6982320755063065 7.137536690731273 0.653683438372913 0.23531070375499474 -0.9161470483936158
Ni 3.256579141609154 2.034791235816336 7.72837900029643 -1.0963240443992603 -0.771634081448484 -0.2942928387161577
Ni 1.3702002582861472 4.566386454459483 12.498751171515792 -0.27777838600090227 -0.22893745323879927 0.3672466053660643
Ni 5.142337517748571 3.548319392210861 4.743506062430101 -0.19856886824927092 2.349268123419831 0.8548817738252309
Ni 3.2456600674381946 2.5612128600330792 3.7532164210135077 -0.6181096550333612 -0.16867645156521271 -0.3705764410702456
Ni 6.714008123375739 6.574505142682634 9.45495598285177 -0.2262640201716942 -0.9496071278242744 -1.150346778472619
Ni 0.8014989416137073 8.429636395596125 4.844909902050691 2.798881561219586 -2.4165387236420317 -0.15777343149946377
Ni 0.7211089945239979 9.068027151896759 7.015271770050388 0.23181786011038785 -0.2318389431563104 0.7050162843189343
Ni 1.3648935326712532 8.20626307080445 9.878666997841881 0.33791057540610836 1.1501480321982513 1.0705726464667693
Ni 7.763137590008925 2.841598755305187 3.001383059600485 -0.29703800556146265 0.6315390410653897 0.4633919796410858
P 6.204164228392261 4.598161979040114 8.470629693308526 0.5777309941059985 -0.15373551398466426 0.008928412837881398
Ni 2.2968953224256157 5.579961785603002 10.459383926753 -1.1797000348237552 -1.8221382393001522 -1.840660980694688
P 0.8782667937854671 1.0950099530139616 3.941858939996432 0.8766806148678773 0.09537867131232607 -2.0604926149774774
Ni 6.669952113340746 7.030559400019857 1.2683833646299127 -0.5326940084710181 -0.6119045546639139 -0.14449702610553178
P 7.6358410043602 8.702891088907556 1.9706039352593618 0.5528216324588286 1.3132153651068028 0.4379347159102458
P 3.1983533406652818 1.1712026783782434 9.636576583228736 0.039793477847854045 0.2405120454502761 0.5209332683906642
P 4.7986969349551245 5.990052204848219 1.739005648829663 0.7079036331690582 -0.36577079215148617 0.6398979545530464
Ni 4.413658335584756 5.6907269485247 5.69784888918413 -0.1531960965414265 0.9265435611365914 -0.03158163146102303
