# total energy = -381168.9567739999 ev
CRYSTAL
PRIMVEC
9.21342999247164 0.00000000000000 0.00000000000000
0.00000000000000 9.21342999247164 0.00000000000000
0.00000000000000 0.00000000000000 13.48478610175589
PRIMCOORD
 96 1
Ni 4.96011440565809 4.1834959842727795 5.356332424457294 -0.4250899987370937 -0.09439753834597936 0.8107608722466165
Ni 8.191365570447912 4.163014529914839 0.6659789501044596 -0.8621132585766637 1.411187765288234 0.02624813506325157
Ni 5.251599682996 1.793910054978507 11.078627807065745 0.6262819064315085 -0.3030497589731813 0.2703633244837538
Ni 5.884571520982906 3.974130006391607 10.165317099065373 -0.0953295632419455 0.8993639153980059 -0.24734115255696756
Ni 8.517391995958526 4.2309267206806425 3.189475631569051 -1.1095127751753924 0.45050612481735314 -1.0401420978910538
Ni 6.847946163616736 5.572752204163226 6.7503759424513765 -0.02966050317891021 0.7526577974562974 -0.27120278966591355
Ni 4.528308593065373 3.9647875886143007 12.15371620689052 -1.124537787829315 -0.2864527738464486 0.3881782133124089
Ni 6.754144235223485 8.92965612402889 11.494269578486367 0.33932493925513174 0.809697978199741 1.439840138917604
Ni 4.861954524988049 1.3982393139070868 8.449998521288247 1.9608292002468681 0.49163503364717914 1.176896246826373
Ni 8.28218234759871 8.055412200899656 3.2872936939949717 -0.9533467973723646 -0.6453792893825917 -0.5458120339102148
Ni 3.552726155998671 1.4466835275886218 12.874275514897112 0.9088073201990928 -1.2812933195872254 -0.5618294923843936
Ni 5.98375409235638 5.33124056984712 0.02559490787510551 -0.2838076229141177 0.09827116236877269 1.19720076271168
Ni 7.576019023593145 2.2214408361622797 2.102925725122019 -0.8692169595009805 0.8431863397651738 -0.4734545060834104
Ni 7.850376535005992 2.6786204343158473 10.396877307896993 0.6201012315420933 0.11313008175847614 1.3864005310412253
Ni 6.799271614191185 3.3791174990186086 12.564300726715517 -0.9270852925726744 0.5523017553996165 -1.4893469873984801
Ni 6.002770611382376 0.8293533293063841 5.407439319339659 1.1358454995326503 -1.60420022249565 0.7852848394626991
Ni 6.93983169861977 7.810334969266177 5.610506996636446 0.46617622725444235 -0.5120061411043634 0.7129807905816495
Ni 3.044559437549627 0.02670973287614502 7.986323455153417 0.5934211511477457 -0.053605701140598004 0.8982213171531305
Ni 0.4916378254584251 5.087379510942048 7.442240023468403 0.6329135528154132 -0.1960543293575333 -0.9741043416346902
Ni 1.327157703303617 8.142000013790312 8.84042313545395 1.6735966108116016 -1.8379844623037895 -0.139486717375134
Ni 5.452295823472395 2.5741032871109533 0.7750272620656452 -0.9337359651199726 -0.760531029556787 -0.38835587654085374
Ni 6.530110477163347 2.726318360186769 6.843204932661902 -0.07333814657251886 -0.40460781962334186 0.6141329297738004
Ni 0.8362339186516428 3.6985839625396344 9.330662362274706 0.18088713469879167 -0.15039050877183133 0.6019860099986213
Ni 3.914777091873454 5.509962680344348 3.637183823928663 1.2142433200162634 1.6970463571941095 -1.5167161234400524
P 5.46990268774501 0.5157410790552802 13.361440220206738 1.7710128813792467 1.1720839130393943 -1.4672151884964473
Ni 3.3100444161029623 7.788443860154855 11.183323694807996 0.9158948231734936 0.2552285257248443 0.20373061495586847
P 8.801055071429639 8.697136797159187 12.605807227787277 0.25656421381713235 0.012621288308436328 1.0078801525335546
Ni 6.372247571644248 2.826910586313624 4.458569379178031 2.015832295955625 0.23879017766316296 -2.211038675490566
P 2.870471682222011 2.4007618195939497 4.769986990460146 -1.8067751265805205 0.3816717796524588 0.5135120362259286
P 7.125288826272038 0.6887407283281631 3.49082020009384 -0.08449262052744158 -0.21626371442587272 0.450211990615702
P 6.954582399666582 6.216909145879568 2.1808132962896862 0.6704547442939808 0.4870870092651805 -1.0582742887153902
Ni 1.197607667439017 5.01198601521059 0.3414930100498283 -1.092546579634699 -0.8780720958987651 -0.5630718494319271
Ni 4.121517242272839 3.3149551741653926 3.3311597544284366 -0.45538299329368026 -1.2204214238025175 -1.0581663023826162
Ni 1.5184469319943803 2.927134275250052 6.679109141909718 0.5269766463712666 -0.5711654250733389 0.9800939835592218
Ni 0.013326304805814473 6.278150813498657 1.9739165175843698 -0.6013604605994803 -0.48942517048005396 0.19042515609621397
Ni 0.6056549400895332 2.9605053178431526 1.5355931247789634 -1.9215653696502388 -0.5260091402516748 2.344450133205898
Ni 1.6130504287768077 0.40215146756506664 4.801837817142737 2.2011301581276026 1.232283465347426 -0.2767725704442072
Ni 5.979055243178444 4.281545303785693 2.1758104039296495 0.5005130528630993 0.23261233098722522 1.1796990063824908
Ni 2.263463289300637 5.1499110587276276 5.044159311934806 -1.0875121025345853 -0.4259898848435437 2.6220971358352587
Ni 0.2772947528205455 1.052744911312205 2.9962921217194967 -0.6010059054735392 -0.40341379931524074 0.13041612253243345
Ni 7.073555418165947 7.251457533414476 8.946035759457386 -1.0631030775626014 -0.6235850763256356 -0.05073275046817714
Ni 4.4145319489510175 6.189038520853582 6.081516874203737 -0.3270404654608239 1.3715930337147475 0.8341558541317892
Ni 8.03877274675191 9.28253048386206 1.1640173452176135 0.16352113261651838 -0.6330220533688194 -0.3412524952951478
Ni 3.0786951948128616 2.8411269084343176 8.41307662286539 -0.28567732913300475 0.5558280233853201 0.7995377498372875
Ni 7.377672307705718 5.482976544575383 11.567464749876931 -0.9681972321216358 -1.423398191311497 -3.300518186164167
Ni 1.8201038357880555 4.647207904126653 11.531487228004542 -0.8325162616458373 -2.3095438082470157 1.2658191352110264
Ni 5.293539215266511 7.555279593201906 4.060903009220452 -1.0708505827185042 0.85088113730627 -0.4530926545976067
Ni 2.032556312639048 7.021342911712304 6.64531612423358 -0.5838268225910912 0.23679834404411473 0.8360453578450182
Ni 4.09124191207932 8.311444200518558 0.3481515557378552 -2.4821882433210414 -0.5902687215616931 -1.1257204952835063
Ni 3.537855680364971 4.623206919600141 9.87671562524255 -0.1731745965458824 0.1872776116061678 0.7576547364502564
Ni 8.425064216326982 2.0247801779210532 8.267265804816207 0.1662580719317072 -0.7958824124728874 -1.576421509720485
Ni 8.686486072355866 -0.19027206604518676 9.312080717133414 -1.6404712890125426 2.641841151231405 -1.0323639966075315
Ni 2.3866468452006226 1.6093650568725448 2.0397630573978343 0.8296299412369776 -0.05362524152462377 0.5120650193667567
Ni 1.6237195804396487 9.21693086396618 11.207623194458753 -0.9423463324968029 0.3890685863371622 -1.1860300908068413
Ni 3.8104718535530546 6.718009163702188 8.822083803515362 -1.0610181700091146 1.0850674976488346 -1.7440656633664413
Ni 3.3218836733454067 8.842911682832304 2.5501345495886034 -1.016704178583088 -2.3205998089508615 0.5530257780498347
P 7.959629385107865 3.9299147569702133 5.834543518725513 1.0294866750597367 0.3405287297552458 -0.8386951367630394
Ni 3.622600807303495 4.441536511579504 1.1844619458565115 1.0930119493068917 -1.2230506338952485 -0.4225278944368723
P 5.465940912947927 6.2782890149450665 10.017281237728993 0.45794792580737903 -1.3688391251186942 1.7984936032980186
Ni 4.7854922714043555 6.777435785658428 1.8158481525816077 1.5014789947753238 -0.637313995875954 -0.07168775545328944
P 5.376782553154048 7.7644981562069075 7.272008088495622 -0.091881456792345 0.16464316203610355 0.009080879255345653
P 0.3948608805954587 0.40480401399315985 7.188698413913808 0.4997062406910878 -0.9600594335058498 0.41700156530200433
P 0.5842816257307607 2.746744533966146 11.963257108221192 -1.2525823248057784 -0.06093874446690151 0.5453209532064092
Ni 4.985875155268888 4.32860750300313 7.9031363191874195 -0.0546901924540284 0.08613067035149682 -0.22103928143764512
Ni 1.7947945442355302 4.508674774245412 2.964522373218799 -0.23999962459023183 -0.3418837011212435 -1.4468926748890114
Ni 4.213909515912709 2.2213671287241947 6.477794780296384 -0.6676463283109082 0.013806823976105255 -1.452260624069144
Ni 3.670989740406466 8.983029522632377 5.942907272855482 1.3893465010434265 -1.720084727070812 -0.6972381830354121
Ni 3.2170440560988895 6.039467702119072 12.662079171393467 1.6435959506844533 -0.44795661892262206 0.7610473070715731
Ni 1.2374004705752952 8.225105150231439 1.366440082431155 -0.39842714473392676 0.7105539263077119 0.34814099488486494
Ni 0.02839855455127347 8.240030906443703 5.282138517280674 0.2177115026159928 -0.40910365061116644 1.7253822280243252
Ni 5.557651392785508 9.239227363986968 1.9640047098478548 1.097269181921349 0.2805726609165878 1.1802939596540125
Ni 2.376723981348395 2.4477042442244974 10.900480614585582 0.840343728110056 0.8575402944940006 0.12528111529871327
Ni 8.816671834873953 7.2063946484551025 7.483597266978041 0.2092003798211881 0.7808977661385971 -0.7393024591953138
Ni 1.6981088123271944 6.434124965916822 10.379724665711578 -0.4075928703935948 0.5231063647825829 -2.2603634898676233
Ni 5.361359271734708 7.079507293791332 12.188722633266137 0.31020976705673026 -0.12220736146939598 -1.167114999069893
Ni 5.102913353518516 8.583572061929328 9.954765352774006 0.07881022543068363 0.006413359725511536 -1.2451448946911265
Ni 6.83986598571664 5.631948490375448 4.209613293615314 -0.9642557309753846 -0.15064787619827602 0.8317135632388837
Ni 8.559580290832574 7.613149145528593 10.866296947487593 1.0551923073559568 -2.930701248967766 0.0045948184595340225
Ni 8.540001752591179 1.19218095730999 5.562514241013184 -0.9727676251011377 1.710602241501673 -0.5001718674735967
Ni 1.3436221022859112 1.3257941156990396 8.957309312112526 0.04939192016956655 0.15468425105117875 0.24568356234888653
Ni 8.998480444340998 6.0570377126726465 5.067460997142483 0.40079307386294205 -1.686256465667457 0.22009362969492416
Ni 0.6222833381215671 3.315802809703373 4.681216516059191 -0.08300215202484415 -0.8315065894344003 -0.4009416836256643
Ni 2.109368676553647 2.8720103249920403 13.622060507846447 1.5416715078338092 1.6923690063230983 -2.427436601501458
Ni 7.702980085695001 4.142671277003307 8.405242443539903 -0.28631470560668754 1.3461352557632753 1.0265849280319093
Ni 6.744359572817669 0.22678212415774276 7.566906941559854 0.9046709294332161 -0.6364616751779877 -0.3603233958836698
Ni 8.174320725390697 6.641583763837538 -0.39396072850784253 -0.15134413093435226 1.1292400784009906 3.298340204676242
Ni 4.291901198836672 0.9284096766921369 4.1210722336154 -0.777384610779016 0.8566283242026925 -1.9162817526537965
Ni 1.1337954529167058 0.7643295487705463 -0.159457750210669 0.06172267382077756 0.9388177505182541 0.6979424081912883
P 3.4814234230809453 0.8974746649277545 10.08390907638616 -0.5626427323143085 -1.3858230612712004 -0.25067715890873604
Ni 2.527170075910165 6.312636681092797 1.4122345137135248 0.22422462114416222 2.566917405339321 1.6204200267886222
P 9.014659227000713 5.610029740974845 9.729879352461005 -1.0789644700748902 0.1537961920192706 -0.3213752967552465
Ni 7.955695250600064 1.5144851571972977 12.653152279298364 1.0179478211822017 0.008187163796482674 0.48417137828028234
P 2.9153226582968896 7.240014453651741 4.700675279713699 0.4887780238143582 1.0978224833216577 -1.0726989487811525
P 6.880561704969463 0.9094769998769626 9.580643902569784 -0.9454902774424233 0.8349438972507234 0.8959741729901666
P 2.8388788315727176 5.055703739424908 7.5158940236610485 -0.25379693548464033 -0.5757013652704795 0.0003003048492381925
Ni 1.1282305413412688 6.953025330037032 12.492723433590923 0.49058499511611 1.3951175991992488 1.1795277709119492
