# total energy = -340862.4749214094 ev
CRYSTAL
PRIMVEC
9.27608171616680 0.00000000000000 0.00000000000000
0.00000000000000 9.27608171616680 0.00000000000000
0.00000000000000 0.00000000000000 13.57648323232017
PRIMCOORD
 96 1
Ni 4.655990066202299 5.442963561229616 12.907746527012584 0.07460107244534248 -1.521874013491908 0.6794818874932556
Ni 2.319595541125204 0.6496707889759105 6.604252925728973 0.4166935471432824 0.8634656588394999 0.02028394706001668
Ni 4.732842403055648 2.045014246834799 2.8161154384716807 -0.47841030742678897 0.030970223129269243 0.07919409113266361
Ni 9.144342783990144 0.7858733517381439 6.08132773422598 0.4543031299659402 0.6950658579744416 -0.850692932554864
Ni 4.30493675440809 8.994274334308372 7.867151561520776 1.0168263059832487 -0.09593557225706058 0.1375095390441051
Ni 5.518962498566912 4.342254431072064 3.099009029570086 -1.4569256336449814 -1.8228488922139314 0.006247009350976339
Ni 7.446662140189361 7.005705044595194 9.519653977028192 1.6727293777153 -0.2086249669336923 1.3634431509141034
Ni 2.30786129777946 0.9694804024008428 2.146034486939533 -0.13120133743789017 1.4600682930390207 -2.6027177028673822
Ni 8.107286126432193 2.9102314909699025 7.079932250328508 -0.4536467273288639 -0.8308872106828464 -2.4975043048528214
Ni 8.768012149573682 2.448690770091778 13.591146076644193 0.556441488599603 1.108754042632497 0.025217894026524315
Ni 1.2726969608875407 8.365467308283645 10.574790645420284 -0.10806295164821389 -0.5029134347744758 3.1523452538689454
Ni 7.550081175020744 5.252738953884819 2.8600896313608763 0.593789590230758 2.0064176875099444 -0.5513766724821859
Ni 3.1661585849691685 3.817896084947001 6.628962552151418 -0.07410253554236916 0.4389243335170247 -0.7158683965420897
Ni 1.2248231032532453 1.9086929502268541 12.071489209933143 0.7216004139298604 -1.1089067661602772 -0.3582014644446605
Ni 3.5750482661394343 1.134622484839006 0.13325926204001634 0.40696989209761525 -0.6823337551197539 0.2704880229870761
Ni 8.060414085621092 7.934083128999997 6.263523892862681 -0.5095998456557159 2.266302738170194 2.70736545818646
Ni 4.858357064487473 8.871728019019343 1.6260145642238013 0.19946978279698552 -0.7837118385486245 -2.720486826059766
Ni 8.71679890252874 0.5130804859987743 10.643569080765227 -1.1539542933182192 -0.2571738223766732 -0.9200317281600027
Ni 0.631271680931418 4.589341419214813 3.4880154296244608 0.5806707934606129 -0.8736443991447147 0.26739472877373305
Ni 5.619821334850132 6.713397158183275 8.343631411970696 -2.466945201119042 -0.047041160549202855 -1.5321445421799809
Ni 8.681058159753126 6.836453657965597 11.66540276065148 0.15196196702400924 0.9910080593685642 -2.294905232398235
Ni 6.060954675996528 8.934879583207346 10.102329193561175 0.035440857306113155 0.42957888774638275 -0.3633434136569162
Ni 5.931061704004077 6.267032106960198 11.073224198420695 -0.8506168279012898 0.6943953142699782 -0.0823254376727937
Ni 0.6785166202267084 2.0331686905087003 3.957436181903542 -1.9367266507717096 0.3025689626820209 -0.9968197809543348
P 4.5067286356280984 1.2764630500562144 9.688613167084357 -0.7571145476760702 -0.040337780387098274 -0.15880367253619102
P 6.931375801963221 6.628122139149739 5.048917465989674 -1.1944525105425816 -1.0707515952467945 -1.354238858707016
P 1.416281429463642 2.0162491174947585 8.101454253869766 -1.0091415357444813 1.111499466588118 -0.9421635270620355
P 4.506376144523641 0.6835396184652225 5.615749134985482 -1.5555588073388629 1.068705511351043 0.748046523936531
P 2.848768173650616 4.174041965592446 4.033166112871647 0.43180880551816603 -2.6815096734656207 2.277551828721452
P 0.4174802604291537 5.239372120160538 6.915099989019 -1.3876986810273584 -1.0118283385480251 -0.5836597008856077
P 3.6708052574897216 6.221523650158445 6.833777508396231 1.4926868504049906 -0.21187946931524798 -0.3277395484103775
P 7.583966701457109 8.009006040860529 2.3552351746103284 -0.19579696193108861 0.6769362382532664 -0.441530146570988
Ni 7.361619023198233 5.166230215985684 7.7055770601029865 2.0560029546372394 2.8145879162112495 -0.28393617807218197
Ni 8.304718249254968 0.794801580370775 8.307178266120811 0.6195695274083395 1.2505812352153496 -0.3911761195984682
Ni 9.136318973322897 0.7181366203676894 1.6103203616019328 -0.14384113768908777 -0.9185543722835278 0.4226006566563367
Ni 1.5596339959973373 8.123027637070713 1.1323572656887844 0.02299260424043137 -0.3720193441643593 -1.5793271134030542
Ni 1.8284362913909844 5.810611783178398 5.248871755425657 1.0220942392504073 -0.6714212219723081 0.9371969270853796
Ni 3.80240502851428 3.369462467505664 11.552256826553421 -0.4950497157556829 1.3511082834978345 0.563467542208449
Ni 6.7120428502556235 1.0501266566679546 1.9608375158740985 0.5802997832744393 -1.122134320594145 0.018230664075413763
Ni 8.879538479807577 3.5632027098133356 8.973797383963921 1.620723931182286 -1.4725800523527863 1.1032567669633515
Ni 5.325648956017268 6.559033882676142 3.3028054720446516 1.079738372126437 2.013880828656209 -0.08314921912566971
Ni 2.0368141906153228 3.9579649185602275 13.237002902036966 -0.4636601457008079 -0.005204941239707165 0.815682220807634
Ni 1.034069759251763 8.607146340797486 3.4266365246486097 -0.03843027895174027 0.7561205591939172 1.0303305111172707
Ni 7.735528600291977 2.5465534319871117 11.170146265632031 2.147398987152734 -0.4592735865973381 0.7839141843674178
Ni 0.11917724241695417 5.776503630781324 9.06230233464409 -0.17378471932605555 0.8599041667404868 0.698701654954816
Ni 5.016421496591406 8.332453733526727 12.921933366358813 0.4435826582246425 0.03888613554223626 -0.6982853933530039
Ni 2.5999372821489732 1.0682706724658004 4.265459605925232 2.67462605897191 -0.4453729173558459 2.5898904691957267
Ni 3.2735106784397554 7.765666589723061 5.0562622674767566 -0.13059944218783312 0.25348171823706667 -0.4739730975910417
Ni 4.673466204118015 2.202642703099008 7.6786012869221505 -0.9790092351354752 -0.5867902760947894 0.4055748115223015
Ni 5.138021651547417 1.6357071419882026 11.742490709979915 0.891136128171575 -1.3548281555515829 -0.4054855942426049
Ni 1.6468569921870835 5.711682371887997 11.634814881258128 -1.373285333815506 -1.042865667469804 -1.9854829942398065
Ni 7.112788131696591 0.16122293792150189 4.295450105657346 4.440957989935719 0.2766293599981236 -0.1813314213250619
Ni 3.079334460292361 5.916284905861967 3.100353133807871 -0.3633441849878645 2.4041817447385756 -1.6589541783080783
Ni 5.585889428005284 8.062371338858998 5.820862781060914 0.05543298415732389 -0.8457736408763756 1.288896071635148
Ni 8.962336785028217 6.527773487359814 4.923144929486693 1.9885269232724525 -1.8210946285269864 -1.5644198572739185
Ni 4.942416916818802 3.1767889745930598 5.427294404028327 0.9729841119873177 -3.1885479290417473 -1.275721739036719
P 7.8793820752372685 4.695060922306862 10.442637092318462 -2.105240865727445 1.928623562048601 0.3402757332041753
P 1.9963055418478424 6.806269288126031 9.425175229735645 0.5398781849242831 0.8695956829966378 1.0254754970178146
P 6.977394443258269 8.313057446699888 11.939933036492555 1.0940267637246512 0.04604537229483682 0.8377687682940281
P 6.168084143506405 3.6462700214031663 7.601377906800951 -2.326123566982568 -1.480506763399031 -0.900390042669675
P 4.243538369660677 3.07790594371114 0.02734217840783746 0.728701543751016 1.8444551576297976 0.07659367739533907
P 7.7199169547972035 2.302295648761716 4.866598863074583 0.939051463795615 -1.0423285640194113 -0.4367257832038091
P 0.8823909817875225 6.219046936345548 13.676134464753316 0.45782476996595345 -0.01326612098128683 -0.2620362926752971
P 0.7148352628919975 3.5270909237698724 10.87549616859181 0.9272940661493707 0.6904882659060882 0.1998932434876493
Ni 8.120430334195765 2.851597378567969 2.441730925995089 0.031507840800294125 0.2916957674129428 1.5873558972448016
Ni 2.7998368427029487 3.1408719862652177 9.579987467596876 -1.1295912910928223 -0.9723534203818546 -1.4024616982691458
Ni 3.0448274363823473 3.5275825560997736 1.912831010271547 -0.3587758488908918 -0.11894180334424677 0.010149172618859939
Ni 9.179517685782288 9.194758288009211 12.741854937173363 0.4394272412953722 -0.20292046034974728 1.0847602508210608
Ni -0.19165126870967844 4.647298377652922 1.1966423670600679 1.075890973355889 0.4144245486034475 -0.3787857163539154
Ni 2.0903279059209323 7.68723731898135 7.38180563218559 0.839473923910593 -1.0349047607515145 0.05614929349805814
Ni 2.2997540023769463 0.33114684047407705 9.060727255972067 0.38573669375045183 1.1915327657926256 -0.7083641177452445
Ni 8.757455968603361 4.697509807874669 12.410888052684195 0.22970312776023022 -1.2020745458642135 0.5837620307914269
Ni 6.376619736119579 4.073999424498496 11.97762175642438 -1.223721691820344 0.36561292641738324 0.757271899189541
Ni 6.7017371234911005 5.404560583007182 0.8017669901164818 -1.07415753560455 -0.8225666066322931 -1.0480739511436208
Ni 6.8129944473558055 2.2098131142502018 9.19981839057451 -2.176231852224026 -0.2456974463059575 -0.5306358403904087
Ni 7.538124305714289 4.429440322935025 4.831354390669718 0.5240021371239749 -1.0694817273954356 2.1436292356976563
Ni 9.368749752385586 8.169584291104142 8.59008484373359 0.36338043754243865 -0.7545529575964811 -0.14922065683344624
Ni 5.077532322806236 4.287655414207995 9.478855914511787 0.37326864319042813 -0.0031850825962009663 -0.19457003150252297
Ni 5.197370022239962 9.16939748065169 3.704370759107566 -3.487093886607304 -0.396872141541981 0.8273272612457299
Ni 3.740181072495901 8.583056356632351 10.683809650771686 -0.18607459243700214 -0.21284697543483988 0.6947529547197132
Ni 3.053203738154052 6.941403246276857 12.787227963182353 -0.34047422236822655 2.533108427209676 1.2130852951524207
Ni 5.335899026291612 5.272561940469685 5.449844558631888 -0.9775537336358713 2.5246741803993937 1.042240118070663
Ni 0.9982084274140985 3.156576392576952 6.020667725581587 0.05223041805962617 0.24634896384702734 0.5123303572130015
Ni 0.09399453582800141 6.751030221624921 2.597113642880638 -0.11334219776928223 -0.2208816728138583 -1.413552408865669
Ni 8.227522697378857 7.149716212929323 0.1936539747478967 -0.7633471588493433 0.9408103554682506 2.4727013868765284
Ni 6.529647255862454 1.0308509589031676 6.3676692448908785 0.29701897939806915 0.37809126139005206 1.1517318317456036
Ni 2.1812984391159596 5.119877635749572 8.180251785054818 0.7863605890253812 0.12341629417583261 -0.06897112785307476
Ni 6.9899728100383705 1.2434958557077769 13.066781237261942 -0.6514607196899812 -1.695339658915648 0.41529820945765245
P 6.975029042425728 8.474618961603303 8.095276383460071 -1.2136547945026452 0.0793594130659343 -0.993756825758295
P 2.2445984206111023 9.258030441259264 12.603252652076312 -0.9845448202417237 -1.913659227429285 -0.8812376381109404
P 0.9699627586490474 2.718123839040769 1.7373553728237718 -0.4910349381693349 0.5563018776979451 -0.41625594538523153
P 4.204170678941833 6.530751109584306 1.2224808926249446 0.9660593598430265 0.3804188810819642 -0.4226934734804591
P 3.6359179142301623 5.3729384205047 10.72813726237351 0.9454121159063202 0.7206197951841461 0.22414491694616234
P 6.262616692072788 3.1302415966413264 1.3064999301968094 -0.39446018966637875 0.27562303022079626 -0.2752659039916937
P 1.1051152689632664 8.245713093585184 5.542260305355189 -1.1354318090339994 0.29616588736915445 -0.026495475187367275
P 3.1506582524547513 8.396495801557569 2.6875600774598274 -0.40503462274811536 -1.4003937599965237 1.7362808772147003
