# total energy = -340863.64415974356 ev
CRYSTAL
PRIMVEC
9.32648463224722 0.00000000000000 0.00000000000000

0.00000000000000 9.32648463224722 0.00000000000000

0.00000000000000 0.00000000000000 13.65025299481047

PRIMCOORD
 96 1
Ni 7.819585970210685 2.1370800459908863 10.453760193093869 -1.1470344262699341 -0.36051391462792104 3.512668906862931
Ni 4.276538345597352 3.296026349075064 1.7918686061773597 0.8829829029368214 0.3924447018982467 0.06500185879268161
Ni 1.4811203928747831 3.0874768232005922 11.211144435402415 -2.0613750175824306 -1.5989981094694203 -1.1096127910883664
Ni 5.708442878356775 8.274615835506943 2.8566435272723725 -0.3264015463252443 1.1828108125385952 0.8171366938659733
Ni 6.785754460275563 4.29950015109366 9.368536954147249 0.39300443105645866 0.2082328737015962 1.5941790908142224
Ni 1.5521509008601133 0.4178209216699068 10.410543127980628 -0.032156787238202686 0.3031220069720134 0.4341431100782975
Ni 3.2256860009624897 8.070710899046427 7.477813205330746 0.8080254755933246 -2.243863178219755 -1.147371755004695
Ni 6.233990294976176 7.627964014188286 12.838377269230637 1.4090195539923218 -0.17814968116297059 2.1740690402447527
Ni 7.008396304632944 7.452392938449861 10.665925597112498 0.9600784596692432 -0.7251588207050802 1.532868564830199
Ni 7.60802398975648 5.969715022618992 3.5540482133959874 -2.178804240936893 -1.8440892896499466 0.36262607587491746
Ni 4.37841153870709 8.279652137281111 0.6065982998383773 -1.0668566310677625 -0.033742900778399955 -0.23338469037687548
Ni 0.6733097127281187 4.880316316442196 8.181197100838473 0.7213368758558286 -0.13802453100731069 -0.4206075374857079
Ni 2.3231527435769324 3.080015635387007 0.023429995031610685 -1.511386483697023 -0.7182749491010534 1.3275011856018557
Ni 0.21301691207785528 1.520720647195386 12.62443703516085 1.8622502768296896 -0.050053207902649284 -0.21859441944157834
Ni 5.248759097161795 4.834644520538287 4.302532191291407 -1.3314593989186554 0.45947336131297 -0.1420843028989811
Ni 5.255268983529149 2.5236441866127315 6.581469935885034 -1.6526603748795667 0.6804357667660926 -0.18434372578882446
Ni 8.846096189603728 0.608264942666237 6.719842327130353 -0.10865970469194836 -0.05902558660458867 -0.7460827153419409
Ni 9.242145365233592 2.101639403876357 2.8503369582729396 -0.703706050147943 1.6252231046042203 0.6879788692206732
Ni 6.640914151844343 1.5204408526523767 4.962126375521203 2.09696885552664 0.43908528457492124 -0.4350093147333347
Ni 4.935128067417744 0.14442527985909054 5.849829589478783 -0.6920342702369695 -0.48567933028437643 -0.7247297035874616
Ni 5.481156444585438 0.1844778686908922 11.70402770442242 -0.47596827364419964 0.18600928641670547 0.7566514919967227
Ni 4.877555676951168 5.144386406134506 8.410043855511326 -1.0024304422728931 1.5086824545022985 -1.0987185127733659
Ni 8.583397093172161 3.876152354550841 6.481413542007903 0.033091126127013974 -0.8255462580859072 -0.6934134099726831
Ni 8.322395416968188 0.03501721970610838 2.5474789510832294 -0.6617106795527636 -0.8341841362665633 -0.360827846323914
P 3.670111653078688 6.191918522192324 0.4381088239835214 -0.8256002512522942 -0.5442182070605337 1.8666247517483014
P 8.113426199279202 7.290447856955995 6.870854903180363 -0.6831068858403526 0.6599577014173988 -0.7572274191048507
P 3.9649684689868048 0.5617136592488027 7.691794475933506 0.7872591895802507 3.9597266681203673 0.3687213901393779
P 6.466816660699101 2.389939700993286 2.000062792982209 -1.307113108863807 0.6245844641244276 0.6171321216114404
P 1.3684004979810456 6.928720145268622 3.4878441612775704 2.5288398817413094 0.8405437599360039 1.498937716410709
P 1.086404904566596 4.222081001042948 5.489749867649735 1.2828318677189392 0.5148821771005777 -0.9850616119771424
P 0.40737432608241086 2.2803814844355554 9.463979536010152 2.9018969231415634 -0.5541979439810648 0.37696511820540884
P 9.057639517088399 0.5318250735160573 4.622658185027183 -1.9991242391723247 -1.4619081744612372 -1.339472499031119
Ni 6.228319792237852 7.484298842837704 8.658819442834263 -0.3099873666332791 0.5076159824564678 -1.495150995674767
Ni 8.109024098469186 1.6835797241964154 0.8083301653481851 0.9805135875951437 0.24837833557223027 0.2538164758686661
Ni 1.7512433711808655 0.6117698356416685 7.860907893619274 -0.17436990240556421 0.9872856162116544 0.8215456215669464
Ni 3.5081572451000556 4.495272392837367 6.568460422283571 0.26944338377264565 0.48771435843653427 -0.011045459180884202
Ni 1.9140744687275937 7.814456403588846 1.3634294816002448 0.9853122945353676 -0.33402975229446347 -0.18371971905158035
Ni 8.843811200835816 4.802897166391483 10.296986647403292 -1.7267335998458972 -1.108084270258982 -0.06960156234822205
Ni 2.1786668415668564 7.525941597322276 9.51045900549488 -1.1559713237482478 0.2891886847203729 1.5947894707047117
Ni 4.5523225001569925 2.33721708260554 13.081597069577885 -0.6578434832878736 -2.060694189465322 2.8069663951102495
Ni 5.651905727699334 3.5398766197925595 11.739763996104061 2.1639741179025958 0.4645006393242323 -2.907486501414199
Ni 0.8292047035536431 7.824389109865681 7.1873500963963535 -0.8593683488416748 -1.6402817987095555 1.7093935659055528
Ni 8.715525402865987 6.86180261706553 12.812741560551636 0.6546257476815242 0.4272795501892448 -0.5644664157866086
Ni 5.605562424892203 6.359981777693328 1.6104293062235502 -0.3571406272803139 -1.626908205616127 -0.24999375968846618
Ni 6.975893505220014 5.627591581911813 6.011694463203652 1.1897234804980283 -0.1444985687674286 -1.5377613741461258
Ni 0.14739949585128093 6.226295945043417 5.151223652117181 -0.21412712769884415 0.17343119264137874 1.1708790940980158
Ni 3.220211354404272 2.9735817912262155 8.652567900094956 -0.6792517737603205 -1.2796156747744865 -0.07978904440418516
Ni 8.063594791169221 2.3831127141438557 8.350487721734812 -1.2291405488430704 1.4540706806946895 -3.6771336343396412
Ni 1.4296568499305797 0.12566319045335406 3.089857874761603 -0.06651958098878866 -0.22075877408274885 -0.24366807458075457
Ni 4.288998529246039 0.11942097419881341 9.743455113240564 -0.38059165921440263 -1.4943102449410264 -1.9082354853105523
Ni 6.144512000121757 0.4560007523604986 0.7666081357430939 -0.20068617170258987 -0.19472018392714208 0.15483671746864303
Ni 4.507807188364191 7.008694752145487 10.299033810809645 -0.32369803135115216 0.05333213576423718 -0.14665161055468937
Ni 0.7237958400687424 4.729693587455445 3.3168617160445 -0.33228191636542126 -0.6900187824688375 -0.7473353568021194
Ni 8.047422666583275 3.4273525810789285 12.911433489707356 0.21565127765285444 1.9229301112082493 -0.6508593386605566
Ni 6.472393898589756 0.7765128625656281 7.447700783963593 1.0267163114034512 -1.502327201708232 0.9851544288012647
Ni 1.8147567324440088 8.74980956086941 5.492479729741031 -0.7549789893903062 1.4142502062636417 -0.6870080206669716
P 1.0559259523481008 5.19890903608228 11.459510590044085 1.3882388698015447 0.598778301694601 2.8584594207832192
P 3.287473962543742 1.4646778002305947 4.9898773309453555 0.38046438960791895 -0.2536827785042792 0.835561219119748
P 4.971874417399651 7.016883405770897 4.515435320255105 0.45199067978267965 -0.5831506224596731 -0.6328307632936198
P 6.5690629131995175 0.1837345478549638 9.708564733727286 0.19864343024094822 0.27089117196276574 -0.15531957064233248
P 6.735158280414689 1.7588164768116543 12.676185035890446 0.0650540521868557 -0.09304822340693651 -0.10170024265497968
P 3.384767851632892 8.557217650431244 11.595576541606532 -0.11931204219947192 0.8144025827642618 -0.12230789160300226
P 0.17743170944943773 7.944560866088237 10.654513710351617 -0.5431157180249743 0.08660709576728311 0.13733933201482798
P 7.288974272362813 7.7332507007227385 1.4247455230522872 -0.9675138329013659 -0.03136617301610727 -1.3591247260444077
Ni 8.508794541521077 6.741901328901217 8.936998638682065 0.8059541948865926 0.15150508199224877 0.12606401621132482
Ni 7.524747807272102 8.117809647119683 4.543023062195836 0.13149778563238645 0.49153038974851476 1.6485949465609415
Ni 8.037788407818983 5.270862866059542 1.241571496931819 -0.6242157679310991 -1.2792739751643518 -1.090834996260231
Ni 1.9723090396126257 2.850565457149731 6.8415343003699265 -1.210890601493947 -0.4809837245809201 -0.15134618781688128
Ni 3.0416371505708786 3.578105880852416 4.260885706212928 -0.18729895176240646 -0.23090074761275717 0.5639737924209061
Ni 7.87917288138693 9.34439161773401 11.931932484133807 0.6715094108107403 -0.6265860679354887 0.002289053144492832
Ni 5.423313586060619 2.1926006098087263 9.118628198925121 0.9774784003132456 -0.8447642257752548 0.24188552875903507
Ni 4.817577053414711 5.949830957095788 12.336634772330479 -1.3554395638833365 -0.4127715863810569 -0.5178985953293983
Ni 2.5885471941061553 0.6584694101668979 0.12020812951314663 0.02370094316136563 -0.014719565598361746 -0.6869537703902685
Ni 5.905035850759976 4.459803771268537 0.08470686524763191 0.37178845910047587 -0.2177097028437799 2.3272911049281078
Ni 2.4839133615053903 4.971342807767933 9.909114933617118 0.7595462970460145 0.795631729914662 -0.6591393192811615
Ni 2.991255479859645 5.5649176042776975 2.868218627516673 0.9843388748785048 0.6065492038892715 -1.0515698801120212
Ni 4.760489640156018 1.399383080376958 3.465212513342013 0.8261532955422869 0.7152353909437811 -0.918772916052237
Ni 8.766046970848725 0.16997145428432933 9.049763300702683 -0.24148546510713892 -0.800322450522112 0.8526978788000347
Ni 5.5290013114400525 7.145337080466532 6.555056398376466 -1.1824670560459312 0.8912615980058456 -0.21837227612844326
Ni 1.0842225071311222 5.5933354033626905 0.6150145196921014 1.0260131146888394 0.14077098340419628 -0.27217363821961515
Ni 3.5844478904939634 8.592835495756347 4.129856989073129 -0.27110148820135893 0.08500761249064714 -1.7538474253435536
Ni 3.2089169813514573 4.093907120890322 12.03119705945422 2.5917930855350786 2.287563961541815 -0.5232734864880666
Ni 2.0516121395862688 2.620080039103319 2.299767515672203 0.4036045751698081 -0.3841582935197384 0.044118330475453056
Ni 3.600069752478657 1.7781316267640728 11.052404866722963 -0.761192831510502 1.151952432396842 0.48854713875047473
Ni 2.9142933275625147 6.520863639923759 5.446123369855226 -0.24176494402077076 -0.03828706850565664 -0.5110962276955844
Ni 2.270495410582555 6.7604144011636755 12.398988851537085 0.09561521280316437 0.4451448605054398 -0.2762190119335824
Ni 9.094917476702024 6.944817657976432 2.251773425061317 0.8500108188861748 1.8356319029112127 -0.9954846070826792
Ni 1.2205757144243903 1.8801726965996164 4.928410200440087 0.1756744801496007 1.1806760255837796 -0.29728843100937186
P 6.5813552201224 4.03279999269706 7.303445246127261 -0.6016934184588669 -0.7873751463328246 0.23238967345345782
P 7.045618305337967 3.7806584770217184 4.06567305355524 0.9778375834248774 -0.6448815238105668 0.07381457198830513
P 0.5945326264953336 8.971966428018908 0.09550506931084299 -1.137644500414602 0.2464831754320465 -0.2155026678901321
P 4.469736477545372 3.863039316968465 10.034792113797621 -0.4967260750168413 0.7017355566851333 1.4806363469983597
P 3.4948110453985053 0.35628664047431685 2.0838472688863865 -0.27038080798525044 -0.28142729560739915 -0.3451955391032958
P 2.6319899601507544 6.044998407658066 8.02625341145918 0.12171499521400973 -1.032038752057629 -1.5500332495349434
P 6.789764848725366 5.448681624626809 11.663104021913382 1.7572204555808448 0.1533372501049811 0.3521966530114773
P 0.40950449520318943 3.668451538790165 1.0624647508182314 -0.7868668392378384 -1.67656469230099 0.40628752131861
