# total energy = -340886.95054022537 ev
CRYSTAL
PRIMVEC
9.10937395441932 0.00000000000000 0.00000000000000

0.00000000000000 9.10937395441932 0.00000000000000

0.00000000000000 0.00000000000000 13.33248957192706

PRIMCOORD
 96 1
Ni 6.566064065470819 2.4550400429699155 11.56174858209262 1.4475459922022942 -1.003306417119943 -0.320638418589222
Ni 4.740162933800859 0.8181593315325659 5.8474428630018105 -0.4239085768344828 -0.7814356409199381 0.6482409272011029
Ni 2.6747763611973463 1.7519603433832478 4.403107899512602 0.33443367260110146 0.1520936075058671 0.7800762986785662
Ni 3.7212339115253714 4.4449554524644705 4.606574875879731 -1.2431299211436269 0.13180657512205687 -0.6086937610361001
Ni 3.6929037585659437 2.9305949096087947 2.549958808507516 0.16099682353276787 0.9219667403991865 -0.20964312378556155
Ni 5.455904663166821 4.805814191800407 2.4028615490304936 -0.8885917644831666 -0.60447458074843 0.31845272379181283
Ni 5.60907878600051 3.056613988721567 0.31520437901373105 -0.08271727379457366 0.012721561331726479 0.6972070726871605
Ni 6.196050405323235 7.858073899777727 12.460411094899671 -2.2975784083550237 1.4198822077384383 -0.36550442586397697
Ni 2.0767186337872836 6.4672637956965575 0.24412211226999952 -0.041799195423973166 1.2669115969442568 0.36561112664517037
Ni 0.7428739996520242 -0.08596516189006999 12.879905052425073 0.6195656707535975 -0.7300174343489622 2.3501261005447525
Ni 8.129068665176444 0.13743130278723195 6.960372425921553 0.15496758661955246 0.6096563820596855 0.17198726110600057
Ni 8.52423330677772 2.7629642103292498 1.3089824198355278 1.6988062773080097 -2.143993818125927 -0.06034790496043801
Ni 7.023573262330719 0.9660217784207112 4.861651921252306 -0.04026913193269194 -0.8254318439952301 -0.753300830356935
Ni 1.0854821082952877 7.5207082358380495 2.2468981358957834 -0.7871997970972249 0.4276389904111925 0.057516091938597726
Ni 7.636269753665476 4.082730307037243 3.4630742540108455 0.5800897241461623 -0.2229097589874806 0.7998329124802032
Ni 8.11932163505857 4.1100037726194065 12.558658425675656 0.6138048570104203 0.053909091313629746 -0.9391561076942794
Ni 8.522712041329417 7.569288527070405 8.976204915218316 0.04463280821802636 0.038861452951887906 0.573380944667419
Ni 7.40161228092115 0.730553571395553 0.23383034159039787 -0.5210597666661994 0.32646171013921843 -0.2834713226206215
Ni 2.2100889776711994 6.786802414831864 8.929247914422414 1.127397625875613 -0.0797345370171659 -0.15574971620121564
Ni 9.285822515193457 5.071343332833962 1.3827792800139567 0.37522319581363767 1.4527180233215369 0.15920425040871936
Ni 6.689587176123499 2.3420291498462316 6.766531324998868 -0.43814323237662606 -0.3451418030472249 1.6837766366683968
Ni 3.657295215826908 4.5038475549991 0.17509583122496347 0.7228319723441164 -0.3299285856418963 0.24743216960887707
Ni 5.783423093875264 5.555224167255773 4.911102157696116 0.39180501143171875 1.3602629534139088 -0.7218840066085503
Ni 5.457052444283505 3.0212787272007886 9.41995075898934 1.3481232327275814 0.05891477205833725 -1.723403764141716
P 0.2831475811746566 6.111898008847611 12.36433726074623 1.3145937335115683 -1.2486565073888107 -0.5256404440583463
P 4.278882456128997 6.333829686195048 12.582110508889174 0.31794261692461373 0.7506024575891653 -0.4680487616868068
P 2.5440659545044766 8.784961807743873 0.8732154767002458 -0.9511073665188847 -0.474251290953093 1.4660515072056495
P 6.5882089535236705 7.910051987490426 5.917225222084028 -1.3425004872241653 0.520069120618156 1.0806225745036036
P 4.919772459814053 1.194949454955558 12.462331350926629 0.6617919264126603 1.139671815257276 1.9175616478074848
P 4.377236366580103 6.202335873343172 8.074649265247306 -0.5144062659054237 0.982126183497902 0.1203901057549991
P 4.609634714586829 1.201854360403547 3.493405736425317 0.8300297477785576 -0.5010966932807113 0.1596989306569508
P 0.4027163125991421 5.882460207372015 3.547549122324014 -0.5638727480666677 0.05915311332138845 -0.5186894666618099
Ni 0.8341736109224932 0.22738545952647665 4.265849674830267 -0.39623090841355635 -0.5730212473351551 1.3377161784616445
Ni 1.9597542723727983 6.786556461735431 4.834333819737828 0.3287800738597499 0.07061226300092356 -0.5452379065742997
Ni 6.172548220553034 5.869916599453966 9.315917153885437 -0.20399106770610673 0.21541859281675804 -1.2843385341714526
Ni 9.17313955953168 2.78909900416867 9.99112763483414 -0.8210727956955859 0.0981850304128696 0.960541515348591
Ni 2.7889168166898313 5.3390951611093485 6.657072176775146 -0.4077461081420074 1.6216078764491362 1.845202320208467
Ni 0.9525581237345266 0.47628452749162853 8.768498436218609 -0.142703938760851 -0.7295188974459889 1.0074664620349034
Ni 1.761224576682199 1.0980621537091042 11.166347096768854 0.31199771219508843 1.8109572829826681 -0.21809228299417927
Ni 4.334048824721374 6.801614256861455 1.4950923950936885 0.4716562765324071 0.1095163962652888 -0.5582186351046838
Ni 6.25943342921124 8.192342376577146 8.179495426506831 -1.0671283966719105 -0.39515284485802915 -0.31084122999314207
Ni 5.371588297960241 2.892754570253984 4.853532736257856 0.6134677853859757 0.184632717784153 -0.8207665773090768
Ni 0.8763746075833099 7.771261566111058 6.9239349301538 0.5580396863246583 -0.34969162720143643 -0.36671772944578773
Ni 5.662860529753713 4.669738363855736 7.141427609579331 -1.5457688178316347 -0.7930022627116149 0.9530269521391006
Ni 1.2365610751223315 7.708361339041974 11.011169822605332 -0.18529940483387444 0.04614821642128826 -0.2522874408186494
Ni 5.102406297975971 0.40115405496809975 10.500228681951599 -0.3325655090441111 1.2405228225380829 -0.5292055357017854
Ni 8.261810462258367 7.651719251871004 4.80789568374614 1.8325931160848892 -0.32069498285877024 -0.2474853914443157
Ni 7.629638129435746 6.147688739065485 7.031901962925834 -0.4708034416138085 2.837142404472998 -0.7183906487433112
Ni 2.565564077007451 5.361076080431245 2.4419516944901387 -0.3421708933443591 0.8044997218282532 1.3481535717448847
Ni 2.512930114370932 5.584683882584 11.454074871161517 0.42787784589487604 -0.2963846882481799 -0.7844931967993392
Ni 0.9659944502988854 3.4455842560423244 3.7408436608101816 0.9236736957879641 0.7772149179703712 -1.239916813522968
Ni 1.181112315937754 0.9898792287746472 2.093173806876001 0.47967966105751586 0.6131425408360731 -0.6078836064299789
Ni 1.6080960007182192 3.5919992234110953 8.047690984003534 -1.3341186909183733 1.1331908355186227 0.6446665795862832
Ni 3.791330544008585 3.09056462540317 6.96661234707178 1.2509651009173295 -0.2021964376995292 -0.722922989396026
Ni 4.115979521925318 7.261127515988581 6.094800624895987 1.2623946829105097 0.05161669573502724 -0.5856754457640558
Ni 8.248501666929196 7.36635900376585 0.18832173125126345 1.2868083358681837 0.8412184174055255 0.8247551296431797
P 0.5816654090015454 5.761132455839341 7.916272778955376 -0.3585881583601179 0.47544171171676824 -0.5577810333466329
P 8.921356463776512 2.086565867018519 7.905886270786778 -0.656454830470463 -0.4935798160783758 -0.8341561112421054
P 1.9483948830672013 3.7240578174473726 10.39730186578164 1.7414698776148072 -0.17944500293562643 -0.5665772914820242
P 4.18132106121084 6.421534738508029 3.6678875958465937 -0.9208925334984011 -0.6651847541442931 0.4280768492795596
P 7.232296347462347 4.2266675246938075 10.341932358150359 0.7789049040782844 -0.5787895172774999 -0.6070994199657866
P 6.680104317849943 8.110312464229994 10.34985204785548 1.1828743187866788 -0.6303380787787531 -1.0105389303126402
P 2.624683913890629 8.895941310478506 5.6827071227610135 -1.0774228366193832 -0.07403440130859507 -0.9136870168888974
P 7.25312948566756 4.3263514037404365 1.3225827151308414 -1.6956227373737056 -0.22203686946422407 0.7910723926787537
Ni 3.1819134272929253 1.8703913140023853 0.5241360688086295 -0.053783364369042866 -0.5310652146183436 -1.2399304403697224
Ni 1.8786352974198393 1.5327796969662748 6.842260283390383 -0.628366299764363 0.11374406119339121 -1.0892427120724466
Ni 7.190930680392006 1.441494660694113 9.30206452893193 0.3204373583220094 -0.9616110942636859 -0.9887855977959489
Ni 3.2540323407912495 2.1275125028875306 9.010976306492088 -0.48714511619662554 -1.8801680376503747 1.2574234549481635
Ni 6.494837870618804 1.818057960705951 2.4093273826544817 -1.097637106783729 0.6505487493986731 0.4987425912262378
Ni 4.325622653825081 7.301217870707051 10.352371700687819 0.29890102691213033 -1.6547653370377113 -0.46194959076760445
Ni 7.506980409307548 6.307622017364094 11.157533777480028 0.8124202622269106 -0.3071378129996259 1.2662755060221549
Ni 7.971594917842161 4.16421365694788 7.946044034872418 1.1105491868597066 -1.665713094298467 1.978734105551747
Ni 3.5134035450400534 8.619672217567405 12.24671793534532 -0.16989489735334612 -0.368451681417759 0.6373903576398442
Ni 0.477598099214056 5.566674650300788 10.175355613435896 -0.6400702184648525 -1.5626442534307345 -0.521620781375992
Ni 8.84237819169991 2.671979783397172 5.64934950632303 0.29239305059028353 -0.23142782376082077 0.3457961488017722
Ni 4.207437636302377 3.033284882056263 11.320923152252206 -2.981089728722646 -2.0444653863112854 1.3652894600942227
Ni 1.5689256927678854 3.3870474190914295 12.548299245628883 -0.8676172191140283 -0.5007981882036859 -0.7814384691334154
Ni 3.2584503871530894 8.824797099991967 7.756815920913931 0.6846755158790531 0.03266020923718246 0.9814885499139032
Ni 5.5490662304710225 8.06544879756595 4.027371730654691 0.12235108613611186 1.0056934292948807 -0.7197674744861797
Ni 3.0432505371487437 8.376169542725458 3.4448618826887287 1.042917603753662 0.9371061671437861 -0.5552215001495728
Ni 3.7736583585612253 4.5510523307662245 9.446868958987768 -0.7346605895479282 1.292807233764096 -0.6601163384824502
Ni 5.43625574357406 4.8135298315292285 11.443742108299176 0.14794821787892584 1.4246711444866496 0.3614824491887774
Ni 8.027745098820267 9.105475129890966 2.5498385647714827 0.5032641332456752 -1.7388409246323924 -0.018849528606335278
Ni 4.661549036681934 0.006767353901465826 1.4123902109496207 0.7584301811637002 1.5718176923998866 -0.23461136369512497
Ni 6.458983374783337 5.7531070973964935 0.12191803896411134 -1.3731205261028674 0.5866419234423832 0.2798121286014794
Ni 8.430342989558163 9.304132356816751 10.996503730558812 -0.30999405150149834 -0.010481873367930335 -0.1749527714922277
Ni 0.23720354276109754 5.202536536345755 5.6164847070153066 0.38916088894065237 -0.33927377430222216 0.22823091409007792
Ni 7.229344910305159 6.592280843675717 2.9972901018620886 0.5555593431049658 -0.7161203646518958 -1.3868844126561792
P 8.516490338927072 1.8225671008072102 3.502137982286059 0.44213409870357406 0.8275969699673489 -0.05614929349805814
P 1.9291194478060603 3.7820116544659825 1.2648429483998664 0.24787928444862473 -2.2206371178122786 0.8624750127914566
P 5.136047215943548 0.9537696704688046 8.373910417987858 0.06964449977101553 2.3409362065153685 -1.9014534293917125
P 9.00472545409313 1.827604584597102 12.439292833290073 -0.8711180331784352 0.8208892189298701 0.03118285336070759
P 6.592863843608001 7.944303233512114 1.34815454966065 -1.3475413920821826 0.09326959538912324 1.1211922683958497
P 2.010293079002671 3.651446997756184 5.789459875986586 -0.7193676679445998 -2.2392675884292723 -1.432460044403449
P 7.257948344482845 4.32547690384201 5.787553284020539 0.5716745034992735 -1.3286859499385761 -0.6129625636147831
P 2.818385641392001 8.857399549330164 9.93331772592381 -0.18983508792069886 -0.2198743145952665 -0.18047987195804402
