# total energy = -340863.5049264394 ev
CRYSTAL
PRIMVEC
9.35136090933324 0.00000000000000 0.00000000000000

0.00000000000000 9.35136090933324 0.00000000000000

0.00000000000000 0.00000000000000 13.68666194085784

PRIMCOORD
 96 1
Ni 6.896843714346804 5.5004049973665765 2.423839069590128 -0.595181071261646 0.31550855356182433 -0.14763788572735864
Ni 6.458685701327929 2.394013839268446 11.843998824930132 0.8359116604806313 -1.5129196325120975 1.899193429712942
Ni 5.818136185251377 1.0998603073570579 10.04082266741515 -1.2003580773937392 -1.4267154286101882 1.1393409142804185
Ni 0.6190404509662185 1.904937666375753 0.5389740992968639 0.07556729301335373 -0.0754575069083668 -0.1577127534648574
Ni 2.255314455017119 7.85459139073923 2.1856917031543905 0.3087226409882425 -0.17961958084027776 -1.3383633251273401
Ni 8.904309701173714 1.909978049878414 9.534183703694353 0.12084056302885639 -1.7375515163970077 2.4924577435678494
Ni 2.8242793037228577 9.035191347747444 11.939737122262027 -0.5758695154172275 2.9593279115655227 -0.140508473771429
Ni 0.46761854026708005 6.544241301821147 1.3185063458587527 0.7421617830209799 2.320271221966849 -0.31854631194688365
Ni 5.259111833138084 6.9201192515232846 13.63238019443109 0.5666443972745339 -2.448145037693403 0.3148575502413868
Ni 8.150159853389695 2.2895871925630407 2.1200096147573793 1.9741351733271548 -1.3074735775270194 -0.9910219433256353
Ni 7.8998239232111604 6.913161839044658 0.4498603059970375 -3.2269872068545515 -0.36536121541789335 0.2794945973610606
Ni 8.514030655749687 0.7095700403000018 11.833050251637152 0.3713925092136378 0.1557368606854092 0.3209775470961956
Ni 6.709872605344576 5.306541935411731 12.454109661412694 -0.35103759970636966 -0.021734306353298056 -0.24717454507211625
Ni 6.715258989198997 3.6580746919376037 0.7523758946291854 -0.6451098377712889 -0.23889070779676924 -0.7738133484879899
Ni 5.910331251954036 7.01835529734045 4.111391260907895 0.6460786294424615 0.21709135253349063 0.6510961372617109
Ni 1.502614068166148 8.909705436388993 13.76358072241009 -1.3776672649332855 -0.14406225256095834 0.8192272578464149
Ni 8.06126581707004 6.974684442131867 5.753968082177336 -0.3686982502109263 0.21843243994241737 -0.634542603778404
Ni 4.995487619179807 3.7705154548986313 2.8633455488447797 0.5238352725288075 0.09699203854603296 -0.751663551863828
Ni 2.976107998619335 6.450746395959174 7.007406724047471 -0.36481639865801685 0.34164638829945676 -0.7376600384958845
Ni 5.991650685978412 3.7883391486946825 6.804283009434584 1.8612274919921301 -0.5592907851229401 0.17455836426728646
Ni 9.088166807010104 4.4331715880443685 1.5007428608583884 0.33344894009032894 -2.0745946015964982 1.6500471056264356
Ni 8.907732299247877 4.96646099507543 13.094180387813298 0.9620263274242334 0.4411311113603564 -1.8812579282804438
Ni 9.047918549875686 2.1700300439887945 5.743333714609198 -0.2933327887957335 -0.3833910763364107 -0.8530452348371245
Ni 0.6709311523693074 9.371092229780057 7.8354500901982345 -0.27669106647399444 0.1451184617396146 -0.3021421595572474
P 1.4435789270672652 6.6269914940568535 11.301705927664633 0.3959879391648148 -0.4156537930248584 -0.5015870026535684
P 3.4470799368902263 3.4770791025238736 4.30293612050595 0.28937200437577265 0.3361113174138405 -0.42394997159537945
P 2.971600642685601 8.320812837694069 8.551713834600658 0.30071879684715946 0.9499321152638607 0.7732541335504102
P 2.491679452073251 0.8563256219308142 1.7077670280853021 -0.8993315194981737 -1.8831137505422602 0.3467862806291834
P 6.143030515553687 1.8433963605668273 2.2616387803656335 -1.2271291748399964 -0.004289114293657129 0.16296757410589352
P 6.795671341220111 5.0897867420755984 4.860571795531775 0.16599736207115284 0.12303859912143973 -1.4145726226000668
P 4.731367783096036 1.0020544241393776 12.42360178174835 -0.5679458896947767 -1.272352308343854 -0.26116828824804694
P 8.392687397251493 8.914371765457318 13.952046178877485 0.51596255464895 1.5905430367235316 -1.184925801999069
Ni 3.8906243337635216 7.296838823702676 11.558084707229847 1.8741457427156951 -1.6887969727011238 -0.6819295777027997
Ni 1.7379971723321515 4.941988483709078 5.0580154935592905 -0.7783631726422013 -1.0663748063353375 0.22273338131061643
Ni 1.2948455326149078 3.4279564039348616 12.166826504482742 -0.9372126108146633 -0.4877567816386955 0.14275536082407672
Ni 4.568644752799559 2.5855858178129916 8.564921696677018 0.03987112516332489 1.5689884504812075 -0.17748710787830724
Ni 6.173646871003987 8.705415607077066 12.3461762543854 0.44802063939133807 -0.8462739775515619 -2.1939958610756665
Ni 8.002024946032273 7.913439504620946 9.771537139593216 -1.27826661694576 0.7639752793516456 0.341196959466864
Ni 1.5131811059361049 4.492636891742736 7.487329784931994 -0.2113639631314102 -0.5131315129580583 0.6924034806509302
Ni 6.198016517400896 0.6544680815781491 0.34608357887128866 1.1368299749331066 1.8165044380531425 2.5648330120064666
Ni 0.8588794785812347 8.629809854537154 10.147331862183712 1.2134100254816909 -0.7818657864788212 0.09662154258049166
Ni 1.7653779569254555 5.466581125141857 2.760681633661177 1.3963149619414597 -1.3145983614972587 0.23330730017172074
Ni 8.606197668369772 4.517156159913379 5.904576424481796 0.22885826326143166 0.14689278003121797 0.7149875365990332
Ni 5.01598580218135 6.035012946278668 8.667666968700088 -1.6016149782669773 -1.2930306626288117 -0.17136376858938873
Ni 5.358329771845378 8.728513468397237 2.69716157989462 1.0207045579917324 1.327305781761598 -0.4318196041514433
Ni 2.0646215043932603 1.9266328235671688 4.830994376272841 -0.6864464917365468 -0.16263127381239734 -0.35348400436433314
Ni 0.5976894238543906 0.381661766393039 3.192660267424841 0.18791575941079897 -0.026166373982722677 -0.14862056135560212
Ni 3.774302756046271 4.060585317364376 6.307210487871899 -2.5932506439172114 -2.0918263920937523 1.1686566325254004
Ni 8.217293272991926 3.6917489423885903 10.849019640416195 -0.4060550935928297 -0.9817119787786189 1.49490905486729
Ni 4.408278265439391 1.3562559193718162 5.534284042620361 0.9188263949979919 0.3657211698604734 1.5327402667824506
Ni 0.5235321971114394 4.823777931098437 10.040234466817157 2.403098538976726 1.9944047222094685 0.508454419197363
Ni 7.0227691396656 5.378033089173962 9.93602383654758 0.9853164083004257 1.227562148612357 -0.5984702835358789
Ni 5.470901453858422 3.8564077043827494 10.521115107053575 -1.8534743304092725 0.6480066997031098 -1.0586550690935768
Ni 7.2147619294487715 3.0539113209609643 3.9956017756234847 -0.19258385431042963 1.28701248145919 0.759141348298112
Ni 5.059076873016715 9.326009319081859 7.571995135871494 -0.5939909076082867 1.421388617080636 0.5737164736299668
Ni 8.5852786741296 4.0232546848177675 8.308132392370123 -0.6116973237491143 -0.7442351206102408 -0.5129016563354393
P 4.722390476672001 6.7320072764963355 2.2659637847626293 -0.6413238883662955 -0.9371596460895409 -1.0484609021693942
P 0.6797363937535477 6.394535365839519 6.38933039838575 0.9649262746798478 -0.5343783381519763 -0.04898620009071564
P 3.256106445440617 4.382964131595785 8.915682826249663 0.7202770671327466 -0.8606744692476079 -0.311107082060019
P 5.044516804160234 3.8451206118266987 12.686549892316568 0.35620628839150265 0.7813289401387448 0.688946375340265
P 8.318605916531496 2.842766944139853 12.932294304313643 0.7776090680849962 0.0015853422092488828 0.6037163624261668
P 4.816661545485218 8.256222988245316 5.607275154664275 -0.48931435593380246 -0.09749597476564499 -0.018337879077239386
P 1.795274257589661 4.98962431592161 0.5987601546726737 -1.1631832681156549 -3.2377408458266306 0.6807795232587566
P 7.370003871058554 0.48820649633286506 8.721524261291693 -0.39377859021832184 -1.389943768307793 -1.2543908387694267
Ni 6.766925257941486 2.714859030319083 8.870380158571294 1.195324885845206 0.4786640753088079 -0.655527176449871
Ni 5.181252402631305 8.108882946560856 9.738703576483395 -0.6335028496599799 1.3034662561398391 -0.8428608381049549
Ni 3.3147675321051646 1.2235788115132782 9.87692510619486 -0.9169088662603048 -1.7104227785010158 0.2833733635901765
Ni 7.432162366684132 -0.27629063224093825 4.135876864179448 0.0441088173937563 -0.3518870921908585 -2.8115223899120485
Ni 3.9998014717849784 4.741813253174834 0.6120063573285534 0.33136814630190026 0.24480013130266873 1.0186150224525552
Ni 3.196931033928858 8.727484818702816 3.9265803162639497 0.7524605938438267 1.3819926317815168 2.256658015991578
Ni 1.0989532253537961 7.391194054763617 4.366510412165486 -0.7816495567029571 0.6476320899725105 0.42316192847644546
Ni 7.574312403092198 0.13249101577745637 6.175462905282682 0.7955959915807201 -0.5565006239723125 3.9654162623059777
Ni 3.462621898636835 4.979459386668562 11.614022677612436 -0.6627707453861619 0.2599177036703975 -0.7062817812949191
Ni 3.4678680120783802 2.654972915382089 11.85930045670268 -0.22372119914518246 -1.2666308324790443 -0.9234163283615193
Ni 3.8203301541911623 2.0764322731573803 0.5534761897160224 1.7751428443872201 -0.5077159983694417 -1.0417338678582058
Ni 3.3507796227707436 6.3628716579730815 4.297570309645418 1.4455850118211813 0.4236902901760896 -0.8091086813551743
Ni 4.1925610731585365 8.616689895252861 0.6943815599938392 -2.132243362458218 1.869566607985445 -0.4371417876953052
Ni 2.554688921536941 6.506256074014452 13.27095664320773 -0.018103394468930112 2.9027983519099103 -0.5230906810532991
Ni 2.6129291969628623 2.9728724277623395 2.172114462324125 -1.7367277349441317 1.5726671848843754 1.490866252256484
Ni 8.891526390880323 6.310176739536173 8.252728384692544 0.4919029425965851 0.8527917240654216 -0.2898890532215072
Ni 2.748196631779168 1.9065273977216757 7.534643930330996 -2.000624477866935 -0.0034311371687360264 -1.0826570884351288
Ni 6.56170964390458 7.629709864817174 7.599477850298154 0.8931302757834684 1.4089732741354186 -0.21593744143470556
Ni 4.32583666811201 1.3827202706010002 3.3190429742896113 -0.7871293488706057 0.9571944532532289 -1.5105457329632823
Ni 2.7279509355208 6.374962967562952 9.377307144206528 -1.415100470079079 0.29174050460794915 1.9470195480572856
Ni 2.841944024384316 9.011850351044957 6.597025993322296 -0.6817094912721937 0.09858843649887537 -1.7094347035561335
Ni 9.007782509071566 7.563371310887907 12.150512120329232 0.19635052044171344 -0.0036244841264647257 -0.1824951026158599
Ni 8.935328165140923 5.422900918572416 3.684873821885517 -0.36703346091399364 0.38212969312548384 0.5700171704015087
Ni 5.030770303698432 5.697756116921594 5.885333194107444 1.193597618741454 2.650416551605242 0.7321828174313971
P 0.4272964073818792 2.2254929652397806 7.793910410129274 2.3901293804105674 1.3724332702278559 -2.5231153205527064
P 0.3636688129654514 3.18293204672388 3.5052631690149116 -0.11582896874687794 0.02425758699578403 0.4211474691495779
P 1.264378798938342 1.2055587391392015 10.957336453238684 0.583706237852827 1.3958087117290026 0.9201096325857895
P 8.404189571107286 7.652125076794685 2.824571066181639 0.23375132968767487 -0.8214142381954047 0.2730748098776459
P 6.209266204513515 6.9751987669790765 11.127940810466592 0.42232709127997586 -0.8793332219993759 0.4818635560827121
P 6.837125923905261 5.637178001281081 7.774913120545498 1.4710139934172473 -2.27198924703201 -0.7644748446958834
P 0.7536579662028678 9.542222133488208 5.501053046674062 0.19634563534570704 -0.8935920459112353 -0.1571378547979939
P 6.745435830688954 1.9673954055487988 5.73877586132683 -1.1990730400337286 0.29186288911842634 0.4300113472981111
