# total energy = -340868.8829254339 ev
CRYSTAL
PRIMVEC
9.29889330353775 0.00000000000000 0.00000000000000

0.00000000000000 9.29889330353775 0.00000000000000

0.00000000000000 0.00000000000000 13.60987029626524

PRIMCOORD
 96 1
Ni 7.096180881688329 9.070884599518727 12.51356836335323 -0.26389828558470035 -0.08350171736908199 -0.148836276910834
Ni 7.893979446718579 9.000863931709674 2.9559145874997683 -0.41487166344319526 -0.36534244636481594 -0.23430257420545456
Ni 6.091416844755539 2.438374442792266 8.180144524171782 0.3894002586449681 -0.9701062762188907 0.1755754926778912
Ni 5.115628159866974 5.782498304877108 10.569983392511277 0.8668068073975911 0.3449944788360833 0.14534651859002068
Ni 6.4006887425857295 7.77312172832359 0.9301989998862475 1.5193862140730479 0.6291304316238971 -0.09881392224612015
Ni 6.52747915501288 5.351606179387606 0.3252799429342117 1.0842681416759907 0.9257843143730637 -2.205338025561363
Ni 4.2914765307502885 8.871265253455386 0.8479140214831216 0.3174469082351178 -0.06061967056458593 0.49717113297405996
Ni 4.791264157939295 3.9170193897140604 6.94370134616831 0.5854754139381078 0.816883954425219 -0.027926294096622874
Ni 3.065687094992345 7.677854564750714 11.491521403022046 -0.23047394448798372 0.33378035528781874 0.9942363364978748
Ni 7.395131007769773 5.12273251447602 6.208047286180277 0.3669694404452777 0.19944432887568878 -0.3339161095347346
Ni 3.3240382521953924 7.828998779168823 7.211911190225429 -0.6858088581525479 -0.7378451579234969 2.465750409479992
Ni 8.211518060841232 2.9600888607772564 7.135246463033962 -0.6703457295199423 -0.06607323747998943 0.2798797486146212
Ni 3.906725514645717 2.089647339980162 11.83910381204832 -3.1596183904915907 0.46609112373980377 -1.585311098900631
Ni 5.459408251354455 9.147693459558937 3.1898133744411044 -1.300875612594527 -1.2392521833557752 -0.6535199162118551
Ni 4.388724358631707 3.6861185660265936 9.91258603027632 0.6420954764249973 -0.9223241237386051 -1.2459843598732865
Ni 8.02695362330151 5.532246483884112 10.638223322221338 -1.2958156815731166 1.0643387497419154 -4.409202037680362
Ni 4.598535291935251 6.41179162138573 12.757429984755472 0.3679713993472308 -0.2597032736667463 1.0466552164192233
Ni 6.0813740398108145 1.2617296590092038 10.299419068628227 0.1706477163589706 -0.6558025415984448 0.11148457573525317
Ni 5.103809266269987 0.09735755482433384 7.80475749378882 0.4013198929006895 -0.21109219752726222 0.6630607658227549
Ni 7.322711225446146 3.826801525293948 3.5324831780485844 0.3642420142117856 1.3063240373036082 -0.07911798647908955
Ni 5.172621077928288 5.975496838791706 5.900831373695716 -0.6409659908062445 1.0757256514226183 -0.15050877951725045
Ni 1.544490411564013 8.65426627550159 9.247117228511714 0.7076619494718974 -0.3582557147213637 0.17112208489222788
Ni 1.9128288806987328 2.0720538335399588 7.879284405372146 -1.074601308010188 -0.4042247252523103 0.44990397245698
Ni 8.600602361301583 8.371589212987987 10.430836610444729 1.7303567984207815 0.4494162341872841 -0.14280318334287664
P 6.8471937102068905 6.7771451457174345 12.118038069941322 -0.29041175849419665 0.5601287076432031 -0.15541058769424204
P 9.15543943781723 3.0482981642084233 -0.2508227730518908 -0.8344340474938403 2.1121941571168263 1.276929643301891
P 0.7981519229820099 0.5044789189432795 11.58711681753432 -0.5310955536356466 -1.2848954351161872 -0.46576330808673977
P 4.456764362132218 9.366961367518764 11.335034974306952 0.1374342057214794 -0.407515223078124 -0.444325449927938
P 7.049240067465207 3.2941144130174993 10.032257209864877 0.30536220915644186 -0.14342641874917234 -0.7381817153273093
P 2.2015688217530403 3.21981625421347 9.670547921883024 0.6002561717917082 0.5445321387565267 1.5546352670833292
P 5.456032753025811 7.062044643769731 7.930934179247127 0.6348732476449452 -0.43578090279203663 -0.020805881001757717
P 4.908709182431773 3.8827064728195833 12.819939936310957 -1.6842520336429188 0.9995970865891559 0.5603937883791316
Ni 1.4946669403660169 3.752094215177356 2.226615391307315 -1.2488315995140944 0.4462530059679541 -1.7912011834016637
Ni 3.071164143244607 4.47858886510006 11.62195884146709 -0.7406288913162212 1.1079955671999175 0.5902049582032933
Ni 2.42194329803548 0.5853197791909278 6.113771384651019 0.845685966258576 -0.13732699071965382 -1.312415752023643
Ni 1.0416341495307841 9.565585731981102 3.370184940916403 1.643123896144041 -1.9262360356530308 0.25135361615047036
Ni 8.676983472242295 5.42138507596651 12.580869104823089 1.2698681084694194 -0.4364036239777 3.422002810534926
Ni 0.5544995266827832 2.795572837553115 5.327134281449614 -0.35145180442565277 -0.5455749781987442 -0.2930836488994049
Ni 6.450530811570659 7.935601293878384 10.181040435231631 -0.8722295210750592 -0.0024996264934021464 -0.029857706791380834
Ni 2.2281543581761594 2.3688838119108504 3.75330307132811 1.9357601730933822 -1.6571425790206367 0.19310630247280292
Ni -0.01967459879819343 0.910768961986245 0.15074808155640085 -0.4540740446742696 -0.1276817543204059 0.39607818488577595
Ni -0.01908039950563054 7.872973246375864 12.885798419404031 -0.01986100058998515 0.14538637068902058 -0.5605912491019184
Ni 5.710896825178607 1.841776035714804 12.844981856418498 2.6900490783951994 -0.6140907636819553 1.3054989702991517
Ni 1.1258170320905936 6.62067266534254 7.922863669606824 1.4571742593206776 0.9062459872298199 -0.24380331460703816
Ni 6.923379544384789 0.5256357613601665 6.29725994021657 1.2629621253782055 0.24738588975197395 -0.02716884710530805
Ni 4.78324851177045 8.472193941411115 5.591383726778994 1.505974311542516 -1.546247043019634 -1.323918353346604
Ni 8.186578428561832 2.037657226604276 11.676642844280464 0.4121583782770901 -0.5376708928603192 -0.5661183495677348
Ni 6.4494428410349816 4.927985788589564 8.642961610713348 0.13446740978367164 0.6610352507522937 -0.6152238488451339
Ni 3.20102319051598 5.828109377334401 9.085568482193 -0.6133325453596921 -0.7512498613651771 -0.3807996614601506
Ni 0.04993970736633793 3.6620902253069927 9.621375373227743 -0.25421551107929763 -0.33796045480743725 0.80375744434559
Ni 8.89091381535187 1.9731508026213533 2.800966195764171 -0.1315810893748121 1.6026336493394786 -1.028265658168442
Ni 0.9835160653599225 4.036333491793472 7.22920899185337 0.373348347388428 1.013733011769906 1.9901945407828625
Ni 3.4532370780305848 1.3535841286795671 9.467556797048426 0.9461142841796675 -0.9445232855434638 1.2090826017509306
Ni 1.515040815952954 2.5145602769701654 12.057392546526039 -0.40055036172451663 0.18766327708036068 -1.2185997972127462
Ni 4.216546047190479 7.861498411837169 9.537293848606726 -0.6836123647218614 1.0006255278536702 -0.10406977132842075
Ni 0.14090799248926394 1.3098049382353405 9.46759771217968 -0.09588415019383487 -0.08409435664775838 0.44504870124720775
P 8.912654628278506 5.349681308439868 8.430089481680355 -1.8897176290120232 -1.0290701563476081 -0.06875644073910739
P 3.984417769565325 1.9220440841248645 7.443034257466764 0.5847308224625994 -0.14081726326109942 -0.2441815238820633
P 1.0457163637629454 8.208495920464348 6.3762651988937655 1.0906056538582445 -0.10308426748669988 1.7686616075382506
P 8.752862442935774 0.948766100472481 4.681509318344307 -1.1980237728336076 -0.6361855386984656 1.4369430198754671
P 6.616153403117414 3.0551328509069164 5.566056330642006 -0.08192691668279438 1.3265424212330124 2.0786494883921622
P 2.7904770439330138 5.364401456798664 6.786275729213013 0.6751845456694823 -0.13899203712690256 -0.6086747348727066
P 7.695094713239158 0.34425619483300807 8.556770167164592 -0.7494865988171673 -0.3439935483753947 -0.2801566564250917
P 4.673893524594557 6.6187198977144 1.3679416201931365 -1.3134261955660282 0.848323918102055 -0.18676261964296223
Ni 2.8413605889862867 3.402716189822538 0.41130121673251396 1.0947050207385984 -1.3735344737118345 -1.9750934234753665
Ni 5.281334441454935 6.587205947753591 3.451122509656112 -1.6447223509794127 0.18760079927354142 1.3920500160175187
Ni 6.501172585393782 1.6854988321027242 4.0336256540157835 2.6077550081809733 -0.8179051966008817 -1.940400757189187
Ni 2.587937845320928 4.987396418952385 4.2350787418708835 0.914646038368057 -0.6511316184853366 -0.4441264465432545
Ni 4.922731913780518 1.9837050467067818 2.0278301559879934 -0.6915581019314992 0.011776166699321656 0.162060746020908
Ni 1.1013981378453643 6.696458647101344 10.872462448663576 -0.6682423100236944 -0.8391121696958002 -1.1825215634329505
Ni 1.0293503112604308 6.605162111039021 3.2943785015919715 -1.1651082530525096 -0.5155041269552928 -0.9365716347965548
Ni 5.497933566989636 4.708634190588531 2.0231751299182443 -0.015770375460379293 -1.5283609067678323 1.945960253554836
Ni 0.6278826743696265 5.522547737997678 5.625816599399199 -0.265349159098614 0.6871494313408424 -1.6078684153758565
Ni 8.727151002498584 4.771448215960398 1.3778086760513288 -0.021070704627370165 -0.6767164089329765 -0.10613076762250753
Ni 4.964204978644845 3.509885937033607 4.0196345389048265 -1.2368186342136185 0.7941016664233808 1.086350478126316
Ni 8.952574777933787 7.695457370084385 4.952672490966652 -0.5287417086914895 0.5245189288593936 -0.5794464341352085
Ni 2.712068774216421 7.25538723674262 5.163122258251403 -0.8775082529754953 -0.3867764478688758 -1.000791106897257
Ni 7.926944024060292 7.159273873864215 7.933125928437379 -1.007109850026433 0.9778154719376901 0.027491777662365557
Ni 7.027117999906411 2.7974605129269845 1.256618057270208 1.3885625716895504 0.5101729445503664 -0.6613054736945451
Ni 1.5214663513388846 8.26546094184526 1.2272140262371392 -0.9374195846191469 -0.834777289765872 0.5069492954067463
Ni 2.930397493936047 3.0729402318968684 5.90005584598054 -0.5475668118177924 0.782617062822549 -0.31893557696550234
Ni 2.536319687683736 0.35972304433723107 13.323124449283583 -0.5940790964467189 1.4031654092043897 -1.7839403880741922
Ni 6.815968025943571 3.9904806481060286 12.011827038646734 0.19294432297364192 -0.35398974035615816 0.13096839549147768
Ni 7.3839258411416315 6.331849034247027 2.698456124069585 1.8419650442180924 0.2068061685573987 -0.047565665594105175
Ni 2.6378543054535974 5.706312470699209 1.159562716483563 -0.3482744351389357 0.839320171941548 -0.37421660892599423
Ni 0.13361394045348413 0.8756024066714667 6.948397287369315 -0.8948963665449555 -0.8934524350095774 -0.2575846846618467
Ni 3.111679422081798 7.527891309802956 2.834691422591512 1.1234972623799426 1.2234604677391574 -0.15456546608512736
Ni 4.7767764819171825 1.379007303419269 5.339383713814138 -1.3580967990005255 1.5650153247660725 1.5673468011127265
P 8.609417712308618 7.6508040836542275 1.3699966756494182 1.1943699781311041 -0.8044662974871565 0.33119793927262314
P 3.580659815213515 3.9619609418417037 2.3367328877475297 0.2052503940345046 -0.4546800536893847 1.2479473971369281
P 6.499275611126445 0.7385413664096404 0.9477069565065511 -0.546016436611537 -1.0278589096483266 0.7137197256302031
P 1.6999307147640326 1.3369670060534342 1.5346493926075295 -0.05915594153486586 0.07010858389162765 -0.04449422575763305
P 1.3894871563569584 6.099506882072124 12.896387069395288 1.307125193048665 -0.11780563285727452 0.6571698542596166
P 6.884947217684282 7.263347089550661 4.701407090585716 -1.3289302047388984 -0.20306109969266964 0.8470144552620121
P 0.13647149041599704 4.128931872941222 3.6925348025190567 -0.7085062997500636 2.20504003470497 0.9787192146988822
P 3.413196042760228 0.42137470802568106 3.9776342267809017 -0.2687576705595307 -1.1851183776258492 -0.43839777158959337
