# total energy = -340856.33915476326 ev
CRYSTAL
PRIMVEC
9.42597839755166 0.00000000000000 0.00000000000000
0.00000000000000 9.42597839755166 0.00000000000000
0.00000000000000 0.00000000000000 13.79587217731665
PRIMCOORD
 96 1
Ni 3.6720501853932985 6.926708614658894 2.610772662377845 -0.1333212119943704 -1.5810749493320964 -0.6977164082234113
Ni 3.1001006589978526 2.6006840375368636 10.81150784889211 -0.2604820608142998 0.214388866000663 0.8113861645354413
Ni 0.09376680681176001 8.52912496798672 4.269863654329311 -0.45237865924971765 -2.5728484261117757 0.43250506025424224
Ni 2.2222498507521253 0.24650065023027418 0.540367785267064 0.16747368950636318 -0.7328240505598218 -1.6337853923519345
Ni 8.027842002773031 3.5085942913753114 1.5172837428669372 0.5622210713958576 -2.69459761699783 -3.222867528259224
Ni 9.168470241007423 1.1356607475390765 9.318118961646855 0.3773726380564727 0.4194567117107163 -0.692697357742265
Ni 5.527554062761429 6.323285745888381 13.203436624700263 1.06250015387128 1.5239499221843302 -0.022182706744626312
Ni 7.281087704186618 -0.030664593415565173 3.27984464394849 0.3291904219242911 -0.10549416247977317 -0.21003470279702538
Ni 7.52639879592401 7.6633111343480484 13.873267397544101 0.35726635422490083 -1.988230989298589 0.4381596874368583
Ni 2.088551771013291 9.732228592043798 10.909045047123465 1.5560889688107202 -3.987800286428133 -5.029675307849893
Ni 4.016334051895056 4.4226314312706005 1.0408947870011236 1.5566209300547902 0.5642725546082475 0.571017843751881
Ni 3.4931262605764233 0.14558989427623678 5.827500953962316 -1.867129716409178 -0.5486181359004422 -0.011792621759553883
Ni 0.6463516028761663 9.071759701094814 6.75578357523869 0.6043676228569205 0.8860304315138935 -0.17516668727524673
Ni 5.71256716972095 9.382590769726216 5.392861542285677 2.9989761220847644 -0.9927700363649934 4.151754649927327
Ni 4.274596438158756 2.956005724919485 4.599639997246321 -0.9534347291004805 -0.2022943967299742 0.8181769622050297
Ni 1.0377342563936482 5.787531977121046 2.908722188724201 -0.5175869776262505 -0.6878562275998799 0.19128210477987057
Ni 9.162842931813678 8.571758668963788 1.502384098574553 0.15741707660130955 0.6459194781567779 0.5024316100420508
Ni 1.3332009799902014 1.5392622970496106 2.1454648868942208 -1.9263111118653407 0.16874689979183194 1.791054116300838
Ni 6.666843812041867 0.2032495476582464 13.388356414472147 -1.177659864465275 1.793994944096717 -0.6822872181525347
Ni 4.031877490522335 7.117509272447493 11.156556162254189 -1.316046921018327 -1.937224930564367 0.662083232400834
Ni 7.989657363671083 6.706687423368435 2.7086265734884454 2.4460367331011486 1.368464515388095 0.6837964557082095
Ni 3.8650093922696156 1.221314614613723 9.06700618011256 -0.8435576070616633 -0.610774811934845 -0.5469201793727291
Ni 2.4047556474176157 2.335182499747541 6.4054237229642546 0.1010258422957744 -1.9408311598583865 -2.463017583929861
Ni 1.9503386475494917 4.782128827150423 10.20872500406507 1.2823001635851852 1.739938014351313 0.5458377449418277
P 0.21193558689113812 6.542477451066529 0.4614468946699588 -1.32022342099352 0.21859416233126222 -0.5281850648570711
P 5.4666339633993255 8.28880964488029 7.749872723156963 -0.6319848703535568 -0.2794238920241252 -0.6513589040047943
P 1.0656445788771995 4.022894532965151 6.505015784519289 0.356424832160212 1.758048865019411 -0.11852245641864104
P 6.115810532046623 3.6660741149932403 0.38839084792603346 -0.610045132857672 -0.365594414474622 -0.843854826587108
P 8.096604516287893 6.46586309742036 7.67632652552849 -0.6015157552304221 -0.7866583227714582 -0.14629834098032868
P 8.119481366226283 0.2509742196496235 5.720899734758255 -1.2403965813728637 -0.822084781899868 0.7058194969465199
P 1.255191581518783 7.1666374726448145 10.595395610905914 3.59428472006321 -0.8657315720555413 -0.590410646456196
P 1.569811893526878 1.3617051391223387 12.29690916191495 -1.8021111454459482 4.201665418714842 5.65396820887583
Ni 5.820664291720735 3.4846240279252365 2.657416174629653 -2.2791921925383525 0.7181751902983954 2.0176744913706868
Ni 9.008926128087266 6.6385847283520025 11.69611331336604 -0.2576664457423756 -0.4106553113690024 4.437872666142176
Ni 6.206978596572427 0.8747496613031105 8.428395190820822 -1.3357053186792027 -1.0502167085182363 1.9293681535241094
Ni 4.000536111846953 4.073738261258388 6.82153448860715 1.6337815356971925 0.780685650127791 -0.017695103286917913
Ni 2.769748388791498 5.40785356116784 5.28659211752654 -1.003798012044381 -0.5827179057976286 0.42164703449381574
Ni 3.1896568811917803 8.188366417462282 9.180670285043377 -0.2619807568470133 -0.5280441684038325 -0.9441844141468062
Ni 0.4288367792818827 3.064545867911073 13.477256588559065 0.00612462484049913 -0.7910561947288376 -0.6024436663613303
Ni 9.26008132652503 8.626627290097444 10.55708466369141 -1.8343535504194217 1.5154200303364482 0.14346601373785614
Ni 8.255875275830128 4.415797596822585 6.437223204197118 1.3803527821852486 1.3450253105285481 0.7466928381221141
Ni 7.472246549160078 2.5740085182432297 12.582621882909013 -0.15954312180537686 1.0662223399178732 0.1669540695574673
Ni 3.1166526773298746 -0.015266314857939675 2.940507530989241 -1.0440303772018666 0.7734924748134614 -0.254452052570136
Ni 5.75892413222487 7.539877945249061 9.760993850781743 0.9545279621646594 0.6322080421079563 0.2383590036630153
Ni 5.905762026060993 4.896833560113048 9.83794659705782 2.14855881178879 3.924168054289468 0.8334480294314873
Ni 0.25514050216827583 4.294409845068728 8.777486306382563 -1.5326492497305413 0.810253593592895 -0.1406635112920545
Ni 7.681050825977242 8.734997765475148 7.814340760844906 1.45790265284627 -0.9736166033649941 -0.5771105869131802
Ni 0.4128503196628004 7.358550395902194 8.505114172828884 0.9608130238424228 -0.10828818028514253 0.1870644671540972
Ni 1.5186382559844265 5.373665536970664 12.606737306428741 -0.8396472162636636 -0.5001901223060418 -1.235104736846305
Ni 6.170754561008669 1.5283564398684324 1.8825847137393716 -0.20541031665113657 -1.9017251949958607 -1.7010454510511739
Ni 2.909017221852784 3.4576091734038394 13.144307461262466 -1.2796419000267316 -0.7003741575612324 -0.8916331224126516
Ni 7.874594443523597 4.074501765520856 3.5004954906060215 -1.9108806362428832 2.301705028928888 3.145984344647924
Ni 0.5987852873244122 6.644956689851117 6.044619886457542 0.5360001900261157 -0.4309176611624643 1.908381266859797
Ni 5.833389362761869 5.853683494577838 7.7281439574058375 0.4446671495380729 1.030482977534735 -0.8666522840975978
Ni 0.3290166090459631 3.438776068262963 3.9649341908674285 3.7910347899361874 -0.16440482077305235 0.8431251475099351
Ni 6.97840068102154 7.481795065430202 4.702557544033438 -0.1753106690522787 0.436471501101158 0.8614717683379228
P 1.6608668463100944 1.1280162789358479 8.201756962588973 0.5965645818727339 0.016451717798120054 0.4672026116364276
P 3.6466471732037777 5.68632524544057 13.081839616222616 -1.228590075656239 -0.799912616678203 -1.7661879491867776
P 5.318269061038267 1.2931877010497506 4.025814701119628 0.20513597994382735 0.5877001895035685 -3.1085855922844914
P 4.611245262035834 5.021558108273247 4.270071025857388 -0.5300408871188872 1.0670666901960397 -1.06227698211688
P 0.7308762377206444 3.569882003900826 1.6724325219897018 1.7638626434877105 1.5050011489959694 2.097158602939943
P 6.090897670741651 7.517585505980707 1.8917590186611006 -0.008408021558037134 -0.3273423129719588 0.3370094037480777
P 7.155128352836502 8.104616598054532 11.734493070223952 0.31554763432987587 0.06281487844369182 -0.732170733246539
P 1.3792374592234549 7.890090752258131 2.593031085552941 2.2500189134085056 0.23946586357394886 -0.6244487098775117
Ni 2.331487516156338 6.3033215233216255 0.7655968297058388 -0.15882989778843615 0.474891238529937 1.987515451288803
Ni 5.4289394751819255 2.94768258586073 10.041891781932982 0.004596104011114665 -4.915948730157997 -1.5171676091551742
Ni 9.072815410692302 9.572269736067486 13.10544415170499 0.49328388210451174 1.2742945196718893 -0.4990459813992696
Ni 7.596122759250868 5.273146901724265 13.438338608326008 1.6339190897163214 -1.323504919958269 -1.3594427715054587
Ni 6.729470013521337 5.311548338332839 1.7848410865777937 -2.797226027894034 1.5055652490295552 -1.3679667498160697
Ni 4.949835837494004 1.8789462860194623 6.697054073291371 -0.35082265548208613 0.2515454204463023 0.5954140132080583
Ni 2.459567712679976 5.799682063470691 7.905489973413612 -0.4185619678105888 0.24013357906493482 -0.060373873102367
Ni 7.928567596695097 6.311616384444735 9.877637507531896 -1.256976854329048 0.0036962179046646014 -2.7056523321500947
Ni 0.5070431807049747 3.1200460296075097 11.10469819866908 -0.6097931647478659 -0.228540989131329 -0.28962165849273347
Ni 4.976718728315715 4.152530015949372 11.868754823480016 -0.27399912146412814 0.6489245835316888 1.9413788048317404
Ni 9.273051473008437 2.4366720107844864 7.295381258058302 -0.3086452507830878 -1.7899711676493044 -0.31177839709543076
Ni 3.375320380671181 2.0848850653577347 1.3862089129582855 1.3005796786206631 0.4280364829599274 0.5119380068705893
Ni 2.79514197500247 4.109915166929401 3.0919858340650297 -0.2784643563243333 -0.04801972241238827 -0.6164232684698739
Ni 5.0124149090807295 8.340991862127483 3.6052614717865947 0.8192239154123052 0.23075445184288004 -0.4884558645882491
Ni 4.1231586667907285 8.980063781770268 12.314168128638148 -0.28490085597829645 1.3830028182135858 -0.09641971098233072
Ni 2.3615375357705095 3.402863089991322 8.302286909009633 0.05605210579856153 -0.8008055608061176 2.5372214209367856
Ni 2.3703319737567146 7.55179238213498 4.4653103769447045 0.36090292253622364 0.6495149088175202 0.7477678163538477
Ni 9.147205233400909 1.242061193400044 4.211990031234238 -0.21774055608171533 2.327088759109315 -0.5864313500934739
Ni 1.5451252557070807 7.866959400898917 12.864154182416597 0.12366620540310959 0.2237718498774598 -1.0286302405967123
Ni 4.833509836220952 2.0735738910989503 13.366448555128592 1.1061346027317789 -0.6966393731091486 -0.6459022517655973
Ni 4.669054788476773 8.533715419540076 0.6976977358260643 -0.4073691844185629 0.45678964383321974 1.0771361586169
Ni 7.414399318804943 0.873898495440137 10.823399663429512 -0.920942155789414 -0.5798878925480013 0.6518571837974515
Ni 6.902540405659291 2.7134281669612994 5.6564590324081045 0.029482068619516966 -1.3134367370889894 -0.3718938743300886
Ni 6.463308657233586 5.084269143559659 5.269443434752367 -0.9179506772612578 0.5274307031895497 -0.3783568563466129
P 8.43632620917194 1.2112947994161498 1.5410956498773885 -0.6175404127934526 -0.09785952875265082 -0.10334266335440913
P 5.124593479792226 0.9741183271665338 11.043416141730695 -0.19054779771700733 0.6752429097112436 0.06678003373902694
P 8.188696326711497 4.660401740168803 11.2498997426291 -0.11732972166212051 -1.7938581614085363 0.4044149868862454
P 8.533555177904743 6.0745247460020595 4.853291194803858 -1.6400429432258723 -1.6909757255199975 -2.693895705834799
P 1.8602545705568208 1.19695788604314 4.46121290406946 0.674316284131916 -0.2078749761415452 -0.353717717641694
P 7.062489835657055 2.6324967151396956 8.015705112793356 0.99579802455804 2.1687144608010587 -0.8368894510128684
P 2.5138613491221427 7.517217892817295 6.686169895860854 0.3249776693945242 1.425861565250325 -0.09716995888479393
P 4.0451398423407605 4.8279673608341485 8.974518478589898 -0.5686750545513173 -0.7520222207548274 -0.06356975433184535
