# total energy = -340874.2961302448 ev
CRYSTAL
PRIMVEC
9.17558251089559 0.00000000000000 0.00000000000000
0.00000000000000 9.17558251089559 0.00000000000000
0.00000000000000 0.00000000000000 13.42939248679019
PRIMCOORD
 96 1
Ni 1.6245735799780974 5.391214416084985 11.53889688371516 -1.3741384258444205 1.492229708262914 0.8281376729621672
Ni 3.5821382236485437 0.7982389732159374 6.386898160843834 -1.0202710699987396 -0.4846948548839201 -0.7378325595180067
Ni 4.606876450322518 4.39044281084234 4.474915058247055 -0.33434548376266937 1.9575911529255448 2.0742976391813697
Ni 4.733875687394128 8.24170086855709 3.7292485023944226 0.4171774287582363 0.6649281580487968 -0.7829677612937483
Ni 0.4909358702277052 4.531443986774675 0.6681805969463159 1.519660550780357 -1.1665724963028619 -1.0133018377697582
Ni 0.7120160246745083 1.9547293886848869 13.42458460204781 -2.3825993905821097 -0.4160942229963866 -0.45462168964762356
Ni 6.235826783142401 0.9031966260600045 4.5821225639146155 -0.14572035698967162 -0.09481637105095284 2.0339032945247233
Ni 1.8788473215956438 2.505117528017555 4.305892570986567 -0.3896326863707483 0.8034694807915259 0.871373343722351
Ni 8.535227752013544 1.732616063651113 4.136816865347709 -0.17005970506598453 0.13731927741016997 0.35821072041604113
Ni 1.087334050335742 6.062637663878863 2.2998771816017265 -0.9812126705446971 1.9413394669533726 -2.5567263237389324
Ni 7.879274536276796 0.6120251146255327 12.351038699501066 1.2717059330091067 -0.14433401816510627 -0.15306214206672347
Ni 2.200956144469632 3.0261621545870545 11.974827889664766 0.6088688531613837 -0.7395436286718425 -1.249744341136351
Ni 5.996022935091933 0.5908074977044727 10.952677177249457 -0.5926246233883794 -0.1922976905285785 -1.1722127253077745
Ni 3.759493057356885 4.63639429915276 11.524218704425843 0.09261524963457597 -0.3558615034575742 0.8036186047748805
Ni 7.018843465028103 0.9779886339509161 8.235387150254294 -0.05349565792529496 -1.0625263791235249 0.4680359061710004
Ni 6.9600096301821255 8.672356832140357 2.8121820658613714 1.4572922729557805 -0.18079688897783056 -0.04826166321986527
Ni 8.458474004588934 5.728251911649928 3.9757853928669085 0.6735650077881884 0.7382277380738964 1.3087850972495911
Ni 4.396471168530083 7.375021225641191 10.276238556073357 0.9161958993536803 0.3814372950441495 -0.6100849849566718
Ni 0.5539528531251917 0.07792546930699103 2.7997867714924642 -0.7716317674556388 1.5752102630212033 -1.2754839119943
Ni 7.48010917175644 3.0331447728524616 6.844490881906412 -0.6687938116517901 -2.3217251808045565 -1.2244518851181494
Ni 1.9245967758286504 0.8981151884839436 8.188465056580657 -0.43226491921897814 0.39612806428710484 0.053464290466727286
Ni 6.9853250622376555 5.18814960027458 6.499651388560818 -0.5676718100977837 1.1599439352427507 0.6375831903769407
Ni 5.577148419409824 7.567901144901528 1.281643525346079 1.077588929883602 -0.40671509577433185 0.262645901234838
Ni 3.918781169166953 6.27955760923035 2.820159317267343 -1.4298313485313505 -0.351292396029653 -0.8868069046686018
P 4.621942756750636 8.466410883432005 12.164947793715859 0.14107540201849253 0.4456619093511744 0.8953481093703934
P 8.81585376650658 6.4618764330590395 6.867791356049873 0.01885981301898042 -2.091445611715566 0.6006138122414431
P 4.718433182084431 8.836819972467756 8.325484947275989 0.8318292628811417 -0.22517464376225738 0.343040440433506
P 6.144245294434089 5.037036932452 8.807693921009305 0.8171148394891024 0.30148190026542915 -0.545300641491435
P 2.0105995103906187 8.184316775742563 7.05859575855379 0.8476788283188884 0.3915558715353902 -0.5615746960611103
P 5.408574618132488 6.33189513168223 5.304609763312491 0.0167489373235647 0.6095980180179243 0.9362649021894134
P 4.876932193801431 0.6307634891611619 2.1759646104755603 0.16670544388177094 -0.21454030397686277 0.7578863928450884
P 5.477648403023397 4.393911181018851 13.613106119631315 -0.15142409224266826 0.05934208940374296 -1.4300010413399953
Ni 4.154621165587124 2.3147241916086316 3.9137144125228565 1.6582342694229184 -1.8387030856373687 -0.6415311192810951
Ni 3.408242584534235 0.8232552812826982 10.45374753956732 0.28181784617759853 -1.1697634924363336 -0.3051999725469647
Ni 6.754238017540849 7.5520457383803405 11.634097222152613 -0.6428056151181446 -0.1528166017148207 0.13174975374219247
Ni 4.8042524049968485 2.6036174059139303 12.064765113993102 0.85471182390627 0.2329594299139988 -0.7205871421739977
Ni 6.917600087970943 3.8817668694525627 4.453038634504108 0.13351944404810553 -1.3570375044980756 0.2886605801310448
Ni 7.689486788311389 5.227035718814388 13.42551133587804 -2.3943133365849283 0.5738450287880311 -0.7647363258873862
Ni 6.7205452786833275 1.983081938540481 2.6878932958536255 -0.6790874802683143 0.5590331605861791 -2.36352900421422
Ni 7.287082443176463 2.8016723536915986 0.27305065359958103 0.24400566042583138 0.03276819556995647 -0.17074156162435755
Ni 0.8781702248525182 8.869154725118602 0.475694310174266 1.6688740085249516 -1.2194102089291838 -1.0569923366791731
Ni 1.8413191892625114 5.4681700263241 4.15428809194319 -0.037608297271077167 -1.3521061286347293 2.231796476863208
Ni 3.092675951966731 0.8710784171556287 12.94761305079267 0.6002590000051856 0.19764172844931122 0.4027568824575322
Ni 9.111078132721381 7.604328207337355 11.66181573925901 0.16424669792863325 -0.049426887172560045 0.7231140223609094
Ni 2.811334242040447 5.243386606789363 0.5261003725146236 0.9928366279368709 0.1142996765865451 0.05696690430334705
Ni 9.223662529720777 1.438878141797674 10.003755871029135 -0.4055627273374435 0.029537090227168484 0.03896686818150063
Ni 0.46745463710943647 7.788124299944928 4.3554746660204415 -0.5583060526121675 -0.9608521046104743 2.7366528942966677
Ni 4.345941235826279 2.61256359882953 0.9683359211845456 -0.44522199360027837 -0.0785888534484969 0.9746854109491409
Ni 2.3913861832084655 7.65496824703089 11.955972985231671 0.8397834847312118 0.6223913131278507 -0.2832568926169702
Ni 7.432790692919773 7.374158720888303 5.555806932125318 -0.2791603539500934 1.5318727765758327 -0.7826016362035813
Ni 3.017014098856949 3.9830194220922 2.7236826553072646 -0.7965629834796798 -0.32545486614125885 -1.5143427381118695
Ni 0.7351063779792338 1.1489022087600251 5.938436979462902 1.3344840446775919 -0.39092543704024285 0.7003312201384391
Ni 1.6038551147438156 4.179257604539315 9.681558045005115 0.43672706875538986 -1.8341342353197638 -1.5682549147492926
Ni 4.584176059273088 4.379789959585919 7.177500296763716 0.7342219593486129 -0.7008076455542253 -1.7196766929991159
Ni 1.8942806513228634 5.92051706688427 7.71428655263168 -1.1245115625770696 -0.15921479193168064 0.08018782250450061
Ni 0.28100037825812035 4.39991201195916 6.3744762572857425 0.6131386841813311 0.7339167694033683 0.012027363478179285
P 7.066740005560853 2.443347506778766 11.540830178943178 0.2922228435610064 0.7838452788026952 -1.1386377175658067
P 7.910581623690157 6.262647010724247 1.9655657515908598 -0.06851475704194653 0.5432504438306257 -0.07608279919719155
P 8.268576149633798 5.682144609700297 11.343391830308 -0.6076835746040308 -0.960239924947772 -0.4183441953728279
P 2.7816971106379973 4.900412509361451 5.943459693311106 0.35497010199155643 0.30857017457077823 0.45455252697258486
P 5.254534939499572 2.436465819920612 5.934474962949101 -0.05650461995494785 0.5756098339979377 -0.13236321895647526
P 0.444386305202657 2.586330608526248 7.684473250045663 -0.3191278954819665 -0.27424440470571476 0.7073418471283173
P 2.236483999822661 7.820697617740191 3.2770400131296644 1.449201525527846 -0.46031359782607817 -1.0862314360499485
P 0.16155906847325874 3.8184369991925924 4.2538541725234555 -0.5311132942474596 -0.8589171202368692 -0.7480588652317052
Ni 7.981123501777473 7.881027072530006 0.5653590197030197 -0.9145097699005089 -1.4918003340349792 -0.49963913489857825
Ni 4.617281560852048 6.283714148092676 12.819133792267433 0.9314949916045958 0.9421822961151128 0.17303498564422456
Ni 1.2775438750951147 8.481468014277645 9.93862299881233 -0.8269253978216211 0.9538504764816605 -1.0356961463045582
Ni 4.066563100550187 4.871509424557205 9.350725078311482 -0.5230855388469766 0.6472862765973175 -0.14921345774459463
Ni 3.487684777624763 7.987280317619901 0.6678612866760976 -1.3610980477206944 0.008756920257023628 1.067833650269051
Ni 8.007108751353861 3.322625224436323 9.005186405581101 1.9386560065839387 1.2361650597900193 0.8435218687277215
Ni 9.16214942479136 5.8773551269099285 9.317285585530342 -0.39885934717533883 0.9832165883486034 -0.16164936951510225
Ni 4.556392395531102 1.7603722006456668 8.057124851438925 0.29071900532197026 1.6096512183078922 1.5219909986857465
Ni 8.981940984932505 8.470732582778925 7.326096102312708 1.3015333007831842 -0.47135982833791074 2.4460842985096325
Ni 3.9480604528527783 6.91947190679636 7.64174072733127 0.21297501637227192 0.04381365475084067 0.17874823397891798
Ni 5.405262232858096 4.264517116920603 2.304685186819957 0.555589682122269 -0.8150625849457641 -0.5109830991564877
Ni 6.240937582582391 6.087081415599025 3.317839240616039 -0.2981070702559253 1.275313962075339 0.11900350982011762
Ni 8.061318092631158 4.0720317477068 2.2837217335335245 -0.7247173622922873 -0.2806220260972845 0.3087246978707715
Ni 0.8390767381487179 2.525707535097151 2.281788438305507 -0.8162329511047814 0.3350502231391778 0.0739061032608469
Ni 2.6481832100073346 0.8902966746548331 2.1048822905803175 1.0376188172485679 0.30700694384871646 -1.1127546791514578
Ni 5.989031141244049 5.3065788433121694 11.15668249026381 1.2408442104332436 -0.7072611144890529 -1.0611197285839853
Ni 3.1683928585713783 7.102221983001495 5.199417215556998 0.041072344560277654 0.5338047250366935 1.3870451066037595
Ni 9.106728906627028 3.5778715777964885 11.540843942316894 -1.640040115012395 0.2872099637274473 0.01684098281673874
Ni 5.211005976226129 8.432598862002276 6.021081450838091 0.5377413410869384 -0.550247186863433 0.88312842737575
Ni 5.735518972972138 0.900413671894567 13.679985105193596 0.43329824557949886 -1.8269140634222407 -0.8361767412165598
Ni 2.828217313799117 9.627938693681122 4.359382546597625 -1.2199131167075312 -1.75953393420537 -0.08383930321415883
Ni 2.370401626082335 3.001048585346032 6.775222574666978 0.4088072024166701 -0.3744773187865486 0.6298763086509861
Ni 6.3345652261831935 7.255857936005399 7.882449287814024 1.0551753380750923 -0.2469565155240392 1.2265254798177263
Ni 5.949539434260724 2.887390645196763 9.636623382496115 -1.7572068287340898 0.4612201688007476 1.4538318252110058
P 1.152269647529282 6.530317102758999 13.422409071442384 -0.10645009863513924 1.3717149040045924 0.29492301610098887
P 7.959973784166746 8.664135510240483 9.860357115395422 -0.232687921420167 0.33851452753869443 0.1429224825295603
P 8.144577328032343 0.7327638517727183 1.1060458156821864 -0.01662115349644879 1.4369065102105771 1.6097080396877568
P 3.445467922645608 2.813793298144427 9.840145142313899 0.185638533340848 1.0031678346595496 0.10595541838690783
P 1.3885684230733302 0.8054509810432825 11.666328290721463 -0.5609193218652985 -0.44946071427197426 -0.5516270979300951
P 2.4155454918718244 6.73078522872826 9.787180010020556 -0.11737960106344945 -2.0578695755323335 -0.12011988281274798
P 7.890505449229303 0.5099440068881739 6.164923387105471 -2.7200772493261733 1.5261567000276621 -2.048254935260705
P 2.263818060023248 3.1138898986548 0.7044223126160974 0.9475325046834326 0.42695970495598085 1.1080716718534915
