# total energy = -340890.560531663 ev
CRYSTAL
PRIMVEC
9.06473861086082 0.00000000000000 0.00000000000000
0.00000000000000 9.06473861086082 0.00000000000000
0.00000000000000 0.00000000000000 13.26716123481464
PRIMCOORD
 96 1
Ni 6.26990730298359 1.9002320405174453 11.199248577373599 0.8124305466395556 0.5513082811380957 0.8086283992846461
Ni 4.725384660984218 0.4529749477405383 5.867706674295045 -1.1668216361991905 -1.5103755259340053 1.1397970279812306
Ni 2.722938630566164 1.7332595596759044 4.809451951134735 -0.5961861154873925 -0.8317374744982837 1.057169999907618
Ni 3.17105397206462 4.289135062016792 4.926494946540702 0.26590451738145177 0.9106081208532575 -0.15427364587632142
Ni 5.323086315123668 4.584482367705124 2.966656812373873 -0.7021132517395263 -1.245094243958849 -1.2178446642142768
Ni 7.237268987998069 5.886604840856307 2.5549101077040994 0.9961152986881425 0.9404552861216771 -0.15032725963406368
Ni 5.395694869496129 4.726581206449532 11.60584741712101 -1.0411265732915103 -0.5213898963121084 -0.5858366539322685
Ni 5.646915028781822 7.839593658708051 12.523655803342416 -0.48140898504379676 0.4334355424883116 -0.6676910655059146
Ni 1.7273312207795761 6.371967192331848 0.5399882778624728 0.759869227603072 0.2689016523365627 -1.3339446272343543
Ni 2.8066152304927794 1.4528328133505026 0.46606624289967796 -0.24281138300741412 0.9458085800137906 0.20578029839604559
Ni 0.8797609598459357 9.057377806031345 4.541521853131165 -0.7883843043236294 -0.28338570488535064 0.36235508160171787
Ni -0.46928241207462795 2.3811617349282996 1.4353741272429668 0.3488943281111217 -1.5020091562471811 0.23313657892181142
Ni 6.7358529848629 0.8451472563663797 4.660382328581036 0.13907045577332178 -0.07187570309437945 -0.6413452285225341
Ni 0.6346368371164827 7.2205264162220475 2.514193115877605 -0.5857687768088106 0.5295842591974428 0.030939112781017686
Ni 7.650521345711696 3.702673683460594 3.768311454023764 0.0879857212823646 -0.589496876392675 -0.09086844214679834
Ni 7.711100992262402 3.960882756032325 12.614588726337093 0.12417399827746357 -0.4620580913210107 -0.7643668583631095
Ni 8.191867521382532 8.87037225338417 6.403262295092833 0.21788350941748283 0.5990014734490007 1.1348944484732906
Ni 6.776182005887004 0.8096297984709766 0.19996631557373618 -0.06354250063833572 -0.1172944975488109 0.22111590031185147
Ni 1.6635335921062449 6.649937394558006 9.412161694761474 0.8571762262863626 -0.13744371880317618 -0.2201180551749564
Ni 0.2941906450718621 4.634555982480839 1.50927259388599 -1.729661057905337 1.0621515122826095 -0.3053655515905515
Ni 6.293366845894443 2.0116739340823693 6.8800974471803364 -0.01408810266194993 -0.78057946356723 -0.19913373961380543
Ni 3.8589497730212976 4.480899602310103 0.9576279689489172 -0.8557754892840939 -0.4069128136074347 -0.2799638236879953
Ni 6.015895204278832 5.67240507308836 4.8585402288492405 1.10007039881557 0.12135838320553938 0.3333648650169549
Ni 5.5425980195785405 2.828551897356869 9.073424205900276 0.09430189330837953 -0.6406502593380387 -0.4227466953158977
P 0.24550665468881847 5.408376438480783 12.235400748957584 0.026227309127645152 1.6184472193329675 1.8644092321542214
P 4.062806674304979 5.981340421598703 12.681985962618578 -1.155413651472565 1.5990487602016978 0.24105994753394616
P 2.0720722858656044 8.477841887592572 1.4035994998220194 0.6832110155183847 0.05748703847287519 -0.6769367524738986
P 6.560287132043195 7.7012929453421775 5.715293976229166 -1.3108252676080714 0.06879732127937183 0.9238441599275574
P 4.713410141592704 1.0519538235168273 12.554368949899818 -0.40603349632627495 -0.3658435543709506 0.43417833419160706
P 3.7359775322451663 6.0435698505334035 8.408395113964819 1.2066547090357282 -0.3870880655720237 0.1737150424303847
P 4.485495424665514 0.9661198158572969 3.766440492023455 1.2918376707619752 0.4467098909997146 -1.049194437901309
P 0.09637720486185371 5.380828698563441 3.7500695745207504 0.13073442510380065 1.1911954370578646 -0.4685087320423609
Ni 1.5432263844119491 1.186320440428562 2.623302652259004 -0.16226437739128186 0.7654863166795333 -0.6733968576414403
Ni 1.7521323449697201 6.632152377869022 4.851814192976036 -0.052329405531335686 -1.215389774915881 -0.07497799616878699
Ni 6.031477489543034 5.574922876618765 9.268783821432553 -0.6363922553926331 0.4854643860600929 -0.28588893092317863
Ni 8.802178226599647 2.275394367585244 9.93893449054909 -0.763208319278634 1.8819724378489653 0.7851861091013058
Ni 2.3546564399239207 5.193968181730241 6.951594664628196 -0.4762755204719733 1.0259994878420846 0.8625955975297208
Ni 0.5042514532984288 0.3234371169604151 9.278522069867304 1.101517929895374 -1.7071520781695437 -0.23217370078790983
Ni 1.278726383408946 1.1355760350132016 11.71995796966312 2.6153089092688315 -0.031887335626899924 -2.8716666635021126
Ni 4.200209978571867 6.756692818383784 1.7384627195023457 -0.012495047143217192 0.25308602546054476 -0.22696284601093172
Ni 5.847164164192814 7.837427186236762 7.866351859913053 -0.4985446162828188 0.36830821386135926 -0.11876953943244062
Ni 4.943328165700459 2.870403794427737 4.860875305454278 1.931100562834184 -0.2457241857788349 0.4970567188833827
Ni 0.9124021762553984 7.482189154114116 7.17919211571231 -0.5197960694624274 0.07904573848025742 -0.018764939312328973
Ni 5.160319872887473 4.375150364443794 7.010619708547831 -0.7005441074801936 0.31908290117664406 0.5176947068487084
Ni 8.360562302515056 7.431127482855679 9.212252487039493 -1.108706220113697 -0.5488803884228934 -0.32328022708744325
Ni 4.793089191896566 0.37813646772817344 10.247607868120438 -0.6755038766821141 -1.2821803501778692 0.017776864367446805
Ni 8.250099400694479 7.305562726904701 4.45943792773679 -0.11889732325955651 -0.43581407002281713 0.06391119683166413
Ni 7.330744570106536 5.923117607025131 7.050381276949749 -2.8663012854251413 2.4830804161180073 1.0466475031097393
Ni 2.2010635129217997 5.405457592724487 2.7271573598052328 1.2427833364374854 -0.47483647403260165 0.6334861374894316
Ni 2.1885360444894975 5.1889372519329 11.455384544279289 1.468342617232671 -0.014570441615007163 -0.06730505300456151
Ni 1.1109924645440237 3.417415431582068 3.951676607740106 -0.7959798572827002 -0.4067904290969575 -0.779371816412374
Ni 3.570917711200453 2.878988101667528 2.912327302931757 0.2265193307156099 -0.19343411812586683 -0.9957088072783434
Ni 1.0556884957267467 3.614718527021643 8.379724252962989 0.6049438070753645 -0.36418982081761153 -1.5995136156532581
Ni 3.27753745373919 2.7197115837051657 7.235206760018078 1.415164747658111 1.042003833690141 -0.20052264954153207
Ni 4.351364490951492 6.697862666339181 6.183678072730971 -0.9466776128823052 0.41537277144932977 -0.1286482319987333
Ni 0.9437389768129015 7.704257114790341 11.707088760594132 -0.3969451608717615 -1.1360671286251531 -0.3721440426676817
P 0.05869327449516243 5.746917222519275 8.175118604289649 0.6876168578955641 -1.3836661628291975 -0.30355266675152887
P 8.557239931006853 1.6080664579982433 7.8308625027066086 -0.2935827000230105 -0.6766068799383057 0.08633378750123841
P 1.9081092981640955 3.18021842256032 10.339443639057123 -1.0114017925335679 0.5033052708962558 1.154366184044657
P 4.027182252496767 6.088757571325753 3.9296003439050637 -0.7972970334322269 0.5331370095457076 -0.19497163781631582
P 6.883227501340738 3.8686127841275453 10.431650157793289 1.7010675625383607 0.36795160185288894 -1.3822677398197742
P 6.286405126823525 7.700803449470003 10.04014954628093 -0.3982985895758624 -0.04499456243281928 0.48176328305942184
P 2.3872532391153527 8.334827510272431 5.881849479105521 1.3750977044338963 1.4915915604582828 0.23728685364475907
P 7.083739514164563 3.876372200175339 1.4897163273188059 -0.958962086676613 1.1484441621332673 0.6481308839857999
Ni 5.553203763475642 3.053584027481258 0.2213337168679642 -0.701316981090476 -0.6591678585262518 -0.3624741236780854
Ni 1.6145568106737342 1.1624439195525242 7.057266852218329 -1.376594600694397 -0.9895451016697926 -0.39032739844492775
Ni 7.025317275346771 0.6272046581239757 9.07277426415889 -0.5049944856732207 0.23180860413900722 -0.5840965313127102
Ni 2.7394364544060985 1.4621060407066857 9.362449763046866 0.2179120486625731 -0.057341256923630284 -0.39999603188294336
Ni 6.221265916870903 2.0194877385604046 2.4424710929180806 -0.3128531182168483 -0.16256853889526196 0.47821181826273773
Ni 3.8182944214157435 7.015599875810282 10.612932234631378 1.0881569352074356 -0.887794979613484 -0.5385548381271692
Ni 8.210830954060084 7.183170629384479 0.2990167117819617 0.15583816214996388 -0.3593420058070069 0.5175633234771667
Ni 7.63116812928408 3.6264392337386964 7.933178017677 0.5211014185374122 0.7827767283288648 1.1150190497056023
Ni 3.1522265104626723 8.33454650338285 12.606827497341625 0.22782493690091082 -0.12336692899513592 0.34586968235218496
Ni 0.08995393125032733 4.743976439388453 10.154406041110853 -1.5334403781732688 0.06325505130490396 0.7089804111730048
Ni 8.581624077231812 2.1976370418165825 5.763838369641257 0.227531316919892 1.0186499894555487 -0.6007709066445976
Ni 3.5554260733199867 2.800360561015002 11.668375075948202 0.6144455759182128 -0.35110444838856303 0.7346629035407735
Ni 1.0482916692138966 3.2337003789645054 12.727386704762706 0.26585746619360023 0.5681595483674795 0.24705473166480035
Ni 3.228605995998547 8.22038518830585 7.895181353836421 0.17107606214564083 0.6000610250617665 0.9179619901151674
Ni 5.588909767929215 7.834000715131545 3.7806893542729023 -0.3660448717484793 0.44821810011412483 -1.0207009584473066
Ni 3.05401913492319 8.322345365531996 3.5036718560498077 -0.08518501860877586 -0.3467112044168738 0.23813506057766728
Ni 3.7611956344004955 4.044894751278764 9.618970074859597 -0.6741638177144518 1.9536391102563322 -0.8049159834300653
Ni 7.49171619414476 6.404863127889609 11.389287191480578 -0.190713119650278 -1.3169162109971577 -0.1743742732809384
Ni 0.22013173255962604 9.277487783218877 0.12955958615221982 -0.30837528495115274 -0.2743246231243469 2.2879020616075243
Ni 4.579179495756573 0.15558354354896137 1.6922660933290155 0.11812547809053849 0.1690333206839992 -0.7134307336348746
Ni 6.160785982442305 5.699001015476474 0.34713234306898116 -0.1559392065042024 -0.2991655934274267 0.7469183238693587
Ni 7.806869953179388 8.797038519941822 11.208893459003098 0.22836615411636155 0.2662117642092254 0.8982028052103692
Ni 8.850638317944863 4.884507078394228 6.0001397825116936 3.1207723641586704 -1.142113591929549 -1.8576030078656653
Ni 7.890818495257212 8.977753144157726 2.3250437526050742 0.194696015557426 -0.07199551650169536 0.2592134785145213
P 8.59661715450173 1.5215435302223201 3.6597729961599015 -0.1332934440802285 0.4547196486780685 -0.9297731238174826
P 1.9894834545438194 3.419164926088171 1.605207439515213 0.07701970918916413 -1.4350638005748835 -0.9996122560978075
P 4.569172024592128 1.0615987051463278 8.08691869991461 0.6362775841916396 -0.16145807943990256 -0.4916172930353663
P 8.350210371292414 1.6960488086523147 11.960637651168 -0.8058197261912573 0.377209373005731 2.4220866500434544
P 6.292460372057084 7.760168421078649 1.3896824069970457 0.39707705846393554 -0.3413293712796702 0.40452220188807103
P 1.4394351300343353 3.4042081077717463 6.102642031092582 1.6375001221993606 -1.4894554879518864 0.3885070574067374
P 6.905209491896695 3.9626413152768016 5.817371088580334 -0.979636327196513 -1.1510728580053662 0.6023073978937821
P 2.3612374399831473 8.596408665519139 10.27788409428823 0.047150689543873636 0.19388328984814351 0.4368576807959831
