# total energy = -340866.1234075673 ev
CRYSTAL
PRIMVEC
9.31404933221122 0.00000000000000 0.00000000000000

0.00000000000000 9.31404933221122 0.00000000000000

0.00000000000000 0.00000000000000 13.63205267622486

PRIMCOORD
 96 1
Ni 5.483003739758899 0.0916427919301553 7.8960801300173635 1.2886772707561225 -0.1365086085834165 -0.815320466592841
Ni 9.425258848869966 6.169793778436215 1.2879932801509804 0.013316257492931903 0.6566738884598045 0.44776121508236433
Ni 5.665661556709695 3.5510091625078766 2.262974900540845 -1.2101514093350774 -0.8768073702537287 0.4947285849708383
Ni 4.22506689606196 7.294362753033238 11.264941885465266 0.45948904504225385 0.9089818981037442 -0.687086953534023
Ni 8.669982607141339 7.696664475921196 5.814956449775031 1.1749290957976732 -0.6726059863090287 0.17379551795933296
Ni 5.556137653312397 4.297902760044176 7.204689882488279 -1.3303767073774377 1.8596436924447781 -1.2403726701134636
Ni 0.27851521609987145 4.58208371221315 12.836553549219424 -1.2425036004135375 0.7390875149710303 -1.391994737299551
Ni 0.780811638748273 3.8811642610472106 1.4562571656186418 -0.992709358330387 -1.668836727529113 1.9381019338526815
Ni 7.180489188705033 1.5911842065383304 9.974422635197664 0.5244173702845226 -1.4380426806975493 -0.29373490933015867
Ni 2.5072675060230876 0.34051511535613943 2.4347390056612577 1.2028219655531993 -0.14262629144538017 -0.6719722093797716
Ni 8.34168100437342 6.705724163798962 3.5720747473631933 -0.47035118456773833 1.4624167386665394 -0.528072964759239
Ni 2.5494787765560036 7.743439630514379 13.066294815788696 -0.12532045317708093 -0.37240141009412636 -1.310216944600111
Ni 1.0387120699693928 0.5829421168031346 9.257690722870267 -0.4543118717166885 1.7910055224510897 -0.37332186502586673
Ni 6.402896485326613 3.345699578139593 4.640146562913755 -1.4734681113846946 -0.3045955061937464 -0.1193063857725171
Ni 7.773943141325345 9.166635647438484 4.014666252454204 0.7685402730145087 0.0805655175588935 0.23484379142090522
Ni 7.94798546285625 5.552421347720466 10.690364716161161 -0.6254990055188969 -0.9725732497021443 0.3767046654551706
Ni 2.3988426604198945 5.087231165291852 7.109237644475167 0.18743984821564494 -1.7904015703185034 4.245510955144882
Ni 6.171842869238784 3.269221920958267 11.237241903434176 -2.0581238576349845 1.1003221098150597 0.06463290548903708
Ni 5.256970396137364 5.382859083807904 12.331323201103709 0.9334590573095022 0.507000974580288 -0.027076030281185628
Ni 2.385542198301403 4.963661675847856 2.8699426070040976 0.15722038720947118 0.26146550777349165 0.5065330338049341
Ni 3.370670543783624 0.6639417448237659 13.692578928685801 -1.2995504660252006 0.023106247000160205 0.6780569821212709
Ni 0.5017841499477593 5.9191899732820605 9.219506847169308 1.5431815167204326 -2.2531116934012165 0.12787021618212815
Ni 6.920496822055473 3.6846657671299727 8.886189628959647 0.937565880389024 -0.21518873619413909 1.36067664391256
Ni 6.852802313177883 1.193111061942946 2.237347294435082 -0.20227331368405163 0.16083587247487138 -0.8059930185443279
P 2.849689207230526 6.662283438784505 9.229812842501318 0.663960909039521 0.11144292386404034 -0.6549695041741881
P 7.751570795380935 5.7832886828262415 13.429998187790632 -0.1640672349279755 0.7027159183205317 -0.40064343565895516
P 0.7104505176126144 0.8577596554092797 6.16444099441696 -0.6092439771126152 0.6241556041171251 -0.12140492017275867
P 8.324105393716842 2.5779425106135037 2.8646671295923936 1.4971142900487249 -0.18806874004889546 0.07793347925268514
P 5.685379398659867 5.229400810793711 10.139793577014062 2.2198452180386026 1.2230493483436677 0.9637967890610951
P 6.947013919850532 2.722096048574213 6.864951558827295 -0.2458499127234218 -0.9940882409557847 -0.9671178830145281
P 4.706184102455993 1.5688025465448185 2.5051625309259036 -0.1256618956768997 -1.5238987572314207 0.7815392563773379
P 4.373281359431397 8.245848753156922 5.552266734505363 0.09041001445314106 0.38336922195953976 0.7023811606889323
Ni 3.1800119586537066 0.9585833055398532 4.7444043029484515 0.3062646663660532 -1.313181169434758 0.11996047441674824
Ni 1.0293980208668077 0.4187652360816876 12.956488696703591 1.1116586178738015 -0.4105347266307381 0.41611633448357366
Ni 2.1193187328022134 5.247106818137726 0.17718767591284815 1.8770132940714772 1.611898362470856 0.6802766154804091
Ni 0.6081263741716144 7.816294122594799 8.1038188183916 0.07322990312942873 0.9829635917975328 -1.7730463668695078
Ni 3.2597961032664506 8.9306921555718 8.292867935836592 -0.6256260180150645 -2.1773459112238114 0.9384806788938095
Ni 4.843016797822071 5.828228969746215 2.973545569386882 -0.029333201746478514 -0.5393778482490968 0.8749286651737771
Ni 7.713159656881874 4.897755464397964 5.817532715756806 0.5843703537993872 0.7141529565128798 2.9518850821342326
Ni 6.8214139677021715 7.440332530568952 11.953891852129471 -0.27656456819845915 -0.40894887020085696 0.34251593538860364
Ni 5.972680557278207 7.079161648518009 0.8636489286568443 -0.8199453669593619 -1.0659112364353578 -1.5129036916724976
Ni 0.1720612232867853 0.7907329638523465 1.9347422217362844 -0.7343057773116709 -0.748674130218201 -0.03891544611827492
Ni 6.366916313643327 7.142953570821615 6.133823852206942 -0.3062512966296145 0.9290969236860644 -0.13684336621501594
Ni 7.517434229040151 5.893762619232003 8.141674839564148 0.10895769554834138 0.3727389959392032 -0.44389119060399684
Ni 3.258631847128628 7.7208623754897125 3.7532721214147045 -0.41117698820042736 0.7807527559203006 0.8710910365952418
Ni 8.515332135842016 2.336941490084114 5.19088069792015 0.543055039990368 -0.49198753189059136 -0.21250476160407275
Ni 8.922318825428574 2.328624044235506 7.923194258359899 0.1495988661084714 -0.7764592707512692 -1.186136020257086
Ni 3.0494662464318743 0.3797542728204202 10.88290380780489 0.5138473080781603 1.3532297007162113 1.1038661184125764
Ni 1.6114702054837609 8.062315415590483 10.355901869911882 1.7432958750799525 -1.8007080944508342 1.096066162752183
Ni 4.698537268142771 6.718968741622838 7.662344999192901 -1.267747976802623 0.4122113430022127 0.11440869136058361
Ni 6.627039076980323 3.916604217882547 13.898150237833867 0.3255230003750329 -1.246063292740338 -2.5031813006329404
Ni 3.90789558197163 3.096762987774801 3.9415304760908847 -0.20951713973065852 -0.3343298000333855 -0.8531897308347887
Ni 2.8021596146600345 5.347959341820517 11.23960022066695 0.12402101763936704 -0.31016811518551746 -0.010812260124155572
Ni 1.005731022097139 9.19285469566226 4.0887026973657425 -1.1692050488297026 -0.627588541058074 0.5770789623442965
Ni 7.008356247240157 5.351843300296295 1.9883985958064567 1.3982222062665017 1.2196868596293382 0.5759055108614857
Ni 3.4158343678820593 7.008738123253363 1.6611885995933602 -0.8314253425745035 0.41752118525090026 -1.958377396272266
P 4.763260595356635 8.591148495537059 13.024076094016499 0.9904989809426297 -1.2607779732426931 -0.7942510475170514
P 7.167551974501541 1.7270761829450472 13.200433888154308 -2.3762785905704047 1.5959942896460901 -0.6851388286687168
P 4.392347217944388 5.259941577801088 0.879046914633238 0.5066842146708177 -0.15748726771761265 0.3975930788684056
P 8.816213178051925 0.5013473210448481 11.03432882389999 0.7598805404569815 0.4873610888621736 0.03254296693302782
P 1.535607275543205 8.117715379652658 1.2910520138762693 -0.9749294086391469 -0.036815626166452724 -0.46073397319294845
P 0.8797287030275472 6.313006597437564 11.40428844268413 -1.1116956417593242 -0.3027458545795173 1.5456004105745704
P 9.110034171042074 3.7696937213874717 9.407288322531437 -1.0924375648606606 0.8838969301106584 2.2142697808333547
P 9.7003027188693 5.307629509206324 7.02807315778542 -2.5267189787435647 0.6962516507524267 -0.8546028091322313
Ni 5.05861840644871 1.5694359018837944 12.410252316008835 0.7970391517851498 -0.2088792490363435 -0.6319625017560535
Ni 0.9321500341867167 4.160362196946301 4.779670087065568 0.9587926509782843 2.2441071759097615 1.273386406035323
Ni 1.7795515355890115 3.0489819158785396 9.204280239696402 1.2223276396862948 0.1076078663886663 0.10869878545999989
Ni 1.1348516848062762 2.131184831358907 11.584463134144178 0.49756091221331084 0.26079342140713146 -3.4754434468525695
Ni 5.717391785425453 0.8302152179982049 4.703958044720475 -0.7039965848051681 -0.5287067416884959 -0.19818603098855544
Ni 4.837772988177316 2.2599981304476584 9.085217818613147 -0.8661267506114309 0.047428625795608644 0.3036444551343867
Ni 4.053064351284521 4.814497179469956 9.060148124048629 -1.6805879545277702 -1.0351587857438493 -0.731364949515792
Ni 4.671302988566812 2.2641801384947193 6.353858948206413 -0.23134323446681448 -0.12027106367863158 0.48137813180586125
Ni 7.817579461370956 0.4300948454100721 6.653286998756319 -0.4459581004353546 1.6118551679377464 -0.3384741612190622
Ni 6.943921655548474 9.036276216198702 0.12006554417160398 -0.2645999396374153 0.6246294584297499 0.13674283608140966
Ni 8.308737212697576 3.1064868550379003 11.564029041818017 0.5192270843328348 -0.22405184301172382 -0.7535705390785538
Ni 1.8768274644164102 8.38784143172583 6.130169950743998 0.8965264459492107 0.041367250092877145 0.13453940067218767
Ni 9.098698973284229 7.980724345451837 13.247656117104414 -0.9800410188340991 -1.786417645970091 -0.25525475097708944
Ni 2.126285641530947 2.663417539227927 6.112285113657214 0.14856039754162803 -0.7596475985105692 1.1283921285783984
Ni 5.173414061638073 8.545463084688878 2.3968420026726593 0.05001541268617838 1.7901429173404784 0.976311633698654
Ni 2.823805464774442 6.333814183132739 5.509939038358664 1.021843299581866 1.2878735439079045 -2.1250154772512113
Ni 8.704798522686803 7.868853301680686 10.168311332556357 -2.2742770146249223 0.3207073241539445 0.23415242178083545
Ni 8.30525375833321 4.473621610413546 3.771975663417605 0.33716906925439355 -0.9228437436875009 -2.5092768720077174
Ni 6.184957050375225 7.550368706666892 9.517285379623146 0.5832367544155762 -1.3093311995610482 -0.3079711075341986
Ni 5.332544590555739 0.1515786979052904 10.303487058587086 -0.37514349161563776 0.4057861562021592 0.7315246150221079
Ni 2.9826752003172365 2.4546617566916873 1.5483693856235674 -0.24119698733244266 1.5584268729152773 0.4822443364608985
Ni 1.3260411707350404 2.271491667040249 3.585079954125133 -0.008886503856352436 -0.1996718715054626 -0.6680067969741205
Ni 9.065494388233512 2.191232505923273 0.06400987105260583 0.004145903847573505 0.8068633369644233 0.7724354943038568
Ni 3.7947950837189386 3.771621729551707 13.150650295700991 0.6065216930854458 -1.9791066583998174 -1.2638998067011264
P 2.9456797972817683 1.5965584128705221 7.979862795909847 0.29911674246736225 1.3198742651842172 -0.7329448924084023
P 1.8095241456011304 2.8506858104845025 13.3605563633014 0.8272598983429044 0.7967864123443955 1.8189091908398933
P 3.3420577849404824 2.6092377155981894 11.013784825794419 0.521284738192812 0.17430382505431916 -0.2881193629155941
P 3.5840554087238483 4.341464567696966 5.521008785717086 0.8160825415698462 -0.6034985899884059 0.6904350440706496
P 0.9491202316516267 6.814651968053695 4.44246797897522 1.6154182026986563 0.1885665056209204 0.2842447104515363
P 7.714724417131109 8.102188859798648 7.916378237226627 -0.7251935305977575 -0.652352121155999 0.831204484812949
P 6.425613451087819 5.912604940566533 4.388348696664649 0.3122843901975718 -0.8066522493948817 -0.32603464990412884
P 7.743998473460533 8.261263504421699 2.032647780283018 -0.6229510422860626 0.05473441542840251 0.022960465450915294
