# total energy = -340885.62749008817 ev
CRYSTAL
PRIMVEC
9.10186211036326 0.00000000000000 0.00000000000000

0.00000000000000 9.10186211036326 0.00000000000000

0.00000000000000 0.00000000000000 13.32149522883625

PRIMCOORD
 96 1
Ni 8.864503907150256 7.773126907765638 12.27316042967637 1.4271021225256455 -1.0071556156627042 -1.9750867386071471
Ni 4.9030912888780405 5.790377230549587 11.651299354820393 -1.1227575560004404 -0.15283357099568518 1.091522509245559
Ni 2.1910002859871835 2.4818867023209505 8.349247483962593 -0.6105485548566517 1.276769206464627 -0.9087142462646542
Ni 1.841470571038364 2.562674831842479 12.487050552310903 0.6088791375740288 0.6805190705085182 1.149203151786479
Ni 2.94892145919439 6.81862371321932 8.427724650653396 0.554727848342606 0.4296228536104407 -0.9889228947047614
Ni 8.689529706843604 5.095249805153221 6.502049110996795 -0.7544285162034748 0.9210825380220201 -1.2873294984789765
Ni 5.099081689169508 5.785380308162552 7.140814164463338 -0.7412446705233492 -0.7552934353069315 -0.5421507830085438
Ni 2.9131056311561734 6.856068774604129 12.934119464105656 0.12449307217977913 0.199076918233941 -1.478813177746692
Ni 1.848133134221077 6.284644759339251 10.557271893142326 -0.26146550777349165 0.9761643094875124 1.5839820956765622
Ni 5.9177668949010185 0.2636736685145394 1.2814803151589014 -0.22651444561960346 0.8010590715778204 -1.148997463533576
Ni 2.717479305355565 1.4054276551992646 6.241453692302466 -1.336669482364685 -0.09667245042308513 -2.0231206020869226
Ni 3.0228012752518763 4.417379510623554 0.8441194496628938 -0.16302002461038376 -0.2878514539661881 -0.745419113616013
Ni 0.0323498388852428 1.2056144727537819 7.307013259354071 1.5909551845602858 0.060289798028992946 -0.02610595305843246
Ni 7.919621381024877 4.737746858854598 1.206744924047898 -0.30303433235421356 -0.7392944887755138 -0.19938365084108242
Ni 5.654559241734779 8.330461240234287 3.4217723060592964 -0.3168136455264931 0.18227270219240865 0.679644638323365
Ni 1.171600813445315 8.951945497992225 0.6809084961558823 2.6261389100047996 -0.85764725238551 0.02999217548671609
Ni 6.059309955084579 1.8458576686532107 3.9619059392073295 1.4848835523104877 -0.04095690202833591 -0.4388101765366636
Ni 4.466292918470409 3.0572427220871017 7.302204745516057 0.5326055625222699 1.462287412177527 -0.6911904341794354
Ni 3.864159219901607 0.8350130364602925 3.939672820236821 -0.8361412599929343 -0.8359283726511796 -0.3982721072133012
Ni 6.9849693480926245 6.437474128739429 12.987565599363702 -1.6665667005480138 -1.2217910504565346 -1.3951692783727907
Ni 5.246895932458108 4.117118176150178 0.735714449637285 3.355877379660762 0.873217081799309 -1.1163025444037162
Ni 0.8334875643435948 5.021879693382937 13.030487251277252 0.2337770407192877 1.159006511030146 -0.8178301203885722
Ni 3.8405489891694256 8.637476156513092 1.5695515254921042 -1.0885492855498478 -1.450208883746438 -0.31745539287555
Ni 6.479916112511273 1.8638702540884406 12.462712172597003 -0.49647359268640306 -0.3973447103030253 1.6259916073391287
P 5.0633295741671915 6.421309221345306 9.285815458902988 -0.8765047514116453 0.8529256785401246 0.9208457394208657
P 2.7605857250732253 4.618221203505712 11.872436380195465 -0.48628276819633026 0.26905591852623983 -0.3139036709685497
P 0.19830227330841962 2.072093557272758 0.7924700220172355 1.7014969367662955 1.3537886585434749 -0.5890232791903662
P 6.699862614301238 4.261482813637892 7.3429282976910475 0.6023979007250593 -1.266108641426987 -0.25919085280670195
P 4.53392885700967 2.1005732843201734 0.5078211118981037 -0.10253276585860406 -0.800040400505319 0.9955491417720274
P 2.106817161838399 8.55951870615799 11.662143313530619 -0.9532061580294422 -0.34594938655018487 -0.28761902624040786
P 2.789629767581472 4.9156245532258485 2.9557733411123497 -1.2698182290680904 -0.22166971593279244 0.28975124209206227
P 7.129688958208925 8.99780068011587 11.855531491398674 0.13662662221851954 0.8311936861796718 -0.5555344034043013
Ni 8.575638104240756 3.2432028701554136 12.309262056189914 -0.15978583394380225 -0.23228348689289674 1.0905987118797087
Ni 1.8102784890340518 6.474418587699308 1.538379467584789 -0.9688564629721893 0.5220624968991009 2.017999221699957
Ni 4.509499458673057 3.226091369085059 2.794463766633847 -0.764142143946813 0.36375350461114125 -0.18345772363944535
Ni 1.25721292997072 3.5376390127750525 5.959424298145062 -0.07198703186126311 0.32832267460735715 1.2050058605783958
Ni 0.9403224931273759 3.9477507230027467 1.8390458349292458 0.040722417420026635 -1.1668995406249776 0.8160059226956399
Ni 7.176645465667416 2.2966729069588983 1.611261719537322 0.2211092154436321 0.03400361063895434 -0.3399980540627564
Ni 1.1643739348017716 8.761225075955936 4.8833138523483735 0.9445695654003667 0.4718650501091035 1.675205092949302
Ni 2.6429259514899903 1.662473347607723 1.6170696178527442 0.031959840736048184 0.7026315861368416 -0.11930381466935581
Ni 1.2660053289249555 8.667239246140785 9.401951580741981 0.7192568533983483 -0.3389680701363453 0.24700485226347138
Ni 2.502657152024435 1.4211101638929997 10.334803265316939 0.7706035833014406 0.03542311669430028 0.560416414086951
Ni 7.158305213190413 7.04487780556341 6.079624401488263 -0.7488296819594588 -0.1902724325684336 -0.42879521550282285
Ni 6.6472447485098956 2.041010697615703 8.177173136975629 -0.47935467361792927 0.17502013439505343 0.20216481313064538
Ni 1.1031457073016229 3.7909893491012956 10.494554600974565 -0.1983104723815617 0.07601826450784327 -0.19629138506900387
Ni 3.421817815370653 4.913203457861639 5.21299422605558 1.0564485483605612 -0.13532461557764439 -0.950732242567653
Ni 5.594769108473521 4.460713476898001 9.937689014412896 0.47092634034491804 -0.8340337267316281 -2.1158500087018592
Ni 7.766145779403425 0.07826236274119641 4.846332985939409 0.6037053066825732 0.33595859388606014 0.05428190127201619
Ni 0.2829750776474092 0.9392757789661573 11.539985399612826 -0.13565911609892767 0.05951281065365234 0.2678953225592354
Ni 6.809203285768352 6.756230447348424 1.9452709389408385 -0.29742495658723617 1.0066041140346083 0.997765946917688
Ni 7.797083009264137 5.506535655613934 4.083531394182242 -1.7381744946929871 0.12508211191402974 -0.8764738981737099
Ni 8.149525320139825 0.3589528729584678 0.45421751442276176 -2.02372044045445 -0.3033423505129357 0.3810835112491566
Ni 5.72462537750052 1.022029910738322 6.202555063512903 -0.37676251527629956 -0.00200494624517074 -0.5918257816361678
Ni 4.199007631006553 8.346280276862094 6.126155851978676 -0.6238141616173063 -0.7724807457194954 0.1346108773400714
Ni 2.3974942353399222 2.9363608892597677 3.887451795640515 -0.4658813217218429 -0.5812516056647473 0.03647392655631783
Ni 7.171666747004925 2.8279213021575274 10.430398304381685 1.3712917004242446 -1.3194027248644373 -1.4222213973945763
P 6.510680406988826 4.026909619177682 2.7209553065570375 0.25471816174732903 1.0017048769607781 1.1442044130203068
P 4.440598361278062 2.3825853849392615 9.354553632963324 0.10136214258927059 -0.16922049699414082 1.4741211715876612
P 9.14245657719627 6.912473015100401 5.182581263461706 -0.6262232852794312 -0.5823980605643647 -0.1444679726398093
P 4.753493080584233 6.380523776506869 0.6144130209592366 1.070850068497872 1.3161412805043462 -0.49348211415824694
P 8.69609214954133 6.8268791022995385 0.8262415717892811 1.9541103934657957 -0.39971603874867934 1.8623760037742763
P 1.9674130392886329 8.536008595910793 7.1885852885951245 0.8716006292418086 0.20809223435867388 0.34202305491258517
P 2.102339045600838 8.568129067866796 2.8842636499903533 0.3410295806510643 0.6449787115100634 -1.4268082454343105
P 5.221792996313407 6.752971980655238 4.809592408694411 0.5477871553587146 -0.8129900186874516 1.7047308703225608
Ni 7.399686600629679 6.005982144036063 8.551733883357205 -0.6988312385541449 -0.5231562441839119 0.14785103017942922
Ni 5.777343363776848 7.914305893458341 7.882142642749663 0.14612479151694188 1.770096025991932 1.0997078732698284
Ni 0.09747912455494159 7.627588130044905 3.0451336045211437 -1.065481605097107 -0.4341989030168974 -0.9733291540315623
Ni 0.9317121314185695 5.1200523798429645 4.12699915783208 1.1423485907584907 0.08188963568695573 0.03214110350891884
Ni 3.1616137767539967 7.369259075056171 4.352745366261423 -0.5741574178221274 -0.9092050698581438 -1.2107412204002763
Ni 1.8852687322886563 6.45617845570729 6.293940491277098 -0.6442616308383807 0.4022300634197847 -0.3199527053761071
Ni 4.607326274366768 6.0690398458527754 2.7995917558375907 0.2815249975275281 -0.7477960984886218 -0.12488233719839782
Ni 8.075809337603225 0.24934642711302546 9.492258437827008 -1.348986094948509 -0.18138747137397793 0.15359333197984518
Ni 5.942296413722618 4.2863764069503505 5.232683374521215 -0.2304297215136096 0.16791000571283338 -0.5377441693004159
Ni 4.5062956031535 3.022837682700962 11.71865313562924 -0.6066628466490004 0.8551129159994305 -0.4913573545057603
Ni 3.7497579130115564 8.180444346275992 10.151179565293711 0.33333041223459364 0.11661161254917336 0.75913749164337
Ni 3.9927139226237864 0.7306729281251202 7.951560725921676 0.43155143809172125 -0.977647321790942 2.4116155753088013
Ni 8.338006684057333 3.109141540758998 3.624632791993266 0.7422422585499282 0.6367154430600067 -0.7675897361757813
Ni 8.873633075008538 7.709459381176737 7.7137718435209575 1.2208554260161424 -0.5125013355732271 -0.38318873051761754
Ni 7.780290073373282 2.6360267398882193 5.776653442616671 -0.15223450395910557 0.04934538320234728 1.4651680761594315
Ni 3.586124633095149 0.8330361119749302 12.38431510229419 0.27001159757128984 -0.33777019317350215 0.48967996680333736
Ni 0.4699200472134941 1.0813558490237343 2.864468009736143 0.08655850191753481 0.19192668034240495 -0.32178307371662646
Ni 5.646522297349073 0.6575676805469362 10.37038426530855 -0.2999855182255608 0.5401792611044698 -0.631813377772699
Ni 5.170494900551426 8.234591324928942 12.35743184188919 -0.261558324597614 -0.8774743144137661 0.9026893802268131
Ni 8.655579760571037 3.5185615094540603 8.1609208517037 -0.45095735342215887 -1.0962471684147377 0.9710413864386503
Ni 6.706816437076637 7.222746398072389 10.727427567562465 0.1389195320177543 0.20692752462661138 -1.5529013151113578
Ni 3.10710272361019 4.65807825839246 9.446964840605514 1.5528025847499645 -1.1830468398088012 -0.1497814144329227
Ni 0.8868508726549702 5.320648322443793 8.45611244889187 0.9316171190047567 0.9622307301255557 0.5133999361280964
Ni 8.203235409403742 5.294380347928344 10.87337774945787 0.14182590703127188 -1.776937731504114 0.6950175212350095
P 7.438779099085624 9.142638614441701 6.995889762445929 -1.4006236166191426 -0.011369418179206225 1.2300592040025977
P 2.765555341873445 4.539025899881691 7.219824700283248 -0.8406376052013909 0.6987073113817709 1.3256289082798074
P 7.456755277071768 0.2879446944476294 2.7444945427635012 -0.2549387623985674 -0.15856044617713336 -0.7809610152763646
P 0.6637032459041311 1.7999478753559381 4.9506011895626365 -0.5851679100000181 0.025749598160278237 0.3119830569070691
P 8.943608192151563 6.968822644423044 9.982742322470424 0.03597744653587352 1.4777842222615452 -1.790264530520007
P 0.323168901438201 1.9900675744823104 9.56659243681184 0.061973099268686806 -0.5578879912381425 -0.17314348619763084
P 4.335662991150336 2.6342427748830124 5.078553349002445 -0.45157467529118356 0.0517215967440077 -0.013050919646687201
P 6.609599446155113 4.201619865478463 11.979074708754185 -0.7116888112431033 0.6318768840207828 0.927374284568003
