# total energy = -381176.3180391966 ev
CRYSTAL
PRIMVEC
9.22168764596016 0.00000000000000 0.00000000000000
0.00000000000000 9.22168764596016 0.00000000000000
0.00000000000000 0.00000000000000 13.49687201233442
PRIMCOORD
 96 1
Ni -0.09944667876559377 1.8592950914388486 3.3154659550492314 -0.5701562670825342 1.3852268224480981 0.5590457589916695
Ni 1.9597008257118258 4.34905851873138 1.0768164576649093 -0.21875871293358454 -0.03794022668919918 1.4709887966062665
Ni 8.874177496568167 8.931019978755772 4.435922204806353 -0.17681193618815355 -0.043691784460995725 -0.3879234169891254
Ni 4.649639425107912 2.3011153646527176 8.721745767525917 0.634662674296036 0.7271421696836962 -1.5535186369803824
Ni 1.3486994723205104 -0.2027719993235474 6.1299286903914725 -0.8102906174784175 0.6214970834483554 -0.151487598490752
Ni 7.161313582069124 8.42067334520185 8.75461093986018 -0.48175094176424776 -0.21775469714910242 0.4605699368112584
Ni 2.599400070824073 7.430079666325731 1.5927385235242535 0.8120273976638661 -0.37388236551502707 0.7735873485201129
Ni 5.408012567571275 1.905541854607381 2.606948022100931 -0.37834014417606454 0.35481172203682115 -0.28591592750637207
Ni 6.0745100367648295 3.478153122839184 10.249214108591437 -0.938515645896803 1.7894839436002408 1.7724910085866699
Ni 2.0972976259586193 2.189044195602434 5.604832889736503 -0.21899525442442286 0.391411632648042 1.0418724503185992
Ni 6.622886909861528 6.6330584312523335 6.924435171264258 -0.1847353048002883 0.08360764681932698 0.46662205654260924
Ni 5.060428719645389 0.2609534705464595 7.772389631129766 1.1028980980723522 -0.3057517312853767 -0.3267877260200695
Ni 0.08245940809106665 4.609672631175227 12.954783468420356 0.7141336732391701 -0.42729960479390283 -0.24317699387694894
Ni 3.9977398873392413 5.588444106585333 0.7490573936791447 1.739643623039346 0.007406319766400147 -0.18109745093738486
Ni 5.237789436698306 3.147684727045062 4.791942974690941 -0.7112447817271492 0.5858533661028168 0.4885363401171974
Ni 7.5745097370626295 0.13244925424466525 11.96557119834237 1.394670227249185 -0.20067357329709953 -1.8923401542365343
Ni 8.488314423535087 5.147112582812728 3.1354447811320822 -0.4636683732309241 -3.0299813122170267 -1.3159880427559336
Ni 2.5976295068104425 4.511821304359415 7.226697191284983 0.32321929194252075 -0.89660486459563 -0.20011975767615858
Ni 1.7673733097311857 3.655089642263836 9.274078744590572 -0.46841360122539333 1.0362409630644347 0.5696489884288125
Ni 8.516283801937911 3.7211538120224334 10.275573380344364 -0.28456532701574866 0.11365664368590749 0.0767739117269452
Ni 1.046301893492492 2.9053941078047787 11.550299241476637 1.326468116351651 -0.04001382138877625 0.5618595742913808
Ni 3.7079391337331997 7.928677869914206 12.249585342997614 0.26570628532771656 1.1433811457880632 0.3751656031028248
Ni 0.667600383027045 6.070775253298577 10.739933302319255 0.9767037269307501 0.1775164184543459 -0.0029745092472916513
Ni 2.895176477976118 7.8937092306449985 4.403934937128848 -0.8834935240246526 -0.26525762782607226 0.1370238576569382
P 7.4925750429943525 2.252932047094277 11.646774692506854 -0.2587663636747737 0.9897919275732759 -1.211146683368811
Ni 8.303880672115218 6.5622819791449585 4.776408119808846 -1.0589546026118666 0.5687640147206979 0.6794281514371846
P 7.792602648116626 7.574703392501621 10.64309359462998 0.1425365599450513 -0.15129090909891366 0.093181149440375
Ni 8.94325715816248 7.29651274354746 6.808726046467217 0.5868293568628409 -0.11836073402979616 1.751790542814525
P 8.846014462726353 0.4282607038094801 7.993792205852991 -0.20379257854205543 1.6277846946838095 -0.6007480238264622
P 0.7361912951800946 6.167649081231863 1.035871242680941 0.19622093684238467 0.002347160075937893 1.2023002887217744
P 2.4581053738613106 4.902996069433388 11.121489847256681 0.5976791550931513 -0.6154241377813982 -1.1718985365014656
Ni 1.6708591276131677 5.977295006391416 3.229639708825995 -0.674599876810606 -0.8991649120133225 0.15043678862873444
Ni 0.7322176700057536 4.10261814008415 4.732462167689277 -0.29849659238486015 0.541577427003577 0.1337251323010084
Ni 3.43782668309123 0.283514329188895 9.94036503713875 -0.2595418083882175 -0.8107356754356361 0.7325875090689835
Ni 2.2023879775176614 6.284414089255783 12.80356439129369 -0.6372736295563218 -0.3157741485183852 -0.1944892988632586
Ni 3.51458801043218 6.4487722268336 6.221450250858553 1.6496125891921785 -0.06116165911098499 -0.13589360070723694
Ni 5.169429066734532 8.174657164182886 5.379407814894811 -0.06717701206712946 -1.0885145756571706 1.2122435159774154
Ni 3.1807721420497863 4.502286079411008 4.918732879273288 0.2802235051072851 0.5947743227415305 -0.1576747011380704
Ni 1.4179543459786716 1.9645883201244525 0.432362510441058 0.1055502125286892 0.5028311594733147 0.1704929359486612
Ni 3.9372456168735237 0.9426501251945253 4.775328260194283 0.046672721466190586 -0.3871196901409075 -0.7104397693273506
Ni 6.489246213582691 2.321421520684045 6.848866208126237 -0.25060439668927165 -0.19308959030225456 -0.36281505195727193
Ni 6.4553380683841475 7.465786040600617 12.789554803535838 -0.6154441923860561 -1.350775068528132 0.8967714720804812
Ni 1.8030335755682174 8.836894213718642 0.0543710699185776 -0.24409333504363126 0.35397842750224845 -1.3556385672680202
Ni -0.17242988070870752 2.7975095849117264 8.218542253164488 0.2618514303580006 -1.3282164665013254 -0.7122104880745282
Ni 5.402497998403821 1.1402893332160575 10.797079178027943 1.5088027821302468 -0.19187345850696633 0.938815693635725
Ni 5.508206203030119 5.706592367744903 4.894896661239784 -0.11944933910828462 0.6287457945909688 -0.5584682892216446
Ni 4.674224444172181 8.472259465473988 3.0106799591403255 1.1306364445278851 0.01765576540855024 -0.1864288904526273
Ni 7.049602058834109 1.8662943523052329 9.148571576749351 0.9167682269173824 -1.9294103196159547 -0.6663774889008136
Ni 0.17560582990815765 1.2677976072601844 10.09502564806691 -0.8010284754502011 0.4463985304068828 0.02511299301754385
Ni 2.300608171836313 3.015759264654429 3.4098499273383496 0.43230117177355226 -0.9286631785827554 -2.164700454545659
Ni 1.1525541776854789 8.632052867704163 8.97626987749788 0.34540379845936 -0.2259007232950045 -0.9258267375752249
Ni 6.097315270127897 7.020175653795069 1.9907484034258467 0.6476326041931427 -1.3478807776994723 -1.1569208321457107
Ni 7.515693813734834 8.922517582815317 6.468942824057634 -1.3933774765796907 1.6719184517782304 -0.5855042102935142
Ni 3.0461447252008527 7.215749203800699 10.111221697947846 -1.1592895894882036 -1.1817438047266615 0.4747182032871824
Ni 7.782274358037114 2.5517055027068944 0.3347776903960478 0.5167986773970003 -0.4854888115401252 -0.2052010288538079
Ni 0.8137327772895505 0.12659163829957018 2.028013242900231 -0.727003844333619 -0.3045078315759465 0.5112265826258615
P 6.713480768558968 7.901584551830627 3.8771109922230753 0.7656475248477459 -0.6227024166103663 1.06635937971637
Ni 1.3535869667331368 6.357846387383604 5.637400201562223 0.4293282051881574 -0.34006413141400144 -1.0637489386767165
P 3.617170062971911 2.872352801237909 1.4264576640878845 -0.5847192524983735 -0.5171082382176191 0.9570435294976614
Ni 5.404572878107295 7.883067403188073 10.643835940479446 0.8386074621452397 1.6380176852657273 -1.4606208231083813
P 1.8317960191021463 0.5446116580614621 3.9608457597052107 -1.1471269859837405 0.8014257108886197 1.2906030270239257
P 4.262559089315461 2.068793389676679 6.526560850169959 -0.2761614192227696 0.48902819215195137 1.0273701429373663
P 7.178124718511046 2.8349035280121044 4.009029999432409 0.7953329677273205 0.44325972766758504 -0.04239800535023666
Ni 4.431039321237512 7.048052815322183 8.360570074289143 1.2387341060687762 -0.5192988181110346 -0.3704453148090201
Ni 5.712521912853051 4.511083569353736 2.589212872564396 0.469768572591391 -0.4346388187677934 -0.2118596718209061
Ni 4.074611874931043 4.669733482325108 9.211089085468144 -0.9925368373082649 0.19505854110316728 0.5588693813148052
Ni 6.141800690970369 0.6026944572273645 0.14606599811199422 0.439756599610333 0.03366936722798717 1.3716118027678248
Ni 9.115232409673938 7.267104781883562 12.959993721897968 -1.1748226521267962 0.8596791952138743 -0.5493516716323572
Ni 3.11880240157271 8.425385627550629 7.316059954691696 -0.37500748025840575 1.6337357700609219 -0.24282141030974308
Ni 5.395314303786018 3.046476705953408 0.3317243896412919 0.7905049502110579 0.5261191834669778 -0.35526680729636884
Ni 3.1706006206589805 0.6763628305570031 2.3073307820755673 -0.6847043122344595 1.6905265537977205 -1.6494364686256304
Ni 7.591486863880829 5.44166250551783 0.7819861956576483 -1.004931868538508 -0.13600184415032707 0.240181915804367
Ni 5.151538992846805 4.7176862576942735 7.063560927310322 -1.0342411590255864 -0.6181315094102322 -0.33578684419488625
Ni 8.553013783533178 6.222711777718266 8.865528475795333 -0.5355862424171486 -0.15586027363715094 -0.0061526498649571455
Ni 3.580449303064215 2.627719873354594 10.598742810426046 -1.4586063637815136 0.3799128879798231 1.3779912239316072
Ni 7.119511672309811 4.284128616544015 8.122660678813839 1.2533379720248803 -0.17208933390150363 0.47406719996674485
Ni 4.024298347543702 6.088619218748449 3.1247015151118744 -0.057739263692997346 0.17150055127756914 0.2839750017299174
Ni 8.785381866947072 7.282237571187562 2.5330933706823586 -0.3038239181350445 1.1470614228531277 -1.115770068939014
Ni 7.314633359624462 4.580873300891015 5.762233264042006 0.7585605360939774 -1.3672054461700132 -0.5744929467846752
Ni 4.699860735619543 5.862780090134819 11.344970990358409 -0.89647270989314 -1.6339190897163214 0.5422626259960597
Ni 9.508205403824254 4.68553945482179 6.981310851527118 -0.551682890868695 0.5663145247389408 0.6131677376470537
Ni 7.698790420456909 5.616597918739577 11.3860554528247 -1.8655487450753034 -0.4265385582581622 0.9858866789815989
Ni 7.173818190415392 0.2517585258694219 2.5115118552599625 1.1383389553784653 0.18427867687884392 -1.641244419733141
Ni 2.381178056144083 1.5084744311755436 8.43654386951153 -0.8731018963776833 0.5471024705868642 -1.620595633134538
Ni 3.9813621702131567 1.071698421063008 13.11557189073944 -0.9627390372205419 0.6470548773128018 0.44413981627969323
Ni 6.094806971108586 5.919604128947281 9.406118555907085 1.3349879808972043 0.014716223164252074 -0.1370192296712479
Ni 3.176880589894827 3.6026920134854516 12.76507122303485 0.5319473601129807 -0.01450025049870406 -0.48414592435898557
Ni 1.1091661376639546 8.632809046084985 11.235997386163222 -0.09247589584323429 -1.3580728877411254 0.5088046034479302
P 2.2575613342549152 1.036416244416387 11.883779440431445 -0.19408357878440766 1.0448127638938456 -1.0347090998009407
Ni 8.847951017116262 2.4034668750031742 5.942551376298941 -0.5941850258969639 -0.7113080308649169 -0.6954844335690991
P 5.781435584071086 5.042483315632236 12.956672992203652 1.1480857503525839 0.23589074462818083 0.6861212471866442
Ni 6.368497436528101 0.8353954435625712 4.670471217330787 0.7964493407199509 0.8119852315720208 0.21328097764846493
P 0.0832450958721153 3.3944755298199896 1.6566872381540652 -0.300897745627185 0.47706639180438487 0.35596203359118045
P 8.446909046341327 9.229618222304541 0.4401290157133487 0.1371092182818929 -0.041446954290877004 1.425493640387945
P 4.578162124745142 8.303502582924807 0.6681693611501753 0.3658996044198666 -0.2001308134197521 1.117997672717952
Ni 1.8553943175963183 6.684248018958919 8.08150889802828 -0.3682210534641917 -1.8790555213124864 -0.07314377117352563
