# total energy = -340869.4343103855 ev
CRYSTAL
PRIMVEC
9.23851245269134 0.00000000000000 0.00000000000000
0.00000000000000 9.23851245269134 0.00000000000000
0.00000000000000 0.00000000000000 13.52149681766429
PRIMCOORD
 96 1
Ni 9.084885011263989 2.0053114648946955 10.895919802449708 0.7967468173557116 0.7066149962646217 0.3832283255063013
Ni 7.613014481108466 0.2951141108608203 8.522815774822911 0.36524628710658386 -0.2381440594387318 1.958483068612195
Ni 7.594833089037551 4.696490077830403 5.292245701419945 -0.7036733971377945 -0.23877346549261458 1.088458011387622
Ni 1.171341727276023 2.7885987244132466 5.97617738114853 -1.9675204962241148 0.3643356023668564 -1.8826054434472739
Ni 5.761182419909963 1.6861762983816468 0.130399752440319 -1.1667031083434551 -2.123098719844472 0.3571056602773205
Ni 7.553075013752726 6.539231442993448 11.487173499029007 -0.938255450256881 0.6226911037564566 -0.33849627270624927
Ni 2.633724305370149 5.747426275197772 10.114228033993477 -1.4187576072156922 -0.09878615433197825 0.03691821318258803
Ni 0.43436897727470225 2.9473717956178915 3.462923275272653 -0.5706393773665398 -0.40353489827413724 -0.3000410540538445
Ni 6.519165394427378 8.538002041228486 12.974349472397884 -1.8342450498660154 -0.782091529336382 -0.7725136558399599
Ni 2.58289401107433 0.7472986351220836 6.139395100587584 0.5268491196544669 0.41181770710821974 -0.8331531238988878
Ni 6.6066633437686555 9.073124385193728 3.8704608414744093 0.1112529193404213 0.2965960329280376 1.0287215147589381
Ni 6.999669654082026 0.07146635906655255 1.5154753840353563 0.6330958440295484 1.3134367370889894 0.6485294049757993
Ni 0.5186343711862982 5.859526382610617 5.73261416853756 0.8470846463783153 0.15539104731021625 -0.8051052166227359
Ni 7.708919476580094 2.815233355175669 1.8713077688330024 0.2793272185452609 -0.1174212529346623 1.0913368755973138
Ni 1.0598698386948961 2.4145128871492827 1.056129165092501 -0.8391260536528711 1.3266493791245215 1.3316458038978483
Ni 3.722732411642111 8.912235694688148 13.073475013233297 0.63013573295996 0.1816121857902743 0.5450036790763065
Ni 4.852316063633309 1.2696856899766773 4.996206815484785 -0.25643488732811964 -0.328068392504706 0.20297599617803108
Ni 3.7773412574404737 2.788312330534081 13.068445567174654 -0.1640528367502723 0.4781663097367829 0.6050181119567258
Ni 1.9573081553416094 0.7688890382062948 10.453090195673713 0.5173522359076251 -1.2685930984117377 1.9313846697335058
Ni 8.42709370189346 7.952298842797665 6.95735080110477 -1.4629294166368998 0.8801186940151488 -1.236367662719129
Ni 7.231380779351647 2.685792560304944 8.57023521040299 0.7521335495217112 0.7127211091623595 -0.313856362670382
Ni 8.22951887931796 7.210926713271868 4.56186924915167 0.28762262578483366 1.0476355780546214 0.3870430712667012
Ni 1.7109170341366822 3.922201129224998 12.423226025248281 -1.9691459476426794 -2.0475990468442604 -2.5066252933174833
Ni 3.479251421789998 8.086682241712058 10.971247859628884 -0.48816455860007535 -1.008144976159167 -1.3815935965708852
P 2.6141109439034054 3.108759365783954 7.274443332563511 3.3883043898412164 0.8266451475770409 1.929444001067367
P 5.445714942752684 4.36324770314038 10.152007082060342 0.5704956526998239 -1.9353927624516347 -1.200497431185081
P 6.82418411425122 8.199743154396945 9.9527000384415 -0.25488862588692235 -1.6491266506946953 0.7237547412687019
P 5.290803569660661 6.759477574584205 12.592610451601633 0.21146372193406807 0.6136212802447045 -0.2538393586868015
P 4.57322060913009 0.4027067481560848 7.424477695048705 -0.7162574044503923 0.5441739840861596 -0.20737798190046866
P 6.466542828758715 7.760183980950779 5.845816430459582 0.30786209276016013 0.9892185715683093 -0.16748834479438252
P 0.45773132700484925 9.06387663445034 9.125617611691155 0.8596658254774356 -0.8244288566520124 -0.41055658100760906
P 4.189203371217634 0.9290247899650352 2.8984954466589614 0.318510830723258 -1.9026793313790133 0.6183536527233673
Ni 1.584266269959766 0.8562881354666988 3.4265503287673695 -0.3681925142191014 -0.37145421568950865 1.530093573188223
Ni 5.815782027196095 4.525485216431708 12.14483269767463 0.3823322960545931 0.19321711701905434 0.046616414306958426
Ni 1.5300823957240368 2.2628165163137033 8.927824760227 -0.2035969175914816 0.39916093757615767 -1.0652244947809784
Ni 6.016636521613654 3.5060338687481187 6.674738244995151 -0.197913236943143 -0.3301270748059476 -0.1469046071057599
Ni 6.211014818957174 4.897048939856567 2.7019331650239966 2.1422855771855684 -0.7123297872612119 0.3066467322958203
Ni 8.734200325481543 8.840535601262149 11.029863448181898 0.5916463186355101 -1.6692324203056348 -0.21484935057684934
Ni 3.0948092123149085 2.5489886711859877 2.199663894403968 -3.104172807928777 0.023926943129242664 -2.163482522978158
Ni 2.6276453643220488 9.013471311717154 8.314746926204043 0.575228539399119 0.6854381050766905 0.8870421606078595
Ni 1.5806170576284595 1.3106677302340848 12.804789514312143 0.5558640188295783 -1.698063228494398 -1.2788497431427395
Ni 4.6843691497831275 2.385245280400981 8.482927574413672 -0.157380052715787 -0.8708825201288616 0.13223337824683032
Ni 2.5141040490011433 0.26780322100307735 1.4585772349061135 0.7412390140963944 -0.4229742379456715 -0.5267061663186994
Ni 3.2494434300399955 2.8957562277824236 4.490583964924848 -0.9812622928357102 -0.1416508149059883 1.6153256429848504
Ni 5.5958038124600415 7.714148474502929 8.02264179877691 1.7687068589538895 0.1530037780249623 1.0478705768835632
Ni 3.6590421083205227 5.4064143117213455 12.223757307665394 -0.9578035475921376 0.6174018303330593 0.5058097824856643
Ni 3.4705025507070935 5.732894095458163 5.035824327485651 -1.343761099104144 0.287579174141408 -0.7644792155712576
Ni 0.3757552364241338 0.7790920511143834 7.246385970917491 1.2158062936280092 0.7162617753257664 1.0866842073166512
Ni 5.25675041357662 2.743579454310824 2.3784716032330975 2.303708946732794 -2.2121159677151447 1.2317237361892142
Ni 6.8641591566754325 2.379027761669413 4.275551125786133 0.8605849948575954 0.40913553229036637 0.5241067810226393
Ni 8.225472410960712 4.1942198833591515 10.148721867110943 -0.8413109771193318 0.5860461988399133 2.172817427225839
Ni 8.939969708406078 0.5460422654224683 5.17420338294002 -0.8691513963703675 -0.11021085122915214 -1.854707174375109
Ni 5.112916016649755 6.503681647927961 10.124179759368879 0.4251496483304355 0.39089458380230746 0.4525570938091109
Ni 6.4463751565581004 1.209164196350375 6.892231299941023 -0.05564407172686547 -0.4638707190497173 -2.1623378678507534
Ni 5.525877513382422 5.824290696960989 6.294486624668114 -0.025034574371124628 0.12874619102917828 1.210666658408599
Ni 1.1729954209653999 7.209938192463134 7.754172481041966 0.8828219518789249 0.8168528440769672 -0.23660936796176024
P 1.39199435340495 8.259691860264915 5.426068322641906 -0.111294314101318 -0.41983749208890275 -0.183968858947909
P 8.350321665252554 5.92284714544296 7.363198643419448 0.22202581372063052 -1.1901294576871955 -0.5024665770450444
P 8.416201495972926 4.799721213501339 12.432231726971212 0.24924351178600299 -0.09008451279292227 -0.9828324655363074
P 7.837316319568699 0.8448379234074043 12.439181859722712 -0.2650917916721693 2.1842079284509675 1.5175435044373542
P 8.342949332492092 2.464502476832067 6.564186512232247 -1.3786584252019611 0.5286288372627089 -0.12300491767002687
P 1.2401132123247471 3.942230223742144 10.317712732843246 -0.212049419234209 0.11659181505483146 -0.5842240580295098
P 1.7362675116989739 8.116938369269095 12.258764802062915 -0.7358808351082746 0.44103598054338883 0.36183777564566716
P 5.0633698755540655 4.231136978234851 4.889927894628792 0.889638974800758 -0.7549090553843193 -1.0164609522240302
Ni 4.744484148871258 6.110407420759887 1.1373929663801943 0.630363789810366 -2.236703427246522 -1.1848106165774432
Ni 5.883611183997241 6.705404562495249 4.026715494244842 -1.4107499064198672 0.061034646614817466 0.8002095790933316
Ni 4.786168316058234 8.278021068531528 1.6241747950959133 0.7005060551534065 2.697730249089541 0.4660510145304877
Ni 8.8224927868747 6.770397496041431 9.361094354546195 -0.9836220513171382 0.12843200222286916 0.8127809880004389
Ni 2.2602389714012108 5.25642706564853 7.204050488618218 1.1328149402364425 -0.34342430613548597 -0.44903108293372346
Ni 2.4763370110001777 6.710624321905852 0.8301302119354041 -0.5498368387988919 0.44084083381344724 -0.1750083073205115
Ni 3.7606565043510063 8.279379129829508 4.320294164372843 -0.18424396698616657 2.767224596435937 0.32367334876080384
Ni 1.7597610483028034 7.450084079399801 3.2612363909030657 -0.5820216510615525 -0.21577494771491226 0.5312349074269883
Ni 6.734921609073792 5.171589807829825 8.448636988565292 -0.9249309652338329 -0.10052550562058815 0.3151928220936185
Ni 5.0668989872263674 0.19535296038390668 9.866324568336308 -0.26004214506340373 0.45802634445379825 -0.974767943360618
Ni 8.664135448720456 5.166637965273926 3.404564517359664 1.3167030665450874 0.36448061258515296 -1.7958258266578684
Ni 3.4281439721272435 3.0867717066738023 10.650369385857815 -0.1770793309169273 0.694834715800242 -0.30166650547240953
Ni 3.937195234576164 4.497788156762702 2.9471454520682285 -1.3696698485501055 2.7357182982975403 0.10422789417283984
Ni 7.29502489011208 7.164401565675767 2.369885329965461 1.2916569222097367 -0.43894053146694084 -1.9041780274117268
Ni 0.16301631987241486 0.17990247252852157 1.332447522819035 0.26391036976955834 0.5605362274942669 0.539160332921652
Ni 0.9309556390213469 6.10716470296675 11.925202774849692 -0.3201375676934035 0.8101960008820822 -0.12423441920175378
Ni 8.670362205964256 7.816659006219835 13.462299049059624 1.068237313465373 -1.0803644357462103 -0.2716766439785385
Ni 3.9771148459269887 7.695412771698145 6.4835573967348346 -1.6565429977634243 -0.02697678569915999 -0.026198512772238752
Ni 9.127483791161849 4.757565882190574 0.941346193727728 1.3491745568102311 -0.8084980443543688 0.18573340704749947
Ni 0.3474188717087325 4.323244945179475 8.329444475312588 0.2055095612331622 0.047609117237530904 -1.1663380116945525
Ni 6.770462165627048 1.7119887015554962 10.663917664044805 -1.0162226109609789 0.2207477183391553 0.6555960820145935
Ni 7.0092961838268915 5.69569984521553 0.3506384932212903 -0.3105236987527233 0.6412195015779473 0.39368731605609614
Ni 4.082766471802487 4.661808702914644 8.629040188456742 0.1058723717547983 0.5113546235632936 -1.6341772284737146
Ni 7.329299770489668 3.0446810449486565 13.116865533629367 2.8016573241925102 0.3442396029479297 -1.4754185502428463
P 2.2792518295729294 4.408165349608259 0.6936552138518769 1.4149899126431438 0.49138537953021816 3.5314495299045436
P 0.4435363529616782 6.739642488823914 1.70669688174949 -1.724290023401411 0.3842547098882866 0.2217576476609084
P 3.906107640918324 6.86366027701495 2.933691406705996 -0.971276899488224 -2.4338299066223117 -0.8392738920846449
P 3.2659803669337646 6.950160467035262 8.43305993309234 1.0235412561095791 -1.360643219571463 0.548627648982139
P 1.5726349830607407 4.531628827065426 4.22022167603374 0.5113643937553064 0.6543969195001698 0.8847834464806698
P 3.9228663021056414 1.1584447642013294 11.485010763315692 0.6245757223736791 -0.10267211964994576 0.32575157144607125
P 5.55646622737978 3.942710626378164 0.7741466755170456 0.21471976697752052 0.12073103403418563 -1.1159053089652975
P 8.468630052884736 1.0460859784460115 3.080156008065072 -0.8648468554577426 0.28754035048367255 -0.28116144354052225
