# total energy = -381170.70636380365 ev
CRYSTAL
PRIMVEC
9.25977368729633 0.00000000000000 0.00000000000000

0.00000000000000 9.25977368729633 0.00000000000000

0.00000000000000 0.00000000000000 13.55261478362339

PRIMCOORD
 96 1
Ni 4.239068755625478 7.876168894942188 4.293346770026825 1.578521329672307 -0.5754810217295573 -0.38812242037380895
Ni 5.623191921033129 5.523038210716162 11.960101257085013 -1.3383147312775918 0.9883873339162654 0.794178028187271
Ni 6.588995558215995 7.8806598850960095 6.093851393062981 0.5268696884797572 2.1714017778252344 -0.0016043683726423982
Ni 8.931292307431772 2.4640164720445967 4.065824875038088 -0.9500825247987961 -0.1680107929567558 -0.2975578826206746
Ni 6.6537954532602015 7.516630408978139 3.859730095958511 -1.1677122663342598 0.7147314547241691 0.2081853082931124
Ni 0.7576124453799377 5.7698111748384955 4.538445567098001 -1.129262961219126 1.7803485569578756 0.16613414475933322
Ni 2.0203622034881548 2.50823189056933 7.616528549546145 0.8004993424196084 0.7828384348047357 0.5327030073320826
Ni 1.14447096711684 5.557290112940872 2.287640936055099 1.0235443414333727 0.4724995983693089 0.24723625154798712
Ni 1.3537511082849012 6.582911887017932 9.574814157380278 0.7561907503102202 0.30381569060492836 -0.6279749778632153
Ni 4.091699460165557 4.330907189327742 6.652354632501573 -0.43959950520717844 0.32824374174030563 0.6294417922167288
Ni 6.424217888551571 0.29672018245163295 0.6359010563472791 0.9049300966318737 -0.025739056637316963 0.5216313228989532
Ni 7.930634882745849 0.7764357129772315 9.530781156393752 1.5170321120185744 -1.449835045346787 -0.02408275198081659
Ni 4.3614366626002115 2.653897387702854 8.293020749065157 0.9592251105300125 0.45002841384998626 0.4073640422122404
Ni 1.8250180214572083 2.514658173387375 12.804415739799534 -1.068261481835089 -4.1049711139148854 1.031616834028862
Ni 6.561845902275782 7.731142322181064 10.618405447936729 0.7039451627419425 -0.3284275756163376 2.176645028502045
Ni 3.5181768680888252 3.934311089764533 12.824595564216487 0.6014501920998093 1.2087308748384669 -0.6384761345048552
Ni 0.7719576865063286 0.5860844008245124 11.390945574197028 -0.24345750123184523 -0.5832547521377053 0.5465316856850587
Ni 3.8808914563678454 4.08544911304426 4.24592561791188 -0.19183951994523735 -1.3236985240263137 -0.7761173140308182
Ni 8.799544249888337 2.509231946108738 11.02452337260339 1.172890725211406 0.11762411297408776 0.15892939948077792
Ni 8.206196482720202 6.161777387645187 2.9906151618440333 0.5036194597025648 -1.0821973751898912 0.5030936691060819
Ni 1.1620274976975509 0.3204557598975907 8.906615936996891 -0.18630933415562753 0.24177291444057072 0.617037505015105
Ni 7.897753427001068 5.980146930187042 5.824114190628326 1.072805906672662 -0.6634968249189089 -0.6082795563168168
Ni 6.421791827891156 6.361168090701328 7.644243977648005 0.28981449122982994 -2.6903789509307927 -0.5577275544008782
Ni 1.535696398042489 4.1371834676615755 11.561572642789637 0.06099813694992721 2.6953285816265837 -2.556332173624307
P 2.2546066940473533 5.813887696760533 7.327410641148712 0.40885888159021194 0.435757762863585 1.2490478292899587
Ni 5.833722131625449 2.7521621042231614 4.552065767958322 0.7937543103862911 0.366680191339633 0.1939190281820854
P 5.539807660548266 4.070059369465598 0.03215178559195356 1.448297782766654 0.30237381595207924 0.2390496019721367
Ni 2.472887335070083 2.1722502684224367 10.232481237347294 -1.0998917071458607 0.05019461857652 -0.7798006764196763
P 1.9265329184805902 2.059521785674772 5.132713755753333 0.4740342898462803 0.8873879739830524 1.540943114308217
P 4.789025224111541 0.2364112775612483 7.223597468339396 -0.6713798272114115 -0.4778415794075126 -0.4052467387589214
P 1.9081707876042457 5.531770177138953 0.07215956303236441 0.07794170678280125 0.47076487506638925 -0.47202471561541937
Ni 8.665555327154747 2.7818859771999978 7.475134585934184 1.7266325554916586 0.8199937036987942 0.9139047893266583
Ni 2.840213290558593 0.239298474942612 12.718613752450418 -0.2926370482802895 1.0259228689678783 -0.5560064579447134
Ni 3.9561734150288044 1.842565292264406 6.0207223317438014 -0.1345247453841683 0.8909589791637624 -0.3582102061954089
Ni 6.1064039420372485 8.436774102968238 8.617714707299662 0.5729137752230132 2.2686457844810737 -1.991213211855364
Ni 8.548224736971106 1.942709742807859 0.09624515991711483 0.20666038700815373 0.454274847831166 0.567570508633229
Ni 6.484276779557104 2.5707724008763555 1.736727006987789 -0.2736003433638127 -1.0880782594507001 -0.81728633206996
Ni 6.531047895571434 5.56937411737538 9.680605217811978 1.0083316382486764 -1.2511404501529293 1.886319144853435
Ni 6.719206493356267 3.7741355275360866 6.696089468780979 -0.6625838261863364 1.0398957862082026 -0.5496334645388341
Ni 9.048446961918668 5.17985248477613 10.382535867125993 -0.7206046256754944 -1.3007491143189922 -0.693914775089134
Ni 5.973016904582007 1.7486897083892763 10.101264690803506 -0.7513686463312286 0.6463185133674094 0.43770537350825905
Ni 4.0631237991043365 5.851936106125586 1.0089449219800875 0.19506162642696084 0.5711618255289131 0.5630304546710303
Ni 7.805479783943694 1.1370909276269527 5.8420985227453395 0.161416941789322 -0.15982928558722795 -1.9656926989867567
Ni 7.827731019695512 6.118423128057166 12.054562984623518 0.7314256275503984 0.6483715392416963 0.49173967754584347
Ni 5.0243531081717645 9.132710900887268 11.649827544142354 -0.8339015720291381 -0.3398988094807307 0.320132682597397
Ni 1.9136155344299093 8.486499086733225 1.0171898243160922 0.5389263625339751 -1.1867605412149627 0.8970743480328808
Ni 2.8742059191249374 8.878965327309622 5.681797953574467 -1.1741006863591068 0.6353206195950091 0.9225938324602241
Ni 0.730684098026686 0.9793136467383816 6.675611479656906 0.2946458511802022 -1.0329676916298016 -1.5939276369250486
Ni 5.615497049243798 5.509426343652004 5.17816905795146 0.15815189788480505 0.7740838285405572 -0.3793189631495661
Ni 1.6439987090509243 3.6690093188426216 1.2694269807884655 -0.04221622835673375 -1.8441196286672497 0.46957933939872026
Ni 0.06003944548115537 5.233661028660365 7.688289942317449 -0.688502345824311 0.9034278010547344 1.693788512378444
Ni 9.21468767579815 6.726105024623476 0.8230531167512453 -0.7281675256244169 -0.5993778829518129 -0.8657233445254251
Ni 6.139590970307959 7.472164976568554 13.307664984708506 -0.2519891928519402 -0.23575704726379398 0.11871760314858265
Ni 4.466535091973137 7.147776590859977 6.81304874204675 -0.9238454454791379 0.4048145363175093 -0.6121999744171456
Ni 1.2321239831912116 4.2834508500734465 6.126811556882623 1.1056859452301346 -1.994703741507126 -0.23258379174213492
Ni 9.016047014396564 7.931607158964718 4.749595256538344 -0.6427732192183123 0.18259331875662102 -0.15148194206379717
P 7.277506017777572 7.752486100128605 1.833235144472674 -0.7219896789484792 0.5920430398532965 -1.7903871721408005
Ni 6.982415555464233 0.5782700779568637 2.94288288133905 0.33321805502644547 -0.14870823597340196 0.10189230406112773
P 6.378067177362614 3.668055562170779 8.842294772243308 -0.8515789347042432 -1.3555244102876591 0.20042083385634515
Ni 2.576661616830645 8.32253627713795 10.610029982794192 0.6456068320123657 -0.06873998567887517 -0.05313853169619235
P 4.274691104330118 5.961831098178263 3.235863041268769 0.12027106367863158 0.3800314158355584 -0.3432610410847443
P 0.750454640454363 1.6066818217934007 2.0569753479586876 -0.30400800912139253 0.019951760531578544 -0.9525975779111658
P 8.727280977392628 8.147369141591902 11.131263559820177 -1.477913548750558 0.08939699980759443 -0.8510084069127537
Ni 4.709455990314048 3.8493897068765066 10.636512009064115 -0.7637968447922523 -0.5771344981725801 -1.2151799728979202
Ni 2.6450357844508816 4.455497441945602 9.219124959265596 -0.041667040721483084 0.5382655890215245 -0.6460850572003647
Ni 1.5541326071069377 3.798238717990512 3.8820646696719465 0.6367910334929485 -0.7155315820279613 -1.5147687699056944
Ni 6.045678347338777 4.379206167971722 2.9129858505975204 -0.5420343120353375 2.5974927070230165 -0.11880013556005993
Ni 9.194038380864086 8.585532364455116 2.4885446861032703 -0.12658209349832392 -0.4854448456760672 -0.24032384069886997
Ni 2.9773597960601266 5.950136004231302 5.255595580158038 -0.2624371276581416 1.0371552473485879 -0.1636759130268278
Ni 6.970868617893481 3.601959298834749 11.50668440931378 -0.5216102398530307 0.670169094732762 0.8112290701322868
Ni 2.950950922000956 1.3084985951267085 1.273580915186412 0.17727679163971405 0.7726404112258113 1.2990737834990982
Ni 8.348472902747956 3.9706927398972405 1.998400798647294 1.797070240587931 -1.3017829549001452 0.5516396963355854
Ni 0.5175444832583926 7.925412370484499 6.907239158221322 1.6327631217350072 -2.2914933785032083 0.28183532967909525
Ni 5.735503713972707 0.5637053801982139 4.8845388619211265 -1.3093684805568868 -1.883307611720621 0.9133412035137044
Ni 1.1681945068572308 0.5046937695770053 3.947930364647502 0.6674889767974376 -0.13901826237914766 0.46547097365730156
Ni 7.23582777719541 0.4829175602064053 11.935110054350687 1.4551104348131132 0.3442750841715555 0.08974692694784543
Ni 2.6746392803720482 7.9863416802002565 8.080190410732198 0.19961967811128847 -0.3171491744890409 -0.053349362155417794
Ni 9.168073975933542 4.314443312021568 13.162787494300941 -0.9157379858806552 0.39175718891291883 0.13757535928503403
Ni 3.2561252776699883 5.9156803869893055 11.213812588734163 -0.24214032508231847 -0.24299675954534283 -0.9153613192675267
Ni 4.650999040126269 6.859806894378161 9.231186740243674 -2.03070175686829 -0.6274466161635711 1.245395577249352
Ni 4.046187673348999 3.5878381442273732 1.503567761884318 0.20854423429442795 -1.4357633977450692 2.2399759273502067
Ni 9.120432441208987 8.927199487539012 0.2539715120513643 -1.3816846136227945 1.0763776831843204 -1.8645856098310856
Ni 5.108505929858209 1.9331721760894351 13.414865382668891 -0.7237732532114632 0.22294806842458376 -1.0268818904470378
Ni 0.966831472042813 7.175259598646661 12.209428066742241 1.329905424167974 -0.6608467888905715 0.29429463848837056
Ni 4.350065660726207 8.44569126486129 1.8103857273519135 0.02564881091635583 0.2510283716005677 -0.07586296987690161
Ni 3.5661332351128237 7.389382601362038 12.9108577623092 0.33289075359401377 -0.02754757060096546 0.04899956982715432
Ni 8.318276781321954 7.128099572144783 8.85239162928192 0.32115443899369206 1.0214625192036795 0.7571734259384637
Ni 3.8707705239181 0.5951774984143109 9.255676989230944 0.47145624470645897 -1.478433940030402 -0.13138465709328984
P 8.206372418416949 9.050974880087724 7.478075490001923 -1.5863320839659776 0.5513067384761989 1.1281157349885604
Ni 6.693482842537061 1.6236457268692774 7.695526455317885 -2.367094352967975 -0.6394464688379244 1.1284962582564306
P 3.9718409518128563 1.7484026554103727 11.517336852763172 1.4197413112852002 0.419897913013193 0.7699230122946482
Ni 7.0941902815400555 5.431764623198195 0.8503166679056686 -0.9970712348435086 0.5444256950856494 -0.9666751390501545
P 0.7706668740786118 3.131840597578058 9.350937835223622 -1.430520661288891 1.0858246875298332 -0.6066170810127295
P 4.545909870526857 1.230336846903196 3.1665684521613375 0.7214389486513317 -0.10411090897900134 -1.1922084517034113
P 7.546863569498192 4.248717439626059 4.471251094623325 0.6327544015297296 -0.08583293660541991 0.048349337837665124
Ni 2.1395354886008913 7.456534478878554 3.3174768330579405 -0.29885860370996914 0.45183178560731213 0.0639001410880706
