# total energy = -340891.21776685695 ev
CRYSTAL
PRIMVEC
9.08498213514195 0.00000000000000 0.00000000000000
0.00000000000000 9.08498213514195 0.00000000000000
0.00000000000000 0.00000000000000 13.29678967884570
PRIMCOORD
 96 1
Ni 6.18839905146517 1.9422873969590326 11.558872626685224 0.6471849751327629 -0.5562751382250678 -0.28159621708509563
Ni 4.536485850714606 0.3334996974906775 5.9495948473522455 -0.5197207361398016 0.49861712139196707 0.04267491316070715
Ni 2.647917952603602 1.7312886889012868 4.820138977204188 0.5894475112119784 0.4019385003212949 -0.24750338916644474
Ni 3.2221614978743873 4.308398291425144 4.777789333388852 0.6988371520914157 0.545356434430035 0.2873691150131309
Ni 4.980223628870235 4.365797208002489 3.1897135759928354 0.09724117844236156 0.16306836134981595 -1.159186488251436
Ni 7.320805723782319 5.8696797112678905 2.5871030827763226 -0.5636356923551971 0.3650102598363778 0.4172681886998298
Ni 4.848718513729832 4.296787684368188 11.777205640750074 0.8586358415510245 0.33065569361590796 -0.6686688560381515
Ni 5.871505792659477 7.571705672993548 12.550786411122182 -1.8939324384243188 1.4745436038370605 -0.9880268652530533
Ni 1.82331955704445 6.188408136447219 0.3562248715847849 1.062432533858138 1.1143294798377454 -0.3551655058318141
Ni 2.7265303022623173 1.2146439298128955 0.378584829400575 -0.08536576716101428 0.5235650495865564 -0.6057007398460472
Ni 0.58793007072564 0.11292360135825029 4.549921630664945 0.28009623550080154 0.6020664855275695 0.36861443224786844
Ni 8.778164033981469 2.330397830036617 1.3907245093703207 -0.9961644067585232 1.2807744709692783 -0.35742319151773927
Ni 6.808185611741057 0.9741553700283276 4.761819751945413 0.973016250776834 -0.09651175647550475 1.392568093304518
Ni 0.391929759530436 7.382447326975938 2.25173187898382 1.0806092047671647 0.24867709775957172 0.07229582135093356
Ni 7.2341077401011535 3.636454849213432 3.892608643542843 1.0429181179742941 0.8115921098986604 0.7092915146555203
Ni 7.5233644835177556 3.7573850452503175 12.585876245783204 1.0414176221693678 -0.6571593127366553 1.1759207702869812
Ni 8.323051858302124 9.131769705241902 6.963727772383256 -1.5069364183454692 -1.045043134737097 -1.4054326079720116
Ni 6.92538188015634 0.4922497652939173 0.48657346851051664 -0.7196887987294445 0.9215867313519482 -1.02902156249786
Ni 1.8390547459510598 6.595433502148107 9.325929399074244 1.1563706160691956 0.7491094179834067 -1.1124770000100388
Ni 9.245150281197152 4.990044494463794 1.4207485580415473 -0.6730183912560991 -1.4520611064638285 -0.28567887179490153
Ni 6.6362795814345485 1.9165859827460998 7.1217737540777994 0.24517448392295194 0.7957733976988489 -0.6894467120154513
Ni 3.6627104473312744 4.285049887562564 0.8681608844778553 -0.08066013415522882 0.13501428342607716 -0.27523453653312596
Ni 5.986903234629316 5.994525534567332 4.778268111942766 -0.23284655848521835 -0.38595575173979335 0.8208357399841154
Ni 5.0068335412879375 2.691080702312206 9.327883578712703 1.7610719681164508 1.0194393181260637 1.2397615188920261
P -0.08892107878823675 5.706867747991125 12.467216386760038 0.7299577847556203 -1.235756768608007 1.0181951613063176
P 3.9896880362099107 5.995906451838582 12.77583504391669 -0.14590341953475516 0.07529578451952193 -0.04486600727475499
P 2.2170808489557015 8.353968052210435 1.3097827703145755 0.39515541596119047 -0.4954202117212242 0.3482119573321164
P 6.312518076200797 8.215576520677876 5.769755810721688 1.4337882762965695 -2.4374711029193246 1.0069874655159559
P 4.662494551716153 0.6992610747309292 12.598867770111408 0.609555594815763 -0.411368278275627 -0.0334978746471294
P 4.112153594212856 6.3751499424376155 8.388731736015943 -0.5724170380922529 -0.739720777679655 -1.2045158083158545
P 4.71625947547442 0.9794791695082776 3.8249545992300584 0.6957734255644276 -0.14719514176298523 0.7697070396291001
P 0.14961057586325735 5.76702849911097 3.697132535811791 -0.2973221124607847 -0.3446905744424193 -2.331823702691139
Ni 1.3568329838413897 1.1241847635639837 2.389779089696769 0.4306752061343551 -0.46925435195913384 0.9143066527507674
Ni 1.7921762385849471 6.919785531214959 4.612177378644987 -0.264981234236234 -1.3556048858166074 0.5624432147089926
Ni 6.060927668353944 5.514456913202967 9.190156159367833 -0.22129613464345757 0.11488511677636987 -0.03546142613140344
Ni 8.730540558087444 2.503857392273282 10.411904545142026 -0.1751306918309887 0.45368657942786383 -0.09448701273599212
Ni 2.3886416499443976 5.23468489104416 7.053295701893289 -0.24185930350678989 1.1075299404174088 0.7327345761698091
Ni 0.8615224880956036 0.13225008366831456 8.763555382848773 0.7854637882427247 -0.7420363131867092 1.5236174785455758
Ni 1.53736974709321 1.168410456172169 11.293335862896951 -1.1733746068263597 -0.3563474419550573 1.0328921011968597
Ni 4.128470221970519 6.747134532380539 1.7444591873758322 0.08544907090343994 0.36619708105562737 -1.8189238461279125
Ni 5.86009505520757 7.892096649887605 7.994242737042671 -0.02117097765066031 0.4182297812821507 0.15648762280850467
Ni 5.232777044814143 2.8505493921954193 5.265634699386046 -0.5411742780278873 0.04717151547948005 -0.4874631616576766
Ni 0.6554124088777231 7.3397297413876705 6.8840143229003585 0.9187456623587273 -0.3739574417273366 0.22239990923059763
Ni 4.879961766991859 4.683544455120666 6.865398286186426 0.6456420561256752 0.5921245438235093 0.5882396069468063
Ni 8.564921335357942 7.418732745274437 9.249765452077382 -1.7110005053813564 -0.5154321360667768 -0.03376475515527088
Ni 4.7431237673894575 0.21471537421345835 10.203783050898785 0.2837505444239371 -0.5993729978558064 0.5578052017163491
Ni 8.219610252707055 7.5178044745045645 4.770808433183402 -1.1198676360471551 -1.0046205079456763 -0.012337695629746494
Ni 7.354919831371419 6.048935492050985 7.0687192759156625 0.12061173484750197 0.6471947453247757 -0.3296316232267678
Ni 2.2530301229184357 5.291048119668067 2.754762792473738 -0.21980412347896336 -0.2901754741136745 -0.6615222176910415
Ni 2.307004001263799 5.390201613736624 11.297550386068878 0.6150479853889022 -0.5285424481964898 1.1151900280658278
Ni 1.0160643922143504 3.4474963076033975 3.828943814847202 -0.39139389203622915 0.24314819752154257 -0.40220178128501055
Ni 3.7334552025366854 2.1175912105513794 2.4728303615839895 -0.7181667056579631 2.0655278634085397 -0.47232450624402533
Ni 1.4277140137775162 3.3401663296919137 8.312341572966094 -1.3664868228364337 0.4887607974231776 0.8070703107689068
Ni 3.609990296508493 2.6899450795562445 7.286308229950807 0.42688565718493576 0.4788273403595496 -0.4467145189854049
Ni 3.9315804910328453 6.92135723310921 6.1148079713842165 0.21413381256706346 0.43686153745072503 -0.21078469358917248
Ni 0.75202301647113 7.365140436175078 11.453814802783867 0.22237959751562345 0.9304251555791847 -0.10634031253015233
P 0.2144373737627988 5.53096432558363 8.187112363424239 0.9543906652558467 1.4451371256504855 -1.0614822541297269
P 8.689004020165378 1.724638482042373 8.083144737368608 0.39779953845225685 1.8596362362456103 0.8828376356082086
P 1.8659826327404314 3.3418016264604993 10.502681685762607 0.4195641838228581 -0.16389882767091127 -0.12529757035894548
P 3.8766163496442827 6.395073308068213 3.735333976824149 0.6847706466960206 -0.9430235610694856 2.5865930293913775
P 6.780912495633873 3.7891188875429203 10.504929310321208 -0.26236102300456754 0.43846513449241903 -1.227438478550299
P 6.44248782937514 7.658903330687336 10.182774938411692 0.4414044196264011 0.1895332404095639 0.3154687014628244
P 2.3515840081718444 8.633594714656478 5.799102119732157 0.07418789616732384 0.579619212267647 1.606765155009349
P 6.842063509796916 3.8312732042442312 1.6015315243068602 0.034882413699481855 -0.4828475172625361 0.3979270651690566
Ni 5.211545441768678 2.526024748469661 0.47006514763164775 0.4573781693468381 0.21694454254298123 0.2083506302263831
Ni 1.6701013348100524 1.351500099379392 6.969405886163066 -0.823628215127588 -0.6742324661688582 -0.515988265680563
Ni 7.09577980344293 0.9494169639124507 9.364809488245564 -0.7673673357523301 -0.9339470526895141 -0.3126011501070423
Ni 2.873607076632472 1.591543495043623 9.417784018565682 -0.2898594855351524 0.09097719981052073 -0.7349105007752053
Ni 6.412207584210168 1.808511036306705 2.6719495471161676 -0.8558245973544746 0.9492394600722103 -2.0370120153570337
Ni 4.275628761179103 6.780521841405823 10.627273129564713 0.6453697763008951 -0.15357122049265812 -1.0174240874682479
Ni 8.109681969929929 7.4359578712368695 0.18101735880214334 0.27821341665579186 -1.419843384080703 0.03919518214222281
Ni 7.936876526400699 3.9056428672866725 8.214689826430023 -0.5272658954769113 -1.077656549896744 0.6357577071324276
Ni 3.1738657333088343 8.045769121224385 12.286007334836688 -0.31068413558998753 0.8399333800455149 1.5288959533356958
Ni 9.151847515567312 5.097174602770228 10.301900857013905 -0.24449288447489506 -1.180894569352489 0.14722959454534643
Ni 8.658205931023687 2.754621066753794 5.903588498262712 0.6630432823212581 -0.7645596911002059 0.02271312532679959
Ni 3.5907210495853294 2.4006792511575954 11.707012343954958 -0.17702199531643062 0.23690067394993397 -0.40534778311316
Ni 1.155918605856587 3.531059972478108 12.56266048265852 -0.5139604366172568 -0.2143940082069856 0.9988373256049959
Ni 3.3911694189076806 8.60988291151199 8.068372556559055 -0.8124179482340653 -0.8107966105805585 -0.030895661137591957
Ni 5.93644524433641 8.066128565993273 3.5582740362019822 -1.1993188374959474 0.04970250943144989 -0.8949243915694136
Ni 2.9125816496170893 8.685297347489918 3.67846380620198 1.620660167823886 0.058654833528731236 -1.7716253181522648
Ni 3.537274100198732 4.455611340526014 9.360102559046654 -0.41864372889111773 0.39823379777619805 -0.28546675578409547
Ni 7.068661132030557 5.789368469966255 11.46677907216593 -0.43636968541597104 1.0018583718195069 -0.8171744890824442
Ni 0.5438642738014942 0.10167821057961184 -0.004521595565138432 0.43735647480927264 -0.4932257751730667 0.8375736215640867
Ni 4.595383789329821 0.07318043889239821 1.5037071631118808 0.49052945928782626 -0.4492236585605038 0.2142232869570762
Ni 6.1027185857733475 5.471503118081458 0.3812294676746594 -0.7120233117643867 -0.09549565650616457 0.934232702250733
Ni 7.884383500129109 8.892743827567013 11.407182498431247 0.0975877631485029 0.29417816751516435 0.05854324765153144
Ni 0.2310238254872779 5.217977609058446 5.621324465528223 -0.16094308747669703 -1.0037324489137682 1.9067097926946455
Ni 7.895022014106962 -0.0028744883198910985 2.530299232523102 1.026072507171865 -0.14417615243100332 0.6267953557328173
P 8.640708255599824 1.833785456363396 3.7659031244182373 -0.6556197361636773 -0.45475384435011357 -0.8074012117457643
P 1.929650186930687 3.1762732535514733 1.5379466434532387 -1.0066102846821954 0.21205250455800254 0.14941323246022653
P 4.946863574791094 1.0932049747813395 8.028893767070791 -0.49325508574910537 -1.261386039140337 0.8059315691787733
P 8.485100683086882 1.7222491317638289 12.562049063366711 -0.40855523430686413 0.04663852579414548 -0.9426831470109314
P 6.3210670443076795 7.513561787888291 1.3829595752141546 -0.06530190653160367 0.40974951172528146 1.1118349955506657
P 1.7947745434505884 3.4590069798578287 6.093147557186099 -0.5256340163004432 -1.3012864748797008 -0.9471039017864463
P 6.930469470103049 4.080410666938206 6.180055403952567 -0.8993292055053285 0.6028815252296973 -0.7775581602424029
P 2.457087904691741 8.563658522853313 10.292858574381832 0.1491270686783754 -0.10440118652591053 -0.9991594848311051
