# total energy = -340889.9993057145 ev
CRYSTAL
PRIMVEC
9.07016469718104 0.00000000000000 0.00000000000000

0.00000000000000 9.07016469718104 0.00000000000000

0.00000000000000 0.00000000000000 13.27510286062367

PRIMCOORD
 96 1
Ni 6.681944878087172 1.7625506573132868 11.290262386109795 0.46612557652216496 0.22386955179758866 0.9346394507708484
Ni 4.4976587793816964 0.3251644923407072 6.032060331469036 1.0179002557737178 -0.9800888413528992 -0.14448159948656408
Ni 3.0343419209580094 1.7286010313776141 4.922673992277583 -0.9750566782456305 0.08255555140572879 -0.6073202777273411
Ni 3.5382621233983236 4.266215390388761 5.219106924352079 0.3102696737603882 1.1160775728771035 -1.6676437356622764
Ni 4.898560052787181 4.5738844423160785 2.403510162007646 0.6049957433592226 0.5069297550227204 1.0223125259088006
Ni 7.129076780238082 6.015623379259411 2.671932611898186 0.5446460386265716 -0.478494382500163 -1.035347504715888
Ni 5.197231501474266 4.747623444399383 11.5066601861361 -0.5746389854442362 -1.1024795224776949 0.6998925899391236
Ni 5.2819921892564885 8.008801110755531 12.581292375795703 1.954904093011685 0.014542673700865276 -0.01649851187565546
Ni 1.9960983244833728 6.173553084520413 0.278293509977581 -1.257800635781924 0.8017836084486708 0.899210163428961
Ni 2.7740100578520326 1.5162231282828313 0.1347699470819621 0.4040594033190396 0.5992254165343487 1.9417202473315591
Ni 0.627343373661863 9.030010938192714 4.878918611439679 -0.3004002371654762 -1.046674756803249 0.39793914935391467
Ni 8.579042356434329 2.254371260234983 1.6258551142959403 1.2511468779108323 1.2346468233732801 -0.7525580386536395
Ni 6.719268605237932 0.4340191652513085 4.820442353526273 0.6867485963579979 1.3707455981127878 -0.38955838148938715
Ni 0.9418821682244136 7.25916108031006 2.4787671313673734 0.5323196558507348 2.0570167406137347 -1.369656478813667
Ni 7.921001917846819 3.7205270801649117 3.7164582043447827 -0.26192110725367146 -0.03768440192465123 -0.8446048173792551
Ni 7.556635267275662 3.8977943762607667 12.607112413239218 0.46716353086837603 -1.198894605474335 0.380738469204912
Ni 7.714673814511345 8.89960918236125 7.134265821380961 0.5924402752917152 -0.4882571183138817 -0.6293975692423547
Ni 7.360248064294315 0.6223275726620161 0.16873589931383667 -0.908999638715557 -0.3231562999150693 0.7420586817842123
Ni 1.7904504834896502 6.417749124880047 9.302116781909723 -0.4512828550823776 0.5045887655943697 -0.21715177345778083
Ni -0.04764194635044446 4.90679576220465 1.3785398443452617 0.38370192270861014 -0.9522851888770696 0.8017314150544966
Ni 6.206069624456129 2.06990225348112 7.083262472045809 1.751620335785248 1.270745111757734 -1.843808268074418
Ni 3.418028022034905 4.125065489557627 0.6328244741034678 -0.34566065166517246 0.1799905910264513 -1.3655841085165061
Ni 5.91911682837628 5.617869452955097 4.805241664745726 0.37469303434178053 -0.32029106255213224 -0.19575119629481774
Ni 5.13718701210901 2.684387761867426 9.735097413319291 1.3606938703037406 -0.16087238213976163 -1.030325111800632
P 9.085311731494823 5.469853437554552 12.549286486124528 1.0561037634266326 0.456502194499788 -1.1338757774007893
P 4.041420432015876 5.983496856399632 12.863853398197204 0.7486054817637945 0.8752076298667766 -0.8870354757396401
P 2.495048076746624 8.63291006373648 1.4310960058525182 1.0639988499039934 -0.6906147641816235 -0.49427812769698093
P 6.18048269024172 7.760496285851718 5.886870579344354 -0.02796460353372603 -0.517644056116431 0.3984909080923266
P 4.8887007839140635 1.5274882726622343 12.572318354983318 -0.4424346606631283 -1.7706321010010602 -1.2494496927140675
P 3.688971977672204 6.039069754638442 8.434615405148863 2.2177777939866123 1.6295818957935482 -0.32820157564846053
P 4.823459090257827 1.2359550434812598 3.707590304457712 -0.5337826135495065 -1.2955909671568202 0.4113795911295367
P 0.20692764121267088 5.712961058167384 3.535412277694613 -0.5310806412373111 -2.312339368714282 1.2869132368771643
Ni 1.234540097810417 0.7856776082620931 2.624833061388231 0.7753755507687873 0.8783281777736294 -0.1823943153719375
Ni 1.8795648502590818 6.579969017976362 4.798710239248456 -0.19195727647002425 -0.10434899313173643 0.048158047762465454
Ni 5.630467911524333 5.493971005110778 9.34818142664376 1.082980790323135 0.46971586497658463 -0.2810876528797933
Ni 8.599432086357755 2.5331971888720415 9.933029265324642 -0.18873311310577176 -0.6232927418961975 2.1001120291413122
Ni 2.2318137609825066 5.486624171819863 7.0395216034711945 -1.2503814604997174 -1.0206032565271779 -0.660417671772953
Ni 0.8069643774601775 0.364594311701529 9.181379286413408 -1.2756777731726612 -1.1747354917296284 -0.4171432330861912
Ni 1.5970020138246692 1.257496684303387 11.551171111681578 -0.2654000669412075 0.24356651600588375 -2.5008631940227253
Ni 4.085583063242376 6.913551530042128 1.5049987996439333 0.4592144512246285 1.3711708585756643 0.44866701472608533
Ni 5.362707583646429 7.857782870886724 8.439486990532258 1.060630961873025 -0.3761264243541974 -0.5045944220213245
Ni 5.6522725871186035 3.0690625108810003 4.426821701210441 -0.5075018254761067 0.19401570166094972 0.4517919335083122
Ni 0.7712288361232936 7.536136695377555 6.910341598805517 -0.4590835820737191 -0.18534028537413888 0.5345269479146987
Ni 5.100090039072168 4.629765726149816 7.182334972482025 -0.22432129462302658 0.15971949948224107 -0.4745451680444279
Ni 8.194449238901763 7.4036941525208375 9.325428011836859 0.2167663650939041 -0.48651468170147827 -0.6701408125979877
Ni 4.486883423888354 0.32110650071804636 10.653535020197586 0.5454600498874348 1.1861151943214798 -0.41490277379144674
Ni 8.023957355729753 7.141457554857956 4.624515007887951 0.21007661177855433 0.6243139840718602 1.171085296571551
Ni 7.065449575872935 6.133018519116587 6.989872429704355 1.0045665147792893 0.3432276167436476 0.6394624096775245
Ni 2.35277347551046 5.3854918370128235 2.564603540666019 0.2623543381363482 -1.3169177536590546 0.7620580077242747
Ni 2.613930723591096 5.15032061038709 11.55127723260689 -0.3196277179365205 -0.0030858380141753306 -1.909732638681369
Ni 1.3024121391880918 3.296297343519634 3.7964933363929725 -0.8853634873538558 0.23953836868309714 0.3230452282585017
Ni 3.3422558673283573 2.7051040177148953 2.7738721913507702 0.9779028894451739 -0.1838415893414253 -0.7981493541301931
Ni 1.0500529507274408 3.3126689905444504 8.191561298506914 -0.23341117273943673 1.3519701172774974 -0.29596148466783223
Ni 3.6862872089634253 2.8238687524201307 7.020537749054053 -0.05036559693674552 -0.9234479529304033 1.1532973764605106
Ni 4.1323579018612016 6.82251428838668 5.923802475386265 -0.27910944610749994 0.4596808493380858 0.6545745827286146
Ni 1.0407560320568385 7.098827781441536 11.421845077366537 -0.8613596682400907 0.2996615592272388 0.4275757412734249
P -0.0040008495859538236 5.562214923235277 8.085240829573452 0.4813639907384742 1.3876842828496552 -0.5834316440352018
P 8.52991834519532 1.6590237990632823 8.073399729744699 -0.753059146659774 -0.3944182806848498 -2.2928833168721994
P 1.6132103978874655 3.370064991859154 10.311077352113102 2.6018689817138414 -1.7289452627852353 0.4845755556972364
P 4.126308102101892 6.2111035657850895 3.6830310198875753 -1.1544736561567988 -0.4028193602643514 0.48046873261771444
P 7.003609193925456 4.043878446610738 10.462812134981888 -0.6888859544159749 -0.4297791766826469 -0.8453272973675764
P 6.375708912159812 8.06027429461472 10.44076165792813 0.15588598466876377 -0.5034788203596425 0.5663767454354439
P 2.4525997066213368 8.717425857075673 5.899801005936364 0.14259389554554797 -1.1502948421887609 -0.06487381785524955
P 6.884762827739209 4.055352204774945 1.5266637947040316 1.2462077887380023 -0.22317329706151243 1.7488643703066653
Ni 5.345628463786192 2.869945188368091 0.7525905549757613 0.532483949342741 0.03818062483477941 0.12818234810590828
Ni 1.5234066986117258 1.4008687754509095 6.881348817800074 -0.427455927866109 -1.241734840568313 0.5496519764815954
Ni 6.688293993276853 0.7657377585006764 9.064744226346084 0.49644453922068044 -0.18072104143457265 1.306473161286963
Ni 2.8209572295974343 1.6024078319004535 9.13816902246536 0.652064157601935 0.0753448925899025 0.31069030623757454
Ni 6.560431883521262 1.5714604304330437 2.459770578719852 0.44957230014917415 0.22035562510705922 1.089769016889562
Ni 4.063669545673425 7.015681582950403 10.597633782001823 0.03798162145009588 -0.7808887672775326 -0.6604045591468304
Ni 8.36090489884605 7.084741815885004 0.3187537000320422 -1.0136905885677445 1.3412223918426902 0.9245177889558143
Ni 7.400809840191812 4.002300812282893 8.189782639237349 0.7961073839994998 -0.42569215109746683 0.5110028966508295
Ni 3.0347772888567306 8.293531716518991 12.419642089033548 -1.273920424161922 0.10441044249729114 1.0045004374280442
Ni 9.243404699717845 4.837236670219433 10.229342471226989 -1.2684786843210607 1.3863197984019608 0.3940881510389406
Ni 8.502118290829081 2.2806475269556996 5.755354100288875 -0.1409545601699121 0.39511376408997756 1.0884243299362093
Ni 3.53953194643626 2.8927022312408144 11.430168767380207 -0.29330862042601746 -0.2953045678101237 0.45322069553503885
Ni 1.1716657171034752 3.5799939505236322 12.57401810382124 -0.5157036445606087 -0.12686285796353636 0.45420337116328224
Ni 3.116463190854237 8.235274049571403 8.030932312273842 -1.1104106043993134 0.621372127834717 0.018346877938303887
Ni 5.7251241488378986 7.758591551294814 3.392439273787585 -0.31813313566886503 0.7346554473416057 0.03950834250726744
Ni 3.272678635014026 8.347100108390775 3.7141879421562445 -0.15570960699189956 0.7385208438342828 -0.2904670372121642
Ni 3.5135549951459133 4.136285283114246 9.315484390433367 -1.643113097510764 0.36977091444981475 -0.3368291694164715
Ni 7.2819634740055665 6.111875965534954 11.398733391059649 0.039892979540195814 0.8644336791797241 -0.6070264006360062
Ni 0.7790046881977399 8.888507300943868 13.395507442802495 -0.02985513568821955 0.3590908090281493 0.4948707669756574
Ni 4.585013534227131 0.6828128720247268 1.539235042779597 -0.28340730215190546 -1.609780287686589 -0.1715604579812271
Ni 6.1755031699001 5.717786385711541 0.3147709907752017 -0.5626625298086503 0.9321799334867624 0.29911288581262035
Ni 8.454001067855865 8.851337766590573 11.378037089574205 -0.8823915492097255 0.5072717117431715 -0.7464120736569017
Ni -0.15701180460786546 4.84301436504204 5.652472130738851 1.2487598657358945 0.47318042648641734 0.6883876746233176
Ni 8.099466475664157 8.59224851602886 2.629545918891885 -0.9601525074402883 0.5983173028977825 -0.5535189156361693
P 8.63805284704012 1.4031363165900808 3.829415312684373 -1.8214288719379534 1.2583799053241618 -1.7051301626435085
P 1.690751234682567 3.2406065331415865 1.468120417572907 -0.7694463297685459 -0.4700742767572679 1.1374750647162732
P 4.745809411488045 1.069118436625593 8.034543144783859 -1.9221680362312443 -0.8684412576772205 2.2777996830661995
P 8.913876551208917 1.8519915500067592 12.521050156843112 -2.1557679279427195 -1.3278207737248033 0.33469772489576555
P 6.306412854946737 8.020138816451388 1.249280022231486 0.8367367274850879 -0.6206571040455633 0.639395303885015
P 1.7554487184654022 3.3970759419089624 6.061584624117502 -0.391687512017248 0.3519950785236325 -1.0057785328095192
P 6.920390434117869 3.9927227185110334 5.998102542385262 -0.557963067450452 -0.05684477690318597 -0.515076552499571
P 2.3578890483204304 8.59424395223133 10.333618525069376 0.5943385207556925 -0.5908472197729824 -0.3648048286937911
