# total energy = -381161.37430664734 ev
CRYSTAL
PRIMVEC
9.31390404761404 0.00000000000000 0.00000000000000

0.00000000000000 9.31390404761404 0.00000000000000

0.00000000000000 0.00000000000000 13.63184003754060

PRIMCOORD
 96 1
Ni 0.8660766582454404 2.8543111112345523 1.0581908327201321 2.376930108111474 -0.26930325865035554 1.872626220747375
Ni 4.602428459366597 7.437580869850931 5.026196194035389 0.3192279113949405 1.3380162262005666 0.8519478880078876
Ni 5.849029326897657 8.410827965715418 0.1665214287666469 0.5157080154359828 1.0377275749122905 -1.0660001966047383
Ni 6.2142554486858375 8.847799090847756 3.708269448845035 -0.3354312606276804 1.115976014302233 0.19744349639557607
Ni 1.2303667326707641 8.462082380021908 12.372912478189201 0.838166260842763 0.8238778692445489 -0.24709561220506476
Ni 8.579130212947522 5.930525987842921 2.627918975471078 -0.04010278155815673 -0.2800183310750145 0.46565789285712705
Ni 6.133755375480135 2.992855434841499 0.23987960030231287 1.562873081612089 2.179287865441531 -0.01910612470183161
Ni 5.775486740060653 4.417510207205769 8.954278436781987 1.2634200388512307 -0.14164130182429155 0.14143432801980804
Ni 0.11421174912471799 6.198142394578945 11.409196300398461 -0.19599879352924954 0.3585336509730987 -0.5661674576381153
Ni 1.4353098786638565 6.8707832353567655 3.5658440213962725 -1.9399127618091754 -0.23654380483114743 0.2646544470244345
Ni 2.385272214258269 0.8512694134944944 6.614032429153167 0.7620963171613778 0.4785949126337693 -0.17173580721682682
Ni 3.2271001231584537 5.194569226938713 10.940096863045476 0.828210949402264 0.13510890002241246 0.820083178088807
Ni 3.6345089166519022 8.689304384641408 10.959821849165461 0.5795703613075824 -1.3794850348683148 -2.6600833852710446
Ni 0.975808419494196 7.009737370744465 5.836881201769554 1.0245362730329968 1.0659901693024094 -0.2925666000536703
Ni 2.2017044781931054 6.484535631996761 12.817214577244966 -0.1712205581433051 -1.3437423300510665 -0.6103883751297037
Ni 6.172137974309327 6.695244084632724 3.4217281203519025 0.0038993350544061878 -2.545360247993836 -0.888982829273998
Ni 1.7454908271735798 4.806831398921424 5.120200496807326 -0.1613817176760124 -0.16590428813671426 0.9842290887735178
Ni 6.9288181718539 0.9805398827810752 7.234717518645162 0.411084428486621 -0.6171496051129371 -0.8210463133330248
Ni 7.161181451541033 2.5576632653937965 8.876509200260758 -0.0287737296985827 -1.098174724454754 0.79192471337672
Ni 4.04154515398103 0.7357695514316358 4.4070646637486135 0.1183170252760543 -0.7262893347650975 -1.1156471702079045
Ni 8.620353552529663 4.103314966025485 8.034033975025066 -0.5138020566625215 -0.08215394509193594 -0.2814306380415088
Ni 8.58197095370047 2.448848923699682 13.361534035564814 -2.3871386732133595 -2.1393928290188056 0.38537391109439434
Ni 3.99823549987869 7.173848361127954 0.43672151250224067 0.020590679667158086 0.14390747215064895 0.9009978514570032
Ni 3.373263220325769 2.945065792863197 3.935729889409701 0.22133778651467043 1.8968753231027264 -0.49206055122037196
P 4.461974785417504 0.29825263151856934 8.698258772050869 -0.21382373752581238 -1.2961789784498063 0.15468425105117875
Ni 6.4752310417928385 8.333978942920064 8.707038058063098 -3.3227163195277614 1.5106616897158565 -0.05290481841883147
P 0.04760708945778459 2.107941405537568 9.364542873274958 -0.6028118483340262 0.8362631302827791 0.39037033586772124
Ni 9.215810069964236 1.8924362922859694 7.103265733016481 0.5629885456895014 0.2575854559927951 0.14277978630410895
P 6.192982491703098 5.931075508185294 1.202354234675453 -0.14149911981947244 -0.12938562438539006 0.26562503846782
P 2.675977789278102 8.505503800973544 5.160374159396491 -1.0322997190284997 -0.3783671407592581 0.10532755499492183
P 4.985900519302408 7.110178512645461 12.120695680505392 -0.38198494001750344 0.07130106153783204 -0.18399816952394762
Ni 8.106654485355374 6.975359750681727 4.973045468852505 -0.5606745528443441 0.037754335930638205 -1.834337095359189
Ni 6.046847336248107 7.023512634920241 7.029517308898688 0.20473694473319579 -1.4716919933208783 -0.9595467555354895
Ni 8.866585235433652 4.845074289188995 6.052182340521186 -0.32600611065903856 0.7358672082615197 -1.8617782222892774
Ni 5.3256624272592346 2.6012709644275933 5.104688189515401 1.1207217565173342 -0.08617952131156126 -0.087360686103856
Ni 9.23452170331727 6.318962358668312 0.30800335772926596 0.37819873350219385 0.8906051953687694 -0.2106260565241211
Ni 7.950823555723925 4.570863638344483 13.14729654466232 -0.04085945721852318 -0.41097412816100193 -0.22616631825156533
Ni 8.501806181042657 7.797162765749646 7.0423993696705045 0.04545273301616043 0.7078825501231357 1.6599435388045414
Ni 2.2872992569459014 2.12182843656264 8.813502501750756 -0.05761045142461691 0.9056582330471499 -1.7565445125597428
Ni 1.6324386591103117 5.217881928921112 1.4441711270322364 0.8439669266849401 -0.7456266016411287 0.504677211543118
Ni 7.4126475485537355 1.160503137956431 2.476919167900463 -0.480345833886605 0.7156660507232965 -0.6095558519260792
Ni 4.565023820468748 2.1535515939545906 9.584110711498479 0.273946928069954 1.3284409238073058 3.3101778207411185
Ni 3.995385445221633 9.216489984964124 1.8779084646582642 -1.8767847230004386 -2.1936135380355832 1.8980891409051697
Ni 7.40406944287024 1.3318137762154272 4.827688955780946 1.3963684408872143 0.6692838639143313 0.6371443030673092
Ni 1.5738448883666947 1.7239663947799226 12.71455393199503 1.4432159973683727 -1.1954902077784766 1.0022250111303062
Ni 9.050516213759028 0.15718796545999006 1.1034610636372122 1.1954925217713217 0.49775065962661375 -1.1650429470322128
Ni 4.710618769485474 2.331437848513856 12.14245296050175 -0.5480072417893207 -0.413379652278701 -0.45401465219124393
Ni 4.776505327145677 9.316325723098096 6.4336556366354145 -0.16022677813596276 -0.20364833965470733 1.4836131702384965
Ni 4.070110897880358 7.502144853127795 8.462673812932769 -0.4191656628328587 0.318071172082678 -0.5196608294361438
Ni 8.33347599209823 8.409877947496401 12.671654089673442 -0.0939545372712898 1.0137186135922025 1.4866041345460204
Ni 5.028511630596645 1.1916208915813593 0.7059287340599184 1.58510926730247 2.0934181620609045 -0.8029112942952108
Ni 9.297809681731334 8.73709402661971 3.2800384913276743 -0.7417522062873871 -0.41669149026075336 -0.35542698702331693
Ni 5.036633354978848 4.396227936318921 2.414335320636966 -0.642572416061416 0.8938918365398411 -0.9027516009233163
Ni 4.276656035380031 5.2821944367870595 5.1821575183243525 0.32821134584047346 -1.3883157457860669 -1.8596771167858746
Ni 2.167000871486586 6.117055545414437 7.589458978578934 -0.725108684193435 0.35101163156444065 -0.48062479857960455
Ni 0.40371489912420394 3.4391032084654327 11.710364183902845 -0.9581308490245691 0.9710442146521275 -1.8416356859031315
P 6.762378705443404 8.61941284821475 5.865917297826337 0.8523631211684352 0.365100505557339 -1.6090642354561706
Ni 1.1559393249434964 4.435998306860209 9.337265242313771 0.7076676058988522 0.17451131307943493 1.7187490389785236
P 9.224658278866865 2.325244102282016 3.445747747656101 -0.01437220956127202 -1.0370261779698913 -0.14873343278438256
Ni 2.132884040738872 1.0678763616020728 3.052482117550696 -1.6622601027528598 -0.0855377739625043 -0.5153912555265123
P 7.009402070196575 3.589355109536173 5.879562167344601 1.406137090238204 -0.3500868057573261 0.32882198284127884
P 9.460225541567159 7.347459533701633 9.115720993638524 0.025326394579930574 0.09231571611628617 0.47203345736616764
P 6.833043295911028 0.9461156931977964 12.847505256185103 -0.2160109749851183 -0.47461715893294393 0.8622670105457085
Ni 1.7319949801210446 8.592765768561678 8.178667729137842 -0.2636884835667394 -0.4186331873681564 -0.34953607546017873
Ni 0.44028314943315133 0.2550379792381317 5.33847370235983 -0.01666023426450034 -0.826267709632964 0.5728548969606199
Ni 8.278747491559445 9.34193895939518 9.051937515525914 3.0003786588592454 1.2402644266703737 1.0411330010494135
Ni 8.209712834310727 3.4800378170202246 1.9425646555857976 -0.6124915375156355 0.8376831505587573 0.029508036761445956
Ni 5.221505037619135 6.402815437352905 10.143124716329563 0.14154000035973688 -0.08923630586001405 0.23152912522537547
Ni 7.427186552866369 7.78872436862777 1.6808057631433115 0.5208144834246128 -0.09144514058587477 0.3039272764821282
Ni 7.118887012986469 6.587826828554814 12.82663465985983 -1.6342795583795338 -1.4621143769347722 0.37744077229024675
Ni 9.03292224889896 1.0276030402389509 11.58456966362938 -0.4798686371398703 -0.7542017449046494 -0.1537293433370772
Ni 3.3407390671805275 2.999878118538953 1.6045491046492266 -0.4207312075477657 -0.3722168048871461 -1.496094590534959
Ni 1.4915565455722497 2.3582898340573064 4.999259451964555 -1.418893361462608 0.42974420967965343 0.6410559794168895
Ni 7.257636242483792 2.295719026259561 11.306466732258123 -1.1720507458086136 2.801588418627788 -0.5440611126573791
Ni 3.541621350982519 7.186776060029899 3.0754660387180817 1.6625537227338787 0.11545153080280116 -1.0859038775072007
Ni 2.2183204831218313 4.043547643364256 12.942110305772008 -0.6267781293416367 0.2039044215295714 1.319706372147785
Ni 3.5504323042687154 3.3084663894462034 6.3557094359361335 -2.742151455517394 0.6921322292674146 -0.0323385642317056
Ni 2.2140360872321376 6.873391128507014 9.838671818846278 -1.077406895779783 0.38594983820252243 0.7185852812526206
Ni 6.176338545062048 0.3929610654410725 10.615086316414947 -2.359106192556176 2.9852006655672265 -0.49823454124156774
Ni 1.2807176982787742 0.5639634134740926 10.135831929412976 1.435320910891012 -1.6650212104377646 0.5476933100933277
Ni 7.039141366013515 7.894418552445695 10.945590203688392 1.0281800404331711 -3.112921500655684 -0.6334226312413479
Ni 2.673314012703205 3.0333150342867814 11.020184330299193 0.3866214103482503 -1.403053566216874 -1.276483299793092
Ni 6.7972313346156525 4.1924117727229 3.7248593748422585 1.2799956838217246 0.1852335845929455 1.422560783011866
Ni 3.5691532515258557 4.595480286902006 8.504360053549078 -0.9491178468926814 -1.106970725479829 1.6715932072283277
Ni 5.853667651143456 4.3867836375533775 11.576704071610148 0.004077769613799429 0.45519170321848057 -0.10332235163943496
Ni 1.8046061765472465 7.611452831739635 1.2719430692185991 -1.0795483676028181 -0.13215084583535305 0.4879115620490048
Ni 4.137813666841628 4.963733427525297 13.503428570479418 1.7933182297446664 -0.5362027929552249 0.10739035106122151
Ni 7.477695854844217 6.387037683793902 8.950925431303096 1.1307948244826203 -1.5527275085376548 0.037909887671896
P 4.966043275744089 5.254560083298534 7.113053714843609 -0.21136422024172632 -0.6283773555079565 0.6636300080626636
Ni 3.518057173589203 0.30900925937293316 12.816969621566928 -0.7804470517544236 0.3527108736437345 2.458785291016069
P 1.9772952726142308 0.31771217137147645 1.004123619373018 0.21778477905608945 2.015267424591091 -1.3792652055480246
Ni 8.081832930907474 4.407888944262174 10.15747930534086 -0.51602631800735 0.14603557423724525 1.9932258714100188
P 2.837601967264747 5.173994812764074 3.3574677703489604 0.599903930658612 -1.29724598626174 -1.2563163379269138
P 5.228937533097343 2.05029765301297 2.835368493059641 0.13573624919376623 0.02032868425502305 -0.37768014199456246
P 1.5956021683630528 3.9710016442668103 7.297724217155164 -0.25283868533642906 -0.5996177668767609 -1.1334919116988091
Ni 4.916884489861906 2.09001214012961 7.478032086782517 1.0532961187745085 0.47198846306084524 -0.7360024482878034
