# total energy = -340874.0009991129 ev
CRYSTAL
PRIMVEC
9.25121014775556 0.00000000000000 0.00000000000000

0.00000000000000 9.25121014775556 0.00000000000000

0.00000000000000 0.00000000000000 13.54008117789322

PRIMCOORD
 96 1
Ni 8.690910811543073 2.1397864555698796 12.155594557950362 1.040552188845279 -0.7785176959421948 -0.07167181461368947
Ni 8.567101863195521 5.152184077838879 1.6825176295276827 0.9236952930545188 -0.740690340681776 1.4992166811037084
Ni 5.024073316670466 4.594789401989798 6.96136187874936 0.7206102821024493 0.8415737438624151 1.3186010548987486
Ni 7.394446190648975 8.44753922040663 0.6616437901167374 0.47143593299148484 0.7009043190330897 0.27262435260378853
Ni 6.845109319029941 6.173184658831859 8.01276286213081 -1.7344600219558772 1.1334363758705253 1.3583135429970221
Ni 0.2810175414846965 3.9917585053980984 -0.14139919974021506 1.3033878374934198 0.9402619391639483 -0.4781732517153184
Ni 5.225000354641059 7.966596547034136 1.4197721536397316 -0.07269408523061675 -0.22876647487857374 0.016501597199449002
Ni 3.0167456911417005 7.605725333020742 2.794442806496084 0.2563011899637328 1.0519835706106722 0.4534274122292062
Ni 8.198061830427672 6.533880099848272 10.69260259971599 -0.04385556373236963 -0.5224232226726293 0.2406925368921984
Ni 2.2982781915849904 7.141536601623695 0.49641994831723457 -1.1486488219449056 0.7562460290281879 -0.3481242827143166
Ni 5.273994764747061 4.65531082021364 9.435392714653045 -0.4340778040580008 -1.0067262414347695 -1.5393937675432263
Ni 0.929580120141863 7.274707774863103 7.367320716730582 -0.735447861335914 1.340642350969504 0.7189773744847165
Ni 0.35629371512358027 7.845572213007187 4.349994974698843 0.7464426697845209 -0.742396010518973 0.24469214496989472
Ni 0.3360391151450907 3.5231106906039416 7.971573698211822 0.6467735986269572 1.8461554281503558 1.3435140160903443
Ni 2.522832820834044 2.2789709155481277 0.42202819038947875 0.5097913928412316 0.37178743065921127 0.5309158335246728
Ni 6.382844839389322 4.422772396417479 2.397055214920301 -0.10576412831170819 -1.5311479825946663 1.955116209022491
Ni 5.3941494849994704 0.4006606698037852 13.101884214257908 -0.01841244106891668 -0.8416182239471053 -0.35524598136076235
Ni 5.350178482122992 1.8804287729184879 9.286762768889634 -0.4512298903572552 1.8574297155125947 1.0365721211516083
Ni 6.686562075752625 7.186201445277731 12.366508277512615 -1.1314705103934064 0.44505384345353033 -0.6296935032162188
Ni 2.4474632099704494 3.476049783464736 9.479735616186295 -1.2626841891264704 -0.9329350664852321 -1.0243364983173648
Ni 8.62296067139417 8.589813584647606 12.154633357193184 -0.7021772722082423 0.9423615020054544 -1.2903299758681972
Ni 5.7574260137083995 5.796466121459028 5.00847577599095 0.7981382983865996 0.4453657182669942 0.1627472305649713
Ni 7.312286191375673 0.9516257544474904 7.629186402512589 -1.1956059074207346 0.04564813685641816 0.024222105772158282
Ni 4.1867740199438925 7.104827798885664 12.61094745832546 0.568200428907744 -0.3480792884089941 0.3466965491288545
P 6.267482246107252 8.632720698331827 3.219005828526243 -1.1707651942279709 1.6430601327856413 0.9329620630684254
P 8.641056038872899 1.1861809421037552 0.7971666210315498 0.05281740091134775 -0.8438674249925983 -0.49068269703623885
P 7.926233516200962 4.707487646686045 4.128709723193644 0.16054045272163966 -0.28517802089908306 -0.10565254243450836
P 1.3841383415463975 3.5423809617993345 1.7298532976148016 3.5147826107718245 1.3253694839708337 -0.6572253900879005
P 6.739145955481197 3.107786852367752 8.149937959217247 -0.26916544752091065 0.6649903787452999 -0.21108165600430098
P 7.574289720192155 5.015441937397638 12.499404689804107 -0.39780056689352133 0.17887858890919514 -0.6896976516839929
P 2.833812257335793 0.7085742551897618 8.217840918193275 0.14881802207838885 0.09609318088084741 -0.879265344875918
P 8.723197535725465 0.003946566342753118 6.043642735419601 1.931490856294067 0.46723243643309853 0.5619778450367998
Ni 1.1999559943408844 0.8911579932437799 10.580558415592723 0.09695218644703303 0.21179333735934494 -0.5215811863873082
Ni 1.1973101481757946 3.8044307466676535 3.9401506283632926 -0.4279243828620953 0.631651655383854 0.45665543224820065
Ni 3.3036534782673512 4.75143089593142 13.329844214043222 -0.5928161705738951 -0.3595785472978453 -0.3691016562969321
Ni 7.85857016357345 7.234353995240295 6.071006890565475 -0.09234914045738289 -0.07775710157582093 -0.2561500090978492
Ni 8.939083780860221 2.7944206035912016 2.293107690110624 -3.1952585082927034 -1.7479791394882345 1.054132755743191
Ni 7.498670326648639 1.3474295388083657 10.12794017300224 1.425807829194254 -0.46061184579278736 -1.170344047530152
Ni 2.3899576863263956 8.09466105215071 9.288238336943241 -0.2135180333599355 -0.06596473692658317 -0.9899701050223529
Ni 6.7547712497918155 0.28763030665534794 5.295918283075839 0.016998591440525564 -0.8429284581180967 -0.6777114258563941
Ni 7.475523798309285 8.329734307587554 9.287927496274895 0.08324563549421791 0.26964084449543235 -0.31903610709910857
Ni 4.05112352232601 0.6370438966286575 1.6756254778039343 -0.7544210600043072 1.3416759344403408 0.6706120958074515
Ni 3.2976679451596125 7.0767966314722965 6.413124050921978 0.29501660425605963 -0.7461395367218053 0.5932833400183007
Ni 3.410930513688273 3.0168197008246405 2.7934945574334202 -0.23039064074555807 -0.4390330911807472 -0.3547086208000536
Ni 1.7276542849104592 7.947890599671156 11.681745712687626 0.7007806489710318 -1.4705843620789962 0.5403975477628629
Ni 3.3682916851047073 4.6118393826970046 5.46022718017 -1.6100929338310013 0.8496917449838592 -0.5000317423513065
Ni 1.3027739463646963 0.2896146912791655 1.9267264552023788 1.051115309073106 0.14784100287710022 0.04592890132163058
Ni 5.920312074648049 2.4915637297920714 6.177080343517591 0.28817952672956826 0.9164563521039184 -0.6724609760907321
Ni 4.2247687409229995 5.349484641345433 3.1969083874425577 -0.5876839915536524 0.6323155142200981 0.28118458346897374
Ni 8.914022251974805 2.3588551170710366 6.229276597531768 -2.3315046287888235 -1.3642286229298763 -1.7970761541252016
Ni 3.4496930851278775 1.7056456554463015 11.811094285803204 1.4148549297271762 -2.292034595718659 0.3710256127925223
Ni 1.9658544494514982 5.610544546704435 2.2663790931169947 -0.9923154653260782 -1.0847767058812932 0.3619758438854282
Ni 1.121477976793827 0.5382474457515751 12.975853125180098 0.7157066741532448 0.9490417422391076 1.0732046847729775
Ni 1.7884347370245894 9.076880559283351 6.028260747941647 0.5346866134210145 1.0137672074419508 0.15648428037439505
Ni 5.4414879284497 4.88672984755534 11.690329910787579 0.14192386606171686 -0.02941779104048482 1.2801391513781244
Ni 0.3933226097403258 1.1811945397157009 4.242297009206203 0.8926193975853207 0.15712628483376812 0.07302730020031939
P 4.309065769791181 6.464921577769317 8.519013146584493 -0.786054113528556 -0.03880951666802994 -1.0286613509449638
P 8.825210632447309 5.617112906065324 8.062820236308031 1.7271426623588575 0.33477922886597833 0.11189595224105889
P -0.0105528556661474 2.715406015842832 10.104516108351865 1.5132469339445294 0.8032349961832167 -0.34030787199369134
P 2.1363635077339236 6.3743799819031075 4.512069704489266 0.649822669865926 0.09248746580746008 0.03711695945695543
P 5.108296335855709 3.6352168578366704 4.336441026389496 -0.03337009082001349 -0.44038909098800927 -0.01348286497778323
P 6.209551166786295 -0.15536482691091386 11.074744196606218 -0.2651319008814853 -0.48610947584325964 -0.09567049152113201
P 0.2910837834855161 8.12891828414137 10.079168717066093 -0.20858537194500854 0.46980662491817793 -0.9497076579578804
P 2.74223452590843 0.5298473467379328 3.709074820926225 0.2308498397701637 0.10038178095387228 0.28601902874313967
Ni 6.725861217393542 1.3604182381642618 2.249833303374815 -0.9088345738926024 -0.5537749975110334 -3.8731365416339494
Ni 5.101737227705189 9.095577255435963 8.520096463318522 -0.31961923329608827 -2.630360661395631 0.3269736167786304
Ni 4.623542163811826 0.5984598735491441 6.409265371077716 -1.1045364050067235 -0.6170992114909759 -0.11030932448022937
Ni 1.8576152881523622 3.159528871952886 11.803755300618707 -1.6340211625118246 1.871926623577189 -0.5834573550668144
Ni 7.2665759609501155 2.375627561467219 4.018100401798368 1.054320703384281 2.4781541824609836 2.6210162440662534
Ni 0.3112319945447801 1.1259278089805693 8.194457558868516 1.2240839602557694 -1.1898579491933636 0.7547730440270872
Ni 5.050726053739083 1.3914653001574158 3.8533714997535244 -1.224795127390181 -0.30875632243965534 0.9053733548168795
Ni 8.41463266512962 9.086076262388593 2.7453734615861047 -0.1380281305517365 -0.6299557557386699 -0.05283334175094773
Ni 0.5246907220791175 5.611987735521757 5.910231955831677 0.24731698418725148 -1.6743663990980906 -1.1873004728788326
Ni 3.238460198807948 5.96879766818384 10.474282361133557 0.1981999149456264 -0.24175980181444817 1.308726476097514
Ni 7.232142955962476 6.878978000185167 2.7306954912171126 1.1301494775891374 -0.8856203405596684 1.9569072394846425
Ni 6.494923252990949 6.000372049167939 0.841227360648592 -0.760786854321335 -0.6236071878128228 -2.805679815088342
Ni 3.1741735379645553 2.259802407666776 5.269352507384676 0.3109934393002902 -1.4729649464960308 -0.8517954215904233
Ni 3.9522835907602 8.693260618976405 10.925477767569525 1.0893424708751045 0.8542297420635286 -0.04729775664469919
Ni 0.8035666083637498 5.099156140012671 10.001367888117933 -1.1438532003284752 -0.5133076335246064 0.9863998711725914
Ni 5.6109423487502355 6.957687297991409 10.143091805342046 -0.03608774686149269 0.43811675001406486 0.5049664606487626
Ni 3.792718714342465 2.646299474397999 7.625503495665308 -0.569151994187736 -0.4054855942426049 -0.13017212484242743
Ni 7.478844982831199 4.604336651089004 6.464996512573293 0.5378372432348544 -1.3451656927611544 -0.7871609734394895
Ni 7.364472269058445 3.279276538949127 0.3000278536687644 -0.5148040155644746 -0.1529680396910204 0.9733823758670009
Ni 7.520937990003086 4.291183180150905 10.154885248318468 0.5294898997114235 -1.0451956011545611 -0.0655451328906613
Ni 8.963303449602199 6.59078429481844 13.33956631101837 0.734849822740599 -0.07505358660172881 -0.9757290217223066
Ni 4.456567067889765 8.118085116801089 4.666846154420811 0.7579943791778623 0.3708440929093355 -0.596265048354444
Ni 6.4252338852929665 2.2119088915945 11.890994214383738 -2.489141791820739 0.9737834679601617 0.5006151256586024
Ni 2.2562591940960437 5.561032068817856 8.361298512240248 0.9895823826656313 0.33093902918428164 -1.9587828592408008
P 0.15120455760867269 7.139103533297056 1.855126712563519 0.6376623803543082 1.2225454121240558 0.743355546218765
P 1.6248455840970146 5.685951162409499 12.118508305829339 -0.06905905958119075 -0.4943832858162776 0.47684964780788847
P 4.30537453685457 6.062734458254902 1.194710558062542 -0.6179229929438519 -0.42954546340528604 -0.45677421721425204
P 3.2518189465785423 -0.045281899385545436 -0.21780587128600096 -0.8686173782437686 -0.926576728367372 -0.5144515173210624
P 5.416833452820452 2.3594749481656563 0.6012065579072393 -0.9408350380585989 -0.08177753558912368 0.2745197698542885
P 5.756667414458269 7.696710986984589 6.6017506795880125 -0.8050234555422071 0.5504515895647553 -0.49617534471969393
P 1.4966608132456618 3.2219837931435245 6.018458165436299 0.5429984757208197 1.1181329127442354 0.6498830907902162
P 4.066758067846996 3.311322731661965 10.667173797778986 1.7832436191174836 0.8209815215333602 0.9248456046088782
