# total energy = -381162.01338558964 ev
CRYSTAL
PRIMVEC
9.30539617376520 0.00000000000000 0.00000000000000

0.00000000000000 9.30539617376520 0.00000000000000

0.00000000000000 0.00000000000000 13.61938790417587

PRIMCOORD
 96 1
Ni 3.08558556399948 0.18012548085109165 3.6354367607567717 0.5405770107635207 -0.1988267498963479 1.0888542183847763
Ni 8.731271674658961 6.553622903470485 4.630019817853068 0.6086932468154679 -0.49393977052095583 1.0116069665658385
Ni 6.788025828631744 8.318642499969574 5.986701888296528 1.875173926869893 0.7903123745842776 -0.5225438074108936
Ni 3.878935710504975 2.263081611835778 4.761719087396828 -0.35012305831190027 4.388653781215365 -1.4411508873092276
Ni 3.295291968185035 9.090673984246232 8.187526678754818 -1.519366673689022 -0.7343834246271417 0.46319014804292485
Ni 7.635477547463065 5.845119357664488 2.395228470926987 0.5397192907489156 -1.5475624193969475 3.078230119921086
Ni 2.3910680283767842 7.227287046664185 9.406039437817892 1.3887469197862146 -1.5277543835320848 0.461770899097895
Ni 2.790883672778477 4.440618718272293 1.784943379867996 0.18048347150246982 -1.7955820860781784 -2.163770229421906
Ni 5.706115352263183 0.7730606610739109 12.320656030627205 0.24439852498887585 -0.3526867052740184 -0.25424507876565244
Ni 3.8354981219915665 6.357232520956457 11.582621810625128 -0.02397322298614581 -1.5419751551171572 -0.919046738538914
Ni 7.329227659809941 -0.2929366576003958 0.38279700566300956 2.306434830304389 3.3499934100761593 0.49599382483650706
Ni 4.01642293635879 2.37890587580887 8.27045450679976 1.50647747643118 0.03192204551957728 0.926226801227121
Ni 2.0115939796242586 2.835242495495576 3.1797180193642585 -1.6032437721196517 -0.7320601758106038 1.3510339786164731
Ni 0.5789026430595331 8.186487266021969 1.0856921893016906 -0.29662534350407627 -0.17772467781041004 -0.3219697358061358
Ni 7.718574733715151 4.383185814179585 7.11528543936661 -0.5201477963748913 -2.286283552167495 -1.4971268884542153
Ni 2.0017023436795816 5.127496523781554 3.9164318036743793 0.8109297937243132 -0.2705026782750954 -0.07316973931545463
Ni 3.033680065128916 5.353896808385501 7.441565191903005 -0.5209548656572189 -0.671246901177973 0.031651822577326134
Ni 7.689178987761025 5.115185484877689 9.36749648759884 2.2343475254198357 -1.64914027754145 3.0093399818175914
Ni 1.9669839112152443 2.262067323672119 7.752536637484942 -1.560695614344796 -0.5476174625500697 -1.0371578184517494
Ni 0.5411553041982133 4.146596120959062 5.175503061729428 -1.6023474855576274 -0.47006450656525495 1.116322084787742
Ni 5.281742767825739 4.176820047156909 3.7286209962694694 -0.3203453128288354 -0.3223926822761673 -0.8393008886678385
Ni 7.525143467128129 0.7558856916824803 3.2741957049205213 -0.1357280216636501 -1.2992589029267108 -0.3770088269591507
Ni 5.485847323621176 9.15122419599789 7.760068425004811 1.1215380817710427 -1.4933262837612022 -1.2745408313547404
Ni 7.092377415501505 3.57891113277376 5.01435872763276 0.5817750822683851 -1.3008337036129984 -0.47671260800939186
P 4.379733512264745 8.086891612667424 1.959694063991293 -0.987174287444771 -0.5230302601290089 1.6987193740211581
Ni 5.6514275399895535 3.8859240628986274 9.033440215627857 -0.08100183376536371 0.15247541632531805 -0.5876549380879299
P 7.902542412573351 1.864187201637776 13.071765262544488 -0.7499617386813728 -0.3655689605533252 -0.6500576686948676
Ni 2.988065013952239 1.0785419230176925 12.905050718404091 1.8479294893316431 0.11556543067284615 -0.3792855388084694
P 2.5779762123699976 3.7165193287755347 5.786701012135712 0.45481657926724894 0.7122567679314314 0.7663941732057833
P 8.477718244536137 3.929063878740136 2.632096395487818 0.7590251344352218 -1.0117409210405413 0.37264643622539695
P 0.5471256462698078 6.276098773259712 13.292835416321427 0.392789229721859 0.45666803065369094 0.025893065716677988
Ni 6.813271367971263 7.963101929721009 2.2805394652655133 -1.9197357726406679 -0.17886496206244035 0.6313096986634031
Ni 4.912830343529666 8.548755637576273 10.206886941878068 -2.1301358291969117 1.6788725144985603 0.7347665189981732
Ni 5.589974704826197 5.855643760536953 1.240783363302392 -0.4326109897044872 -2.8082812572669313 0.5395688812139805
Ni 1.6439843107677472 7.353812516033683 3.720953349968045 -0.0643606256642569 1.9277959239409832 -0.20288112247137963
Ni 1.6009840758661922 4.9046136788644255 11.714144277644946 2.785273226407532 1.1187939433670022 0.210007963324148
Ni 7.454124684879986 3.910434475954394 13.473238197973226 -0.24354337607743218 0.13263035657493286 0.6761911325571258
Ni 7.9117268384222665 1.522055707020706 10.816122384268612 -2.0088046996848825 -0.9147555673627278 1.6178358110012137
Ni 3.7502141676802156 0.8172250010146751 6.262248621857964 0.7154706468830387 -1.6827242841444827 0.9849698235942844
Ni 2.728584046579405 9.387748751446436 1.4053297501755169 0.07140441988491573 -0.6736951056081495 -0.8363801154766176
Ni 6.899625442822256 3.6068366261603795 10.972990888904716 -0.21516173961094556 0.0823668324336904 1.6951126305065065
Ni 3.5443508920413698 8.35178832051044 12.171578934059283 1.5939991135929321 2.2293315602624832 0.5894732222435912
Ni 4.845859408540163 4.025290978743811 6.767691677299375 0.1249144759879139 0.8645493788219821 -1.3484991280097613
Ni 0.3923917994753865 1.376435565065623 9.62755904222148 0.692739009613478 0.11485940574475703 -1.1585817647879015
Ni 0.9421713446835027 5.890390109189281 1.9485527133642357 -0.973449995880143 0.11806300028371926 -0.04235815325123673
Ni 6.039434636871213 2.0858138180953265 6.933153715138592 0.7600777440694523 -0.5018417989768519 -0.12251512251780189
Ni 9.070592939684976 2.076750362394371 6.615263707632979 -1.0453377831593804 -0.06489824333528178 0.2443059652750696
Ni 9.278224240563228 3.3942548546117903 11.595696822540335 -1.0292907569988468 -1.0846736046445253 0.27292722855618806
Ni 5.484209573925726 7.707101180451005 0.2051188439590958 -1.8001403948728225 1.8829857096048281 -1.8008065677019114
Ni 3.050988101683102 6.808274370320942 0.47137507015725416 -0.4710800923139629 0.0622363802324025 -0.3207302069720799
Ni 1.521162389005006 3.339529820754174 9.805604767067269 0.712653746259534 -0.3628780439847234 0.37421660892599423
Ni 1.7183437301787683 6.479905556383248 5.991958506495162 -1.1022686920184694 0.7400457651192416 -0.04435487196629135
Ni 5.4391342357168675 0.7192038206628026 1.831970990156998 0.1231679256104524 -1.1002367491901053 -0.39355670401550286
Ni 5.349607020830942 0.8470441424866582 4.198094974024562 2.0368592918292534 -0.8247749271375214 0.1226516480956662
Ni 3.324529522407213 4.80041185449143 9.705066477098242 0.9332698241168313 0.431660709976076 0.4298591379909629
Ni 0.8844332236020982 5.519597994901838 9.348606533725185 0.6363117798636848 0.6379765691606174 -1.263594873866198
P 8.896126070139584 6.759867700345203 7.4657126945148935 -0.23924989090840088 -1.1358976929268243 -0.2282447980471488
Ni 9.303181312626846 9.188808690429266 5.287835941124492 -1.3340508137949154 -0.7361993947899579 -0.05560473384849779
P 5.5887556979506074 1.13719383398599 9.260012650057746 0.5670393187201073 2.296949259411457 2.2859891608555274
Ni 4.636813687470386 6.893446659880331 8.332014354017081 -1.2619097728542914 -0.46512953115748285 1.5779340897102696
P 5.5240366687923474 5.306523037365415 10.699540661061375 -1.2441110541099736 -0.9772680840746523 -2.303646983146607
P 7.312543084787546 1.195520056094397 5.449062162705933 0.2748630121263202 0.012946018637706736 -0.23843999341259584
P 8.69201220894815 7.996005809965955 3.1060099776730192 1.799934192399287 0.5236948902962013 -0.18984382967144725
Ni 0.5796721993084746 0.9896474750595543 12.661441034443527 -0.6575220953927127 -0.44741385904527464 -0.5848290386033606
Ni 8.873374376927227 1.9129288658694026 1.5012925769328809 -2.009402738280197 0.9537702580630283 -0.44796047557736396
Ni 9.052503249867053 2.1549994373320853 4.159552023805509 -0.789627432702111 2.3978090084430126 0.024299495977312992
Ni 8.085086365844031 8.950413750385348 8.292531558802345 -1.027297894938534 0.3947162715412428 -0.08508757379896313
Ni 8.630001050024982 8.53453699249305 10.928428278015286 -0.21549675435286111 0.13623967119274602 -0.6217742483691421
Ni 6.602978723837906 5.853494214061675 5.356954561510075 -0.21296833150405256 -0.4943542323505551 -0.5626645866911794
Ni 1.4578856962262623 7.876961878977944 11.793340641895142 -0.9303369667407526 -0.8244383697337092 0.27143933115675184
Ni 4.2387753737040965 2.7053484727752104 11.057457829447541 0.6741645890454003 1.0053964668797524 0.8912603124542651
Ni 3.012752229531946 1.1236265666225476 10.05577940790363 0.015901758831921 0.21614004436381487 0.8880312639940061
Ni 7.69925673162564 6.502843357515544 0.3914603293360993 2.7423648570797803 0.9284955426566397 -1.481162908925791
Ni 0.515692018592367 4.164983583448885 7.647694601867361 1.2331057041384053 -0.276444240570511 -0.503047646359495
Ni 1.6428118308721413 2.1160098281051827 0.8813568596855317 2.046832086771249 -0.7926492502475704 1.0659662580430094
Ni 4.129297389800873 5.667470042688165 4.862475123632181 -1.0944031732274635 0.3992601821581833 2.71908660327813
Ni 0.9024884834548331 8.337355651319289 7.678188384549117 1.562567120335896 0.9128704345248729 -0.46576253675579143
Ni 5.1761172178652215 7.690518964784576 4.245544118752223 -0.43957687949935903 0.5381547744752733 -1.0095050897314872
Ni 6.586740807823361 2.8405186550258037 2.3543154363475303 0.12592389108903473 0.021657173258459474 -0.2740873103025602
Ni 0.7394542234312 0.552278044033277 2.965540372402206 1.1902847523181372 -1.4502960441436055 -0.31181799208411454
Ni 1.0222535826326011 4.13085139093235 0.32043689438995776 -1.4719807282058905 1.4103647551663065 -0.6223612312208636
Ni 5.205726987927275 2.48059524326271 0.2680037795663713 0.43436293939858744 0.561398318384246 -0.6785609183408831
Ni 6.267928635574457 6.033507099621204 12.418838194329822 -0.4191237538513298 -1.326272198290761 -0.23642476275477992
Ni 3.839694855586157 5.986384574293034 2.6531386874555487 0.8750662191929058 2.9692539124299833 1.2313198158825762
Ni 7.891133997081185 2.4662277118435365 8.700146986128619 -1.0965017076277053 0.7277808317089595 -0.311210954627735
Ni 3.9299758075478297 2.4114840671939266 2.184876272259249 0.6646504789073779 -0.08136204531825987 0.07219529121732728
Ni 4.340799735413825 4.578171081898086 13.059698955555342 -0.4368862200410734 -0.5028185610678243 0.2666838187496375
Ni 6.844379306788813 6.146874739051122 7.867470375061132 -2.182473462258364 3.129331566582591 -3.975702988943966
P 2.0893126469901513 8.798959125140223 5.682621088450275 0.5340127272824416 -1.7197867362144188 0.03324436387542662
Ni 6.599349619399125 7.50096804832825 9.558454379929891 2.424273630392444 -0.5512548021923409 1.7869573205236449
P 5.1784342614684435 7.036414763976304 6.3995730032818345 -1.1145541942540418 -0.5902674360101124 -1.285621000428302
Ni 9.101626435334552 6.031320331561939 11.102442905315229 -2.609461449349119 1.2929203623031926 2.1388181874622583
P 7.065159132210648 7.980335523107219 12.294602782915156 0.3172041960966924 0.38276218450316013 -2.686393226810167
P 1.5320683131133426 9.02837435804716 9.794750022636915 -0.892399825375347 -1.5429125793297622 0.6758131803924168
P 2.1716747069584836 2.9063264155156974 12.423087968681596 -0.2397466280391613 0.9558222554960507 -0.8154513357437505
Ni 1.7326740400139544 1.5439978307813351 5.353549717114818 -0.43585649322497844 1.2381427523416804 -0.6258998405017415
