# total energy = -340871.3593190557 ev
CRYSTAL
PRIMVEC
9.19875750243531 0.00000000000000 0.00000000000000
0.00000000000000 9.19875750243531 0.00000000000000
0.00000000000000 0.00000000000000 13.46331142947254
PRIMCOORD
 96 1
Ni 7.981458119157585 2.297996744713665 8.782817976861455 -0.2328894959080118 0.056748360534637755 1.6923548652557114
Ni 0.9380892658032294 7.231906582241422 3.2351394583944075 -1.4917208869472955 -0.7953681918406302 0.7483781962443369
Ni 3.1941488761494012 8.333200199426107 2.6683074363957036 0.9114653266472302 0.23202894767992943 1.6169652354708026
Ni -0.012876420418428717 1.9276455784996638 4.548498465920806 -1.0803472093550297 0.5099407739349024 0.8031452646828877
Ni 4.682820559244124 0.006818118884225864 10.832391243146652 0.6091647871352477 1.2634899728572175 -0.16390448409786612
Ni 8.42943759792418 6.822451498897302 1.215401441419921 1.028945457844286 -0.31461920897833556 0.630765653234475
Ni 5.398934613504916 0.49189526582161663 8.515745857831273 -0.26920041452390414 3.204169437629088 1.4391847647217924
Ni 6.30018285646502 1.992873966260114 3.4083318204133333 0.9550313841636392 -1.1877159631496965 -1.5601022037351713
Ni 8.64872677234547 4.674762447880683 9.039455945526855 1.539227674279007 -0.8617347921913224 -0.15029846327865726
Ni 2.3699310265197173 1.859767948647124 5.252563068041222 0.3341202551257407 1.4281179653846694 -1.0950099535735272
Ni 1.9855701529923382 4.2615450728155055 8.414232972042182 0.30845961713484293 0.1109562140356089 -0.9857522102862635
Ni 6.337106668123523 4.591191738135417 8.950772566494146 -1.4023668245624945 -0.3956166718683251 0.5194638829339893
Ni 0.04130058036481015 6.473073499245681 10.31124024972197 1.695707326667712 0.14674211338596663 -0.2625302015925801
Ni 7.8960292604449505 2.6040761939226926 13.102803674452158 1.683220507054611 -0.2535110288131054 0.9476065524544777
Ni 0.5538038220854166 7.682010973936047 7.862506229347022 -0.9774138656238974 -0.8514493511049143 -0.1952554876053218
Ni 8.660915125720537 1.2316860014047362 6.807453845053749 0.5348498784717562 -0.24599466583140217 -0.10425900452109142
Ni 0.8768053051576686 7.24276111581318 12.293214608499733 1.0794923175539022 2.300454187240922 1.2286795500462517
Ni 6.014717822285068 7.236671538504278 1.3774715860307012 0.47107417877669194 -0.6882051262988663 0.02906066481138221
Ni 2.5696912392691087 6.5983053806405145 6.912333476001538 0.4728901489395081 -0.10564251513217936 -0.191430971652909
Ni 7.382462642384602 1.224041834118185 11.20365584595699 2.5847279511581807 -0.9736752245170714 -1.533748396331991
Ni 0.9080728009744147 0.3031395263873891 9.38847887314808 0.0014480453004362159 -0.5712353590793259 -0.3735941448506469
Ni 3.682547694334895 2.6044441442132604 11.492834418444499 1.1451708906986342 1.8506854548102258 -0.41297213242763714
Ni 3.7732934347462392 8.1080054228412 5.129992387122922 0.06752591076611597 -0.5090036068326137 -0.08396168772463604
Ni 0.7133562668329848 1.1280895970953033 -0.028273300327248535 0.4707072823555764 1.0246319180705965 0.4201521951158441
P 7.5589683967700925 7.606047636448275 3.1015964998113685 0.33557832772850593 0.9599643026888823 0.875264194136325
P 1.17331988656338 1.904961443086144 7.925204958859817 -0.2806515937836392 1.733965855928278 0.5128587189126458
P 5.432583667577364 7.249191047140856 10.182409814485382 0.25983517125892025 -0.38100483549242126 -0.174113563420384
P 1.6904188274131815 6.005307493603789 0.6370148604216533 -0.8638829488825768 1.659783359077593 0.6689848446166737
P 8.016735353265798 3.4357082419073226 10.813772038568183 -0.5113124574714484 -0.15709054649982623 -0.007000856797865363
P 4.328153274165586 0.42385389808977386 6.4028676639295705 -0.5311477470298207 1.263857126388649 0.7667435861254022
P 3.748318808773933 0.42526130795119665 12.966756814141801 0.49899918732173415 -0.46921964206645644 -0.6077748487662564
P 2.132511101530687 7.263844667462728 10.23659969352879 -1.1682779090297426 0.05551963033385922 -0.2689412473252465
Ni 5.8738756498128835 2.6714478921257014 7.648197262108569 0.03611962854069263 0.34701613725180236 -1.037071686495846
Ni 1.0004200450254561 2.943298765554637 10.108644060108027 -0.2823744900120169 -0.19160503533692805 0.7510320889274162
Ni 1.2527419567824924 4.219285981943766 5.295658325948278 -1.3041612253243346 0.12293241256087861 -0.44673097404563705
Ni 8.957354277316682 8.834008141161009 4.89070971378789 -1.1296640533122866 -0.2306876031606866 0.25835550138960023
Ni 0.2104813643408177 5.049354241193481 12.421237392848525 -1.0416829600156126 -1.007285456372349 -0.45322532352072914
Ni 1.663503263658129 0.1889452338338701 6.558504197709769 1.1291801716973326 0.21696819669206505 1.7353413961195663
Ni 7.8453717041909945 8.946748110191058 13.255087261209555 0.41387433252693245 0.3063047755753693 0.45558148245773156
Ni 2.3282238610838295 5.273693533352818 10.946654526379653 -1.4655249452782177 -0.508802289455085 -0.8589024649488499
Ni 4.860816512306416 2.2609165541816703 5.2262288657452665 -1.20798551203201 -0.5755530126180733 0.3911902606658553
Ni 4.688201832243681 5.0522518497317055 11.183797568775033 1.1752299148675438 2.1709729178179322 1.1268109001342077
Ni 7.118044364825141 4.388340742945253 1.161436931929485 -0.8365942883699526 1.3244215182352677 -0.686938600881617
Ni 7.472132128196034 7.9637045176376775 10.791059387007145 -0.005939248302570417 0.5587472539146442 1.3915625348581389
Ni 1.4056345012707792 2.939600865134428 3.0828696697729074 1.8489044516504032 -0.41779526484789337 0.030964566702314414
Ni 3.695904289882515 7.330084918522241 0.6033989218753569 -0.22627353325339097 -0.6858998752044574 0.4423274456613028
Ni 7.695827507346877 9.083092090361047 8.819868731370205 0.4204872098577597 1.0339292842121224 0.07926196825612156
Ni 6.227144723787263 3.848171318876836 12.388292963582517 -0.8215332802717722 -0.5998136849376507 0.3384260815899462
Ni 8.3464096148575 3.176873610007232 2.6127846574247116 -1.176172224176155 -0.9854549907608189 0.7771771227539003
Ni 3.167150523578971 4.481726526691423 2.0408629630317248 -0.07530066961552838 0.6419751487970492 -0.7827826418661358
Ni 5.864097370841039 4.378038134809349 5.303803825505727 0.8930541711298942 0.5326934942503858 0.7871236924436509
Ni 8.129098173248014 3.750636895604512 6.92773495528899 1.260460184891958 -2.3005233499159607 -1.4061329764731463
Ni 5.800681138261636 2.4161639805295922 10.221265365169367 -1.1431628591296699 1.0947109342758694 -1.428577164409275
Ni 7.536532627802706 6.6669005135596615 8.85220788240823 -1.2453459549583392 1.7576845397014567 -0.09400313112103811
Ni 8.915233167803905 6.444998892075338 5.33206332769708 -0.036507608007730674 -0.38950773075710987 -0.12156355723780998
Ni 5.161772253719284 2.7591304463680664 1.1874077833135042 1.5184562460596107 0.8712152208779318 -0.4350689643266765
P 3.586273500807766 1.2811753154861383 9.51495258677358 -0.5824060309841647 0.8910363693689171 0.6813626494557362
P 1.484302273394227 3.3645834507405197 12.675962939878698 0.5080103896814089 -2.2822749452287336 -2.3723417174098436
P 5.015042876598011 5.75917634548556 6.750301966171268 -0.40056347435063916 0.5853705129291272 0.4979573763207811
P 5.152453912610647 5.275082545699712 0.1434527797837635 0.805161009561336 0.3725477058640036 0.6234428943208166
P 1.6279132718029348 7.827783680301842 5.277779621329576 0.03927720033306784 -1.9470876822910594 -1.4139876966308744
P 7.644544435598956 8.244542576913737 6.913410650477176 0.8981711806414855 -1.7692264789027854 -0.8617126807041353
P 3.7891796885415143 4.084956529614637 9.715785374619978 -0.8613887217058134 -2.691425647027752 -1.9656070812514859
P 4.706774123160104 6.605140057287815 2.9530834836565676 -0.4581101624168562 0.4768056819438304 0.847619692946179
Ni 3.6890604144779493 7.391201461785593 11.806273793340614 -1.87985487728533 -1.2152457931388492 -1.0479615939354725
Ni 4.880078710017652 0.3660857024705909 1.3901815089426477 1.0851703417752858 -0.6747631418613476 -0.7556616172796277
Ni 2.120341145670149 1.0802100655351365 11.324583628827902 0.23540609168227844 -1.2334510032929662 0.49025280858767184
Ni 3.1301255255905613 4.842658165466882 13.080159093694874 0.6511539870828398 0.0011371989282367512 0.17220040555807117
Ni 5.351698994953243 4.094964777518087 3.1063356995538847 -0.02901669894732422 1.4689416842692506 -0.6911986617095515
Ni 7.025081723913124 5.557024455847476 11.204625394972636 0.5074822850920808 0.16180852080078584 -1.9479207197153163
Ni 5.723963502678198 1.5841271872253375 12.479008348094887 -2.0141934748006216 -1.428736829915591 2.593501840696069
Ni 8.742498903896736 0.4585957645252086 2.6354292381819957 -0.36001614905589613 -0.12696081699398135 -0.9295255265830507
Ni 0.6687064189482791 3.9355503141294825 1.053478476925368 -0.03448337848885029 0.9866279280229976 0.4496797722613159
Ni 1.3499084297642487 8.349675173686292 1.3584209597365406 -0.8982909940488012 -1.787543274934102 -2.6739192627128725
Ni 3.7312827103206327 1.7575237616555286 2.9216596089663307 -0.7296016869677822 -0.2372583143996688 0.10315882947837718
Ni 5.730522216607574 7.997528348098145 12.550242604473135 0.9683404425677193 -0.08317698703981158 0.9471530098568268
Ni 6.280285944502553 6.974249391271149 5.2458580938713455 0.20287212361031512 -0.11831368284194464 -0.1748645826537956
Ni 5.398152719137459 7.862628572818635 7.503843923988641 0.1096539502844176 -3.1625347928074374 -1.5761939670907112
Ni 4.144536880414868 5.9691379800409505 8.82810805825175 0.13550639257114727 0.7372602319543045 -0.3770288815638087
Ni 2.8625612730467442 6.104516090698199 4.013076520476443 -0.049163349098528236 -0.6293266067951033 0.14460012734229938
Ni 3.4381367138250716 4.546568566646777 5.856271068160656 0.9311342658310674 -0.7839054426166693 1.304368199128818
Ni 3.358742239877752 2.137552020511469 7.523998401154506 0.14076327009471243 0.14794307567260329 -0.18756223272612216
Ni 5.767896767372022 8.77808889575193 3.8626244062903488 -0.1687571842044771 0.368023849851721 -1.205620097123627
Ni 3.0640692496763333 2.4710529651250805 0.37913505952558657 -1.0011073525860954 -1.4084585392825293 0.8111727629730545
Ni 7.409470193712297 5.474336826799573 3.5060612573396592 0.15401576422924443 -0.09760833197379318 -0.1885971017485397
Ni 7.222671029948164 5.614838645252981 6.960948908142841 -0.895882898827941 1.8895985869356555 -0.8980503387929049
Ni 3.2969541873341126 8.37485217231841 8.871716606814148 -0.5327552007262567 0.04755152452671811 -0.46778728049530405
Ni 6.4640955121558195 0.6772060706604008 6.25582184955841 -0.5551585081221214 -0.374468062815168 -0.895415215162903
P 7.923349569519627 6.694230021391603 12.643718536040494 -0.37455702298454846 1.642003923606985 0.41548564287811024
P 1.7680931337520955 1.0132063176226955 2.0249491129646566 0.7350143733429213 1.326418494060638 0.46356835731795004
P 0.6443370712039574 5.500608477546131 7.048271790976176 -0.2298458239856816 -0.8142945964314879 0.9690179282507182
P 7.1112280856923675 2.536796483292326 5.276944374169987 1.245486080080629 0.2651874367097691 1.2044116786378227
P 0.14492366107030924 0.2981510403230128 11.451704015089078 -1.1516217885303004 -0.7787436959100716 0.6087762934475774
P 3.417752267727602 3.6181563934854872 3.96723359377457 -0.5888654134562633 -0.20609860096741284 1.1842609147215604
P 0.4105009820450595 4.967595686629262 3.188502678940635 -0.13618439247477837 0.28700916057055087 0.8489075585196669
P 7.0875320869797855 1.4244091648470139 1.3386261539797062 -0.2967680397295276 0.06901792193061018 -0.2730583548174136
