# total energy = -381175.282477466 ev
CRYSTAL
PRIMVEC
9.16818058254300 0.00000000000000 0.00000000000000
0.00000000000000 9.16818058254300 0.00000000000000
0.00000000000000 0.00000000000000 13.41855901644969
PRIMCOORD
 96 1
Ni 0.7742730002796337 1.179798119740923 13.056646754946984 0.09661871436701425 0.7442649454069118 0.6123850938447583
Ni 0.9878530960014064 8.679754706955372 4.160518407718185 1.0146539809222783 0.22390811834500793 -0.8967622161091007
Ni 2.6445157801177346 9.467338071462414 11.365626314981219 -2.3796904444654308 -1.0379684872785027 -0.7356481502721782
Ni 6.965314150293839 7.283541690129462 9.647406634380754 1.401488278612283 1.1958864147756307 0.8426682624781745
Ni 4.85080170784126 7.925717714337082 6.074487906902066 -0.053188153987205174 0.227457269148847 0.4874636758783089
Ni 2.927510002880806 6.752502348085123 7.978312814532271 0.047343265170653945 0.6246654538740081 -0.5676628112367191
Ni 3.3000681794512587 -0.026892106593081312 7.399221205654555 -0.2387210149881243 0.4226335667768012 -1.0022399235286417
Ni 0.7478062972546415 2.821580847154479 1.4377311215261588 0.3542504502167125 -0.8833418289381368 -0.7508611105671906
Ni 8.67071488113348 9.038743976612638 2.39447474797498 -0.14449291234047373 0.18946716305831884 -0.4695975942311654
Ni 5.766702924481388 1.5040858267857478 7.326694481385536 -1.7052299214461664 0.5570531540416729 -1.0576621090526883
Ni 9.116407632329942 4.634102597165524 4.615675471486595 -0.2594615899695854 0.42557722278615734 -0.7679764300912386
Ni 1.5491199286489739 0.8971706241917217 8.704847099746388 -0.46891136679741824 -0.022599225456754624 0.32328022708744325
Ni 8.25301258453564 0.6866462829795201 9.652572904006147 -1.5632831725663143 0.04883887587957395 -1.741753470293497
Ni 6.188842620367055 8.441767081514488 3.207853704705632 0.9572751858924934 -0.39327311133681303 0.9092269242350147
Ni 2.7968542647593 3.833133689352229 5.195625222044765 -0.06974785811809922 0.600156155878734 -1.3593203869949815
Ni 0.06408283016966468 7.070693215199361 6.016049925371894 -0.10888776154235441 -0.21289891171869785 0.24284660712072373
Ni 6.218575029231559 3.899777192292741 1.765868547498583 -0.22778405636064641 -1.8171623833521156 0.5911871196109044
Ni 4.311327639877913 0.6987574492175743 2.4887933201101844 0.31386407597986593 -1.6343584912465852 0.03358812036809054
Ni 3.3661890961120053 2.2640271275473447 12.101714760934682 0.7476595729107576 0.1759902116178066 -0.005964702223867147
Ni 1.6598257063359565 4.325153255840809 2.8927460966420067 1.0371961278888526 -0.19471581305176788 0.6978454776021078
Ni 6.284585927728145 8.688776196416573 0.5714251764717643 -0.607551934122173 -1.5255756307132113 2.7565054102462203
Ni 0.1520735242295442 6.412124484531756 12.672433070701713 0.6160499442908551 -0.8431901964199155 -0.07888812985647059
Ni 7.13790514532137 6.363523960513645 7.192387973849955 1.2680626798295644 0.08987728187812263 -1.0753996355417672
Ni 9.169647255603506 2.9149404276254143 8.679311883844624 0.7722133509907216 0.40660042457333845 0.3709060564955225
P 4.859263938301309 3.036528835383987 5.937055049868245 -0.8591060963192236 -0.11136321966604047 0.31585513826796574
Ni 1.6883387472143427 8.17891535097322 0.019436542335105816 -0.7578545111658884 -1.4704871743794998 0.1781180565940868
P 2.412294940114954 7.938195607789005 5.766652499489481 -0.18170680238660963 -0.8432182214443736 1.1939385470206405
Ni 3.5193435488044313 4.939797234467144 0.5271685363019422 -0.6066227374396843 -0.2539871971185755 1.2022727779179487
P 8.408541595937873 4.655125234700617 6.592323235611019 0.21336042473614866 -0.356440772999812 1.4309819171960259
P 8.602787832944424 8.601843510368708 0.2794268837901517 0.5086590790090013 0.575826063773802 -0.878809488285422
P 7.229550276067464 8.235061287416706 5.850035266107086 0.0030822384697495302 -0.261680194887459 -0.3500821777716358
Ni 7.811491355396947 1.6845889614525227 1.0476663045835906 -0.9679120967810491 0.4173517495525716 -0.4555112913414284
Ni 3.7094182637532116 7.9672862440292365 4.017596561110765 1.5940253388451773 0.05939402568760094 -1.8084057202054078
Ni 5.301335258260805 2.0882639421198386 11.022889478624633 1.4866781823170654 0.022360369973071167 0.9988517237826992
Ni 0.0663565388956582 8.962996470587807 11.335005509441114 0.3169280596171703 -1.46119803576809 1.5043280341883447
Ni 2.9237052080369055 4.398012785056416 7.877714038859543 2.3037683392158197 -0.4840803612283727 -0.39812786832595304
Ni 1.972854887914974 0.7154994633487709 1.897276993226557 -0.9794555786442745 -1.3313182453551007 0.7172187399223969
Ni 4.5735559341556 4.483854457643017 12.056239669596778 0.6225743756729342 -0.9588044780528262 0.25274355451946146
Ni 7.261125489181664 2.7112968057634474 5.608742511651197 0.3443930978066585 1.3033338443270328 0.566443079897005
Ni 1.5358168989658425 5.321413573220183 6.441377397564125 -0.7956957503833779 0.4900625469537367 -0.5771458110264899
Ni 3.587105569747246 2.5959060879192766 3.384174315498221 -0.16333909851269934 1.0561415586431036 0.06282490574602084
Ni 7.789469386204059 6.933051323653632 1.4882120393333882 -0.08713828568040477 0.5380946106612992 -0.06369162462169031
Ni 5.124453554830995 4.06039454378742 9.880500285152545 0.28197468347043697 0.5304836310832606 -1.43197384879565
Ni 5.1790133960744935 1.4570805661479707 0.5389111416900572 2.9155880474754112 4.050659902066831 -1.0120034306733088
Ni 6.9049875236122364 0.5969512241931801 12.232143128183587 1.2275634341639374 2.0315715610677527 -1.8671775389279779
Ni 2.2422893719452053 6.277755633369817 4.304418499168603 -1.1050123162018777 -1.0527996387540643 0.6512761144830009
Ni 3.8683578382444352 1.8835751476983418 8.974439276478583 0.3353456428924096 -0.32717236305299785 0.5108568579912686
Ni 1.639426505064442 7.657997680031692 10.201794581314157 0.23750462608252 -1.2237373755496281 -0.5333007888170815
Ni 7.806586378911438 5.040913095511427 8.983631294094232 -0.6443637036338837 -0.8335842978990354 -0.0068190798043624495
Ni -0.025118980514020246 8.020782576352511 8.39746826771507 -0.2039969812433777 -0.4921423123009008 -0.04442223486911704
Ni 0.24727040804196768 4.521563183409192 10.708801372215566 0.34961912209228824 0.14369175659541705 0.8852475306012819
Ni 6.274170874854239 8.519632437199418 7.872964004621894 0.386126987210335 -0.2983801214116539 -0.6312371935542548
Ni 1.0230314039918786 6.750742057458547 2.2690512903773628 1.255710586022115 0.557343431588582 -0.9238930108876219
Ni 6.200550386669852 6.356913702483639 5.023612739197114 0.7574603610512632 0.10369824692161494 -1.735917323227694
Ni 3.8610874712294643 5.239871777216207 2.8170783537861914 -0.42988510613289194 -1.0975435186286582 1.3030690207014204
Ni 3.1220129489370656 2.4955970267455063 1.0725331601380752 0.26123899358498237 1.0845393930595064 -0.49590075090206853
P 3.2030779995630114 7.73553298122414 1.8332840112242903 0.0068576463517817385 0.026303670891535343 -0.7804578503877011
Ni 2.62970000067739 3.7815535067214254 9.93512797093061 -0.7515661070540153 -0.3788471657194701 2.2234918136522546
P 5.828432282756043 0.5788385671001447 9.544057404604004 -0.43484502124132846 0.11695973991721147 0.7650533429071726
Ni 4.755672668563403 8.86952687195271 11.578686574877329 2.4109792272763833 -0.5969659310762107 -0.1638448345045243
P 1.503389045079395 1.9912462576905507 10.621473537594754 -0.3924606427378467 0.4784097932061568 0.17145607119287892
P 8.84556124852631 6.620086319337042 10.293617574758978 0.9379605447242814 -0.15723735649033566 0.48027307166714056
P 1.347970051841322 5.112800797610279 0.7336625454337133 -0.18256426529089848 -0.3174787899143177 -0.6214268923320523
Ni 4.430147257171767 5.332837125932231 5.990889688046313 -0.6472484813808466 0.092545315628589 0.7645861734627671
Ni 8.687116755773811 4.784451586671845 2.023653024762201 -0.7355147100181074 -0.2594950143106821 -0.30285101269881387
Ni 2.9084493559399167 2.3473567187189377 6.860238552157794 0.7188233654053555 -1.61346544984766 1.0838817048708493
Ni 1.6107759414808542 3.4308431039172724 12.602240565148973 1.2290227923182833 1.3778904366876852 -0.3428429797107192
Ni 7.280149463401165 7.451566931344314 12.322101313745879 -0.2262064274608814 -0.6224707602155345 -1.013923273403841
Ni 8.587247767256686 2.3327609756069143 11.249126247315091 -0.2298579081705396 -0.20385017125286828 -0.40858223089005763
Ni 5.330490071763465 1.0751341729024477 4.863140244951914 0.5919468805950644 0.25732526035287295 -0.0035082702635746035
Ni 5.644756957689292 3.7595498738892297 4.099651775214159 -0.1865296776965497 0.25051415096831053 -0.3413293712796702
Ni 5.517970191674114 6.466583475791439 11.129124851574542 -2.6783963246476197 0.7814397546849962 0.06058367512032792
Ni 8.507649625486218 2.5735907369552917 3.306641764759877 -0.15682006644725896 0.4619801868952237 0.03613351249776358
Ni 6.841699574678635 2.536047038435359 9.070892200998511 0.6705164507698517 0.1700779598984297 1.4357973363067982
Ni 0.7114297080928494 0.13659396853209485 6.341423144969774 0.6613126727833966 1.283373599155022 1.0656847222468486
Ni 3.7306792739773202 8.49318223689905 9.482317961330967 1.310736050328375 -0.36908674389859664 0.3433068067210152
Ni 1.0346199839501682 5.425362401991612 8.701492462557512 -0.790411362055987 0.6533111426351588 0.4285183076923524
Ni 8.475469312469134 7.040869124531389 3.8451412551523654 -1.4007624561898522 -0.440008567720139 0.032297940801757276
Ni 8.07164764091627 1.284590421104253 7.296918065255368 0.6673467947926184 -0.7965588697146218 0.02866780024833773
Ni 8.6949005408882 3.8303924034285517 12.972740485231581 -2.4248480148386755 1.3371019419164134 1.7483861451186664
Ni 3.0300010909771022 0.7732700013496995 5.030000210444693 -1.0211424168600995 1.052322956227962 -0.1377016004502532
Ni 4.5765906018503735 7.07675338240856 13.422987071606274 -0.7723467912447924 0.0009050283127726349 -0.8094516665168898
Ni 2.642397930457636 5.900374993936975 11.837450213801981 -0.4243639192043465 0.37750839230338856 -0.08795846758885496
Ni 6.92643189744328 4.805199178796537 11.400434228485683 1.975250517878521 -1.5177985578709539 -0.04930681665492798
Ni 5.378678027665972 6.6024284039892045 2.108149725291935 0.83946415371858 0.1648236534780258 0.250937097438342
Ni 5.849555770274951 3.9597187553997797 7.620922475527478 0.05312490484943754 1.1337431084776666 -1.0290986955926986
Ni 0.763970716023993 2.872060848143674 6.257074052143623 -1.2404194641909991 -0.32902895664576237 -0.4241818851005275
Ni 7.972713806794512 0.7063487025446816 4.541028147103373 -0.42386666785295385 -1.2928380870020315 1.1987763347289162
P 7.0993346106026 5.286996224198491 3.359885972123616 -0.33637896925293037 0.22371014340158893 -0.19868148256773524
Ni 3.602407262745969 0.16107759414808545 0.06075386388576048 -1.1686172946470326 -0.8757496184131757 0.8864785747949055
P 1.496723777967309 1.9113455659686416 3.694706084750785 -0.7237585979234439 0.31779529271347207 0.2825632089840553
Ni 5.321184368711515 6.299438379889875 8.420427224939397 -2.2238869922081443 -0.858080997488819 0.5242016547292907
P 3.792949554892433 5.730525284833121 9.972122495447772 -1.1788009200482537 0.972800278111286 -0.4817432284547638
P 6.392559587671795 1.3755112656029533 2.94455548378148 1.0348289132082564 1.2421261624694608 -0.8571564287920205
P 6.5742637539639945 3.119326672095468 12.891960565014418 -0.4885365972275134 -0.2324866040426383 0.08946513404136851
Ni 6.475210733497729 5.456525046990209 0.2666629431114091 -0.287259328908144 0.6145718170834319 -1.7642660495737164
