# total energy = -340860.70487585594 ev
CRYSTAL
PRIMVEC
9.36963914706423 0.00000000000000 0.00000000000000

0.00000000000000 9.36963914706423 0.00000000000000

0.00000000000000 0.00000000000000 13.71341398937103

PRIMCOORD
 96 1
Ni 0.3776526763184122 5.464692130697485 12.194091597587741 0.2802127064740077 -0.9912674836775378 -1.5164317594304142
Ni 1.3444963724584569 4.743370459324166 6.6028578051024756 0.2214884531599218 1.907241496828399 1.2026376174565354
Ni 4.347784293637585 1.2018155072032397 9.468741841805986 -2.5964341838515153 -0.6855664031244386 2.6233526055089142
Ni 3.4459565236865313 4.103948803921156 2.1010460131768345 -0.09830792914397908 1.8079182390460282 0.34960909478995916
Ni 8.052211683421465 7.210340234508507 6.621096744707533 -0.19049509010220095 -0.8943350947248468 2.22140279233371
Ni 3.910690626435334 8.15339441680018 10.688509577655731 -0.3621583922098795 -1.515135923437126 -0.3429447953959061
Ni 7.0211297411434 0.6734615545015261 3.932348547372912 -0.6101878290831234 1.197706755813821 -0.9665111026684645
Ni 0.9813010493767664 1.1306905762765025 13.055965352197234 -0.6177800396080844 -0.3535642227829653 0.7801112656815598
Ni 9.40777359973771 4.500912306565482 3.5029960760515286 -0.8258187950210036 -1.1368855107613904 0.9379160646395911
Ni 7.348111408839523 2.54869176801045 7.620804450230469 0.48522784456925466 0.6478953709362261 -0.1496279195741939
Ni 7.785317511711794 5.837528812483379 2.090006704308717 0.22158924040384417 -1.983235078745894 0.3398874966268211
Ni 3.4202556034478224 1.534690677936238 1.6771916461194232 -0.5625198335831989 0.2202522667599755 1.0731303798916163
Ni 3.9980062938449326 9.151307836422383 7.135363444919673 0.13244420870605578 0.4634506007931632 0.13254602439124272
Ni 3.5238744430103024 9.060590989994683 0.036239890375238296 -1.2804985916000722 -1.111829339123711 -0.8591485195213848
Ni 7.262903910242797 5.916646045620696 4.6595983894480275 -0.5751704324676739 0.24053312849619865 -0.7741079969102733
Ni 5.919166478556975 3.0047214759718814 12.211713077971606 2.4943734725333235 -0.9027153483687421 0.8150283892737189
Ni 7.1664434750049155 5.081867413558158 13.464337327492908 -0.8517571121533201 -0.9556990996546251 0.9977422927686043
Ni 0.17778328143542102 1.0194448504310079 8.242790144105147 -1.6147126919911998 -0.9327563748155225 -0.04428930883567856
Ni 2.0726016625896406 7.151798728984827 13.388104069291602 1.2751540394587069 0.97679140154855 -0.9727676251011377
Ni 0.23214780181786265 1.0859973974436035 3.4540800008454666 -0.5608550442862663 0.26415462456988054 -0.126596234565711
Ni 4.643911739552422 5.483393930477457 13.599812003263768 -0.9935912467147081 -2.182111708043571 0.28101360510874834
Ni 4.441105899754079 3.0761649746303417 0.3184168805323596 0.046219693089172016 0.8133453451443411 -0.9099527466574457
Ni 1.8962088356067988 1.8008259088732743 9.38166228930343 1.9794753545931458 1.004655989169302 0.8121747218750077
Ni 2.827176183371336 6.7539919588153525 5.980296815382862 -0.7876839358224951 0.5680086246119121 -0.8166947212325484
P 8.456558461730427 1.679367276334308 5.507485146707048 -1.1420709116170717 -0.4113448812368593 0.2087586642980792
P 6.173917597904498 4.483943890031649 3.2704163338680066 -0.48516459543148704 -0.22417602729441394 -0.23936919009508453
P 6.639120182611718 2.5194397545269474 0.6194690087940671 1.1109741902122672 0.7415526886820712 -0.3230909938947726
P 0.26349674054723654 1.0896328174409127 10.638304240100108 0.10951793892718557 0.6142370594518325 0.5547329905489284
P 1.047066546699223 7.837553250075192 6.980593871209486 -0.4775327899178421 0.5789802931320673 -0.28050606934471045
P 6.503297893227712 7.991252810992357 5.321490313504508 1.814746060601139 2.6778479083433173 -2.4573231046482458
P 7.658771165104429 4.537575704631128 8.900787109159356 0.10011541466636305 -0.2821855139296624 -1.4766758196887149
P 4.623514035082983 5.822949653937469 11.402251210941877 3.276343902910809 1.6541672984423965 -0.30258953150731116
Ni 2.836442756508807 5.162174590869852 11.641385952687557 -3.1756031959556212 -1.645004915216838 0.6974323013240892
Ni 6.641546919156314 3.345907516647182 5.257339205010754 0.8558544221511454 -0.41169249438426514 -1.0850934657907636
Ni 1.6577702580513243 8.360144874688388 4.088010110731923 1.49087782222071 0.33019160949529586 -0.19841074540485185
Ni 0.029153632272235885 8.489717614747121 12.556920567777949 0.33856929203602976 -1.8125089437405042 0.6508289996432534
Ni 0.29537506388962065 3.5898460723944616 8.549079900661946 -0.12785453245284434 0.1928571625764743 -0.276464295175169
Ni 2.251796011683811 0.3431115015243908 11.205957270365518 0.5722874544929241 -0.6322054710047951 0.43018746786465917
Ni 7.311663512474747 7.398595024678445 0.2344405525223512 -0.6653235937150025 1.6712736191053796 0.6780397557300903
Ni 4.029066647687922 2.892229588117 11.276540636148324 -2.5638796469542617 -0.22096060568090978 -1.2988552397303887
Ni 9.273797129269864 5.880825915080198 9.78771621586886 -1.8336575527936616 -0.3109906110868128 -0.08938105896799446
Ni 1.9395902649561325 9.127733824274882 1.555855755853562 -1.8733612991411865 -0.2358282668213616 0.7319753294062814
Ni 5.191192363374147 6.008580945140277 9.276137665134112 -0.26284721861236665 0.3498170970357072 -1.3337068001919352
Ni 8.581362055452486 8.936209030035199 5.08911670338269 0.9443417656602768 -2.1423277432774137 -0.9882420665876528
Ni 6.378953411824903 4.9811344228595225 7.027904927226014 1.3278439136532552 -1.1322765512344695 0.5426475201393042
Ni 7.058683254930037 0.5860437580249928 9.40601679239365 -0.7592542197268924 0.29220818827298706 -0.6608041085780942
Ni 4.651960259598011 5.503847852781905 5.0339201590421006 -0.17261486738767046 -1.819412612838873 -1.539717469431232
Ni 3.666433502956331 4.995563667178739 7.606679719184222 0.630875696449778 -1.436850717271977 -1.259953934679501
Ni 1.891570864218479 6.4147829120045685 8.640643762470463 0.44369372988121003 -0.6530699731586301 -1.295318430221724
Ni 7.575390746145525 2.7681099780542295 2.6211406289516717 -1.224644974965562 -0.47018097753846116 0.953239582370539
Ni 5.314871600396006 0.8441379646277746 5.45353663830368 -0.24565630865537694 -1.1267227112957756 0.0013477722771460662
Ni 1.1450917116782144 0.5912382859799109 5.952513024357035 0.32499875244044674 -1.221268345183845 -0.3457701806598432
Ni 5.50951648447874 6.337258517525867 1.9660510629313923 0.07416655601108518 -0.9962052872987874 0.0322298065679832
Ni 7.371273156863616 0.19563338101499247 12.78707263645296 -0.40507678883996034 1.0287346273850606 0.15510076976330706
Ni 0.7838321560486995 3.401422628719494 10.910035956512385 -0.39576476741041516 -0.28876342425749624 -0.9090191790995829
Ni 4.59850646814273 2.6929373630067777 6.5260633055149855 0.10549107715597962 1.62139113245264 0.5468559017936969
P 0.21082625092642765 8.357296504381218 2.504603867867825 -2.046335863861121 -0.3903932186858567 0.9633530166554569
P 7.852160517538607 6.549930587368454 12.105996376199338 1.7889954339995964 0.31747544748020806 -0.2329208633665795
P 5.490055743926135 1.416989270703769 7.958662395073181 2.400988948832891 -0.6499262853233259 -2.96472877086612
P 3.2477980249156757 1.521854272275636 12.836455319689605 -0.12437634409625675 1.3075393977679484 -0.5415982529391834
P 2.8623123302525455 3.505547428797063 5.651736363486876 0.16891582126952842 0.5879465011864197 -1.3600791195378772
P 7.356534714451845 2.344349307388502 10.55547569288822 -0.3134766107334601 0.5581574428494452 1.2840125182906015
P 5.208282585217168 8.668209240903668 1.9183005708378698 0.6514118687299169 -0.7873993147025407 0.09287493105386586
P 2.0780829015031093 5.197179562802706 0.4300758074651773 0.6088282297314354 -1.0568774083678638 0.24190275515021564
Ni 0.48085456693790185 6.676992264130078 5.155365674086232 -0.2946152550525829 -1.391670521190913 -0.2876542503537175
Ni 2.119684099410462 2.52752575312921 3.363050208469545 0.09420753382236034 0.59211785895529 0.6422489712837262
Ni 7.519369673558125 0.25073154414431376 7.067825211866569 -0.9355969295881112 -0.42985219601242736 -0.059252357903414085
Ni 7.191516629419347 7.836503850488341 2.752872133874787 0.2516539209997085 2.1910444917568266 0.7843209328875331
Ni 8.767021455572799 3.8174064988755134 1.0895569233636493 1.8438509483868954 1.060495464736425 0.9151456037122949
Ni 8.666316573791667 0.2940220879937148 1.1602864555174832 -0.48921459713114457 0.6018638825984602 -0.41498376354102723
Ni 4.653909144545022 8.110687601470966 4.180877289348753 -0.34541074043789544 0.19340043667445403 -0.2907256901901896
Ni 5.577849262933317 3.7404723916644165 9.045792581892234 -0.4182737471462087 -1.5948653182479695 0.46004980264173023
Ni 8.661566166733326 8.581858646328406 10.375829727186137 -0.19695730078777693 -1.2733408975093683 -0.19806081826460084
Ni 1.728108139287922 3.240948818683632 12.972999071289571 1.1066382818410747 1.6743355458601552 1.7267045463801747
Ni 5.401044171827069 6.941600243882677 6.618600672833091 1.825224334424644 0.2509183283852646 -0.1771801181608497
Ni 0.09243898610683747 6.308493725279116 0.4526781880309221 -1.1608636188435428 0.34148080925586993 0.8826172920672863
Ni 5.5956140987964575 0.16541535773323518 11.266187184867329 0.02738867642559799 0.8875502105925296 0.7373656471839172
Ni 8.472158910945685 3.187429439754173 12.7942722671899 -0.3771682353551504 -1.9550527027744071 -2.0156083528702773
Ni 5.287512254024504 0.8933707336377258 0.42254168060992914 2.469369494289818 -0.3369978337838519 -0.4835895376348834
Ni 4.857773753569386 7.523155007782127 13.012603599090154 1.5237761156106273 1.1558417401489192 -1.1139260737517396
Ni 3.450453950487326 7.30042931511193 2.1744674426637274 -1.0899037426952132 0.6919987890133437 -1.7736603463044227
Ni 0.7851776362332707 6.329940829335407 2.5439750916531167 2.3209443367744735 0.7053746960996176 0.8813240271771595
Ni 1.8946815844223621 2.2645012423960567 7.123377802495555 1.637529175665083 0.8918483237472511 1.4853406944525644
Ni 6.348558302362864 7.112062089271971 10.8239289725555 0.07002168060477618 1.7455152513287746 0.5165811620695556
Ni 7.294348419291688 4.4755861718935055 11.02607893761206 0.26015630204376483 1.2998232600706132 -0.48578037463861506
Ni 0.676612564153833 3.085141088953595 5.324945836429786 -0.9208593662676204 -1.5063751465253605 -1.6033126776843742
Ni 2.3251509167326088 8.801623533021415 8.791779790111175 -0.3589491412439625 0.1061726766040365 -0.06606449572924106
Ni 4.973535645494012 2.317167984161198 3.629241657241591 -0.3659011470817634 0.8482454994556359 -0.41610450740903177
P 0.8173970144413817 2.1019567421039955 1.4121798349186692 0.17453573855946716 -0.07402308845468542 0.261280388345879
P 3.244171974557535 0.6591269435379093 3.9329931785476924 0.5736246852471089 0.06705925554234257 -0.15682546576389764
P 2.6930779075943025 3.838310163860042 9.035480357023578 -0.8297469264308162 -0.6350491111011772 1.363225892696975
P 7.1138610599922885 7.830057538740534 8.83067035140713 0.7321383373467069 -0.1957843635255983 -0.5702765947104824
P 3.9118712009705425 7.078781130946089 7.823022813652958 -3.227808160093951 2.0061886022182738 4.038559262148555
P 1.6146043304028619 6.751359090209054 10.726344180617419 0.3750164791194702 1.3309042977461336 1.2336111830199143
P 2.841033879701285 6.033391749657996 3.6892926116352878 -0.29000269598123607 -0.2900263501303199 1.4927647548307776
P 8.549673935785219 4.6763587999923235 5.814597557582826 0.5616387165298262 0.40820042207060664 0.2984829655381053
