# total energy = -381168.0436947898 ev
CRYSTAL
PRIMVEC
9.24010274380617 0.00000000000000 0.00000000000000

0.00000000000000 9.24010274380617 0.00000000000000

0.00000000000000 0.00000000000000 13.52382436946693

PRIMCOORD
 96 1
Ni 8.846049507956888 3.606365976125898 5.727974923560778 1.190456502009311 -0.2213159321377995 0.6915300769070413
Ni 2.481263322105176 8.459674603610932 12.21528672238889 -0.40497137361034763 0.19218276221726902 0.1273973903107677
Ni 4.111697965693659 3.896033963124376 8.166754100378334 -0.5802658447127103 1.377344334376228 -0.6909191827959198
Ni 7.596501147569279 5.356191989774266 6.902722802645949 1.6874692550286357 0.6311680308792162 -0.1873084648441032
Ni 5.069388434686521 3.4969169568271337 3.983320595526721 -0.8267487630344408 -0.24603683192324718 0.8148237294620806
Ni 6.060685158064321 6.197161478456279 11.402193700260058 0.1776272330005973 1.218306948562676 2.9723852589701134
Ni 6.9505717516992815 4.2689737577987055 10.721147293174784 2.127851918258742 -1.5205689215272393 0.28865106704934806
Ni 3.5369081223421235 6.265085475152372 7.291139769741167 0.4705000514407768 -1.3966741450530913 -2.2732143776883627
Ni 2.5838284647152463 6.8081725253241645 2.989347014327827 -1.1146441828646867 1.4509457619124624 -0.3374709167655285
Ni 8.611203051688639 0.6202788701145426 8.4811014783135 -1.9347263325122295 0.49562898529792065 0.8380505612005051
Ni 1.7078482260017416 6.020426029564133 9.769529419832672 0.8910939620797298 2.369529444772029 0.9461363956668545
Ni 6.41403593451042 0.598529515819445 0.5844115625407129 -1.1529109396553694 -0.9922763845580266 -0.014787442721819696
Ni 1.016355882545234 1.1398036577948323 13.324172071743401 0.15990487602016976 -0.7278294255587078 1.75188850184497
Ni 1.0132234876493047 1.6206401344743682 4.829939483144932 -0.526677627073609 -0.3725291939212423 1.8803688408072714
Ni 5.229390057158231 9.148829201024165 8.729520721787146 0.5666554530181273 -0.19214625255237877 0.11324243896662432
Ni 1.9422234370201594 3.073082675171159 6.715593161959022 0.04636984551379111 0.6201236001395966 -0.7467578870320946
Ni 6.439224455118984 3.4300648120718313 6.355926775154906 -0.649404865602217 -1.3339893644293606 -0.17590613654443255
Ni 4.061958491579244 7.837991237849836 4.710388259304223 -1.17738192821354 -0.1487779128690728 -1.8466724769960905
Ni 7.282115885212068 0.18729596253980796 10.821791418384077 -0.7901185134059167 -1.246819197069756 -0.7947166742995603
Ni 2.4020571597219758 2.758096806122988 3.472215389643395 0.6753812350613208 1.2478334972668832 -0.3704178040051943
Ni 4.478141968002684 3.8916079538171484 12.624855209119126 -0.6165983605951575 0.19199789989997257 -1.7631584183318343
Ni 4.575671254511629 2.3128532059600277 1.0446509257615002 -0.8421144468572335 1.9016300641788926 -2.1257538980791324
Ni 3.772419866021896 2.559859637694479 10.13140049519776 1.2108119257372114 -0.3525049282805155 -1.084460717302771
Ni 8.305762208975262 1.3790576431644317 6.280139450858707 -1.4685598754498 -0.7381259223887094 -0.40754016277878846
P 7.273670431126879 6.900859997893679 3.446303368974798 -0.133204483910848 0.40285664126019005 0.29932911558848446
Ni 5.101266789822082 5.6743194938213035 2.1090137631203034 1.5141051681797666 -0.4915139346882826 0.8689639629499099
P 3.3866363282639633 7.970716076449031 10.346970248717076 -0.9480868345250059 -0.3304152954703278 -1.8906781931530796
Ni 6.491911522070571 3.6630078071348833 2.272597773501016 0.9473499563589813 -0.6042483236702368 -0.0505489165921452
P 2.8440112832390634 3.068370222672858 0.04753940560491458 -1.814499491807972 -0.7159565853805218 0.02242953264810976
P 1.6268494836485994 4.330170959556047 4.864492848081 -0.2792619125249642 0.03684005164648494 0.13785483819866579
P 6.0539306428167565 0.8394032912340487 6.6440655251171705 -0.17317125411177273 1.0313134438558305 0.14240749056635474
Ni 8.298638089610183 2.138316901567089 10.604179602115495 0.5268257226156992 0.9253636818958774 -1.5148284194990365
Ni 1.1257864216381226 3.275773573215709 1.3543976564439133 1.7429860571490177 -1.7469578973125721 -0.11749041560970087
Ni 8.401323353558446 5.984999474900438 12.168223182085274 0.3086503929894104 -0.8695558308976379 0.5005598469406346
Ni 0.17491052856192157 4.405043513661399 10.155391498465578 0.2386474814377116 -2.349830937901837 2.738379647179787
Ni 1.304794935852978 2.326547038513913 11.526112720759485 1.1906243950457431 1.533994450904526 0.1630426503182031
Ni 8.849200383058692 8.26594660541609 12.077262684754842 1.6354262703894675 -0.15265179400218226 -0.3987223073768424
Ni 8.685530439720658 4.569979351101917 1.2215314442697705 -2.222209347395405 1.0891221273341825 -0.9659732278871235
Ni 4.062143293638001 9.210165004325575 0.44167414839807095 1.0038584329686713 -0.3272394688455074 0.22376979299493077
Ni 8.218027431580431 2.255158003216129 1.0029253929250772 -0.42716487898825145 -0.20402912003289378 0.9633594444133601
Ni 7.317034234214181 9.276970948566188 3.1880794522738047 2.298634360423364 0.0668607663782913 -1.2987577949205762
Ni 5.393558966054908 8.162854776938563 2.743267364918042 -1.0226711947998 -1.2117424079712809 -1.2900443263069783
Ni 4.551813308726116 1.2966082046500482 4.98063539794794 0.24478187647022356 -0.22855461597808382 0.16104258916903877
Ni 6.610378881836671 7.1760857040003065 9.542911275230574 1.5485962599781007 0.7550936605912996 -1.866321875795902
Ni 8.383120350770893 3.4719317184832033 12.39043379758602 0.46326265315207316 0.4166477815070115 1.5325584897889477
Ni 8.971631746985127 3.019637919778668 3.4024590805347277 0.7490119731735939 0.13731284965226673 -1.167758289080847
Ni 1.19994748781726 0.8580747672405504 7.263930438620097 0.7205187508299075 0.5349655781140142 -0.2507355229504972
Ni 0.07397903615126193 7.610065618682034 2.839016083590865 0.06832089586358556 -0.7215276517103961 -1.0826946265412838
Ni 0.1426071286912183 6.050807488023765 5.449857989244898 -1.2401857509136383 -1.2770743964098716 -0.539094255570407
Ni 8.315991002927456 7.624433978750383 7.0609244530653665 -0.3326662962880335 0.09260522233224697 1.4281953555898241
Ni 3.652104485668227 1.4378524181579344 12.117103236591944 0.15789221646551516 -0.12151650604995846 1.1881772190568312
Ni 0.9925348971714715 4.797230442755258 7.990863196894706 -0.19306233660874492 0.9821374963518119 -1.911064213008599
Ni 2.0960064702147005 6.922139954959534 5.542996378837781 0.3693184002934285 -1.5670362118508432 -0.06728396995863896
Ni 7.71436790064442 4.760621154915519 4.111093662961524 -0.8693876807508898 1.0905529462434378 -0.8156068874850083
Ni 1.9543464520746112 8.415996637023742 1.0536415459200228 -1.8356864102982322 0.8640140751438022 0.8975597723097316
Ni 2.722716451973983 4.329856796056161 10.914483511005061 0.13471449279747122 0.27134754277389395 -0.39197933222605397
P 4.651902103748844 4.585197800640547 5.963587384362572 -0.33723257550247726 -0.7625375184638544 1.2108744035440306
Ni 3.6324507867194327 6.911458395963387 1.0315244355279989 1.5820697091451978 0.37207179466884954 -2.2123509665440864
P 5.333830940664683 1.1527028414960627 10.450021420741678 0.1539741123580316 0.3749915394188058 0.7342515270349678
Ni 6.14825361360627 8.417013048346906 5.0193948577413146 1.6283038004120731 1.1343244349024335 1.375133442767838
P 8.096593998771283 0.928695025973906 12.865538638413211 0.18219145533251202 0.5193206724879056 -1.861551450990452
P 5.706595173383193 7.429587928100061 13.493639255664638 -0.5310189347614404 -0.11772310044579724 0.5817676260692174
P 0.8270363374620381 1.0556725205457609 10.036787385175996 -0.2995610290936324 -2.8071872528718043 -1.5082461382958283
Ni 8.524115081499458 8.788917951492197 0.9017046852924632 0.8092356938513418 -0.29272266601556035 1.0114195331453808
Ni 9.096354656440148 7.875931100512625 9.435897023055933 0.03521614288981677 -0.9891463235694771 0.9686754573096348
Ni 7.05966040698347 2.057253478493382 4.159657795982246 -0.4200984590597732 0.6904216743342109 1.0171466654371448
Ni 1.9229855427035678 7.701939962193019 8.048731189563544 -0.6534558957431391 0.6276127094277901 -0.4017940043236306
Ni 5.442984276669436 1.2948710652977335 2.5833479793624785 0.9339437102554043 -0.6644712730170362 3.0646495530231737
Ni 0.8029640212883663 5.260344402000008 2.942541272896177 -0.513650875796638 -0.5636423772234164 2.1908534587919433
Ni 1.4909645298446628 5.97980653704937 0.89209128219593 -1.3610859635358366 1.6076213323620572 -0.927062666864855
Ni 8.482894982293734 3.134908203928274 8.039967875937291 0.2937842745108553 0.024452476615409502 0.4521994533593761
Ni 6.261805238609437 4.782815882172221 8.568898164398012 -0.22898450442665083 -0.014457055965594457 0.3691548781323707
Ni 5.091195077619832 8.463213563036126 11.515347076826604 0.1914782799510767 0.207260739596314 0.7422808250973475
Ni 6.308818882357188 4.160975434661182 0.115001397154115 2.3954420508727328 1.0860668854476263 0.4556221058876799
Ni 4.018409886433184 8.685696761573539 6.78994734628956 0.5805286114557938 0.4868057305793358 1.0634866861542651
Ni 0.6690934099248798 1.0908218721213203 2.5988196077216053 -0.36417465130895993 -0.9618432648791498 -1.712971255954482
Ni 6.4736253583565775 2.1714888711139495 8.82514747110119 -0.7877952645893787 -0.42257803094851737 -0.3798455250769974
Ni 6.364204059366626 2.23385032584146 12.081170324287257 -0.8258550475755777 -0.41166601202170394 0.6111463363416506
Ni 3.777428001814208 6.163703065718345 12.060843945844587 -0.23320342760400486 1.1619131431539795 0.17587991129218744
Ni 6.0613596855787835 6.058495253668052 5.207145433345664 -0.5912205439520011 0.5249225920557153 0.35185495340134243
Ni 3.735191491285322 1.8036218929524968 7.543061936238551 1.2486925028330687 -0.4094512637585723 -1.3285813060399119
Ni 3.7412160384007964 5.473411935643758 4.227331385888723 -0.0689911824577328 -1.191704001263167 0.9497115146126226
Ni 2.9569715416542084 4.66036603803991 1.9150815586505359 1.7524526018785558 -1.3353412504715647 0.21029078467188944
Ni 2.7550845325652507 0.5393096960908016 9.023582377732568 -0.03721543270803268 -1.4266544934652656 1.938231260341694
Ni 8.709369905300296 8.263636579681629 4.97273695795667 -0.020660613673145062 1.258204556088562 -0.34770159335460116
Ni 1.6751752220135248 2.801091005092777 9.181554873599127 0.13697089293181572 0.3273322856696298 -1.6006477292577013
Ni 3.191004868863926 0.6972036510823892 2.572258931826772 0.38551197933415543 -0.10501902261556752 -0.1981358944769104
Ni 1.2464898863151812 4.473290913960316 12.615618802222459 -0.5255517409992819 -0.8328021683173721 0.9468496196837951
P 4.960928106402105 4.605267304221544 10.497570990459824 -2.352133360782769 -1.111645762357995 -0.548281835606946
Ni 1.770985849376031 8.822219282480187 3.9708926570753205 -0.4173504640009909 -0.7700142864568739 -2.8998850349178573
P 2.1786684310966544 8.905167686553215 5.850081959874095 -0.12794914904917962 1.9360057134452853 2.7318991816617664
Ni 4.36796298057183 6.265381158446383 9.269405152280681 -0.24972045142242152 0.7180129536889183 2.153645739393394
P 5.5864276346765305 7.22073388139597 7.41610014984169 0.881862416179133 -0.8484838407186871 0.030126901292367475
P 1.5842526091051377 6.4998764908029925 12.257426211836929 -1.3246986831560539 0.914577904134283 -0.46169222334115967
P 8.418297422655266 5.710956501969856 9.075473871821208 -1.6209152212574858 2.3347709582449205 -1.7683109090670512
Ni 7.4662988570721165 6.587777590050704 1.2394803442265325 -0.7904023631949226 0.21412789902979254 -0.4335296448640147
