# total energy = -381177.2367511632 ev
CRYSTAL
PRIMVEC
9.19832694155686 0.00000000000000 0.00000000000000
0.00000000000000 9.19832694155686 0.00000000000000
0.00000000000000 0.00000000000000 13.46268126011230
PRIMCOORD
 96 1
Ni 4.744874220255594 2.073578865332958 7.61621571154494 -0.28199885184015305 -0.33411948379479234 0.9174878786922263
Ni 2.7895766423702533 8.1913861817192 13.31110510664023 0.8146710059343001 1.1308606447235492 -0.2648305675909826
Ni 8.743745720659199 6.051487378405269 4.111233664398969 -1.0757315649598895 -0.3008069856855916 0.9586887784105682
Ni 8.070676535932195 7.816305999881458 5.9794092876952964 -0.3274454142087264 0.7437021309249062 -0.4337641294723239
Ni 5.762650710923921 4.605409185627646 3.8668056000491524 -2.2259191921468244 1.7553443216040543 -1.272608390218718
Ni 2.0382756861414224 1.7376007717555653 4.742283051527544 -1.073999669870447 0.26682728630603725 -0.7836079659809085
Ni 0.5421521554202375 9.042525779674172 12.368569091519301 0.48690703204389046 0.43773237009145266 -0.41143615539908496
Ni 7.9608945026724305 4.664885568288528 2.404381060283181 -0.027330055273520674 -0.2638851729585778 -0.9384385128019646
Ni 0.7621908556151934 7.205813034028873 0.24784616267904427 -0.7990644097452948 -1.2928008060061928 0.7382228529778899
Ni 7.624548476013312 8.202838098887897 12.04527641076709 -1.1774400351449852 -0.9238061076007702 0.9197815598224096
Ni 2.155186422859614 1.2083014387126945 11.294220130037608 -0.33303422115041353 -0.9427301981987828 -0.27427294395080504
Ni 4.4541794907115335 3.7074593013501818 13.364093909237592 -1.2251049453211158 0.4060810617347587 0.9724850608637123
Ni 0.1416753926164123 6.009662585340154 6.6103381767396066 0.25016936603438206 -0.8106611134439587 0.18365955523760627
Ni 3.0493833897034803 0.6418960543778341 2.3020110389547708 0.9596002344812442 1.2947340184731637 -1.4681253590155425
Ni 2.8503131958360455 5.87423561628414 0.30538169833382695 0.09318423476416855 -1.0223937727686974 -0.035108670777675016
Ni 8.902361672190946 2.7232475060622376 11.86809455593149 -0.1054028883175475 0.4386687658627929 -1.0398297088569575
Ni 0.606914816632808 4.60853661682231 0.29413950302171255 -1.7932176996110603 -0.4718072002879745 -0.47475728405523404
Ni 5.13545358316101 5.235338216522366 6.2257092115983905 0.3368906187820263 0.9808678856107688 0.5507161560800515
Ni 2.8009273779414765 5.500185647075229 6.755371878559465 -1.4991991976022114 0.13792554353560119 -1.4209052496863144
Ni 7.763112074591033 3.7190491934245262 9.954401011262231 -0.972276544397332 -1.2230480627920872 -0.522412424039352
Ni 7.075702698003788 0.8365510512645664 5.955432928424672 -0.06298302859043992 0.8794324665814016 -0.2134244452048647
Ni 4.433115321782764 0.5342977039581083 9.661574109509573 -0.9021826157937236 -0.098481735717682 -0.43408731713969756
Ni 1.382784504393841 4.008345777258031 7.873205011304856 -0.6409341091270445 0.7040238384986778 0.8845972986117927
Ni 2.1827538090078766 3.1720430808236286 12.468045319159943 0.1218389223863837 0.6684482553869133 0.19792223580420754
P 0.13794179166960552 0.8148181639597615 7.085503515468244 -1.3212228087923117 0.503051760124553 0.39343689060818693
Ni 2.255181436145488 1.8446601002105638 7.214717934439327 -0.9669759581200249 -0.6740476038515617 -0.6786786748656698
P 9.105092800221547 7.228091382127334 2.2816284660598973 -0.8459070811304464 0.27748785134367693 -0.6780047887270969
Ni 7.70904430823151 2.1916945828938 2.307772871014588 0.5952299222217103 -0.29662122973901817 0.24025544935477983
P 6.070095594013522 7.962375433326374 0.4575146689655746 1.3771715562437896 0.3724219789194167 -1.2665529280532573
P 2.4601385593205265 8.919930476843325 4.01232313387148 0.22473318534946457 -1.0453652939632059 2.1366304357823203
P 0.7026942366348152 3.548089087000899 3.4593298301982087 -0.8648843935638976 -1.0635237100397879 -0.11295010453718611
Ni 2.237814994688057 7.448906421124731 2.392076458197585 -0.4837826274822959 0.16336892330937025 -0.6125540153224547
Ni 6.473865357898789 4.06616646105115 7.910160210033338 0.1174161107283397 -0.20090574391256366 0.5299853512906033
Ni 9.201914390677539 1.7308308030518211 0.4214912607665617 -0.2150807498613651 0.985946585685257 -0.05014396784424267
Ni 0.8444717306814062 3.8859712342762194 5.61501480238356 0.6203796820144606 0.13693232638439642 -1.2946957090360605
Ni 7.514352518036606 3.63638382828791 4.563256932119795 3.5247075831950196 -0.7746828955771368 0.44540891280010386
Ni 1.7724348362679014 6.444633074555719 4.688863767224562 1.267785772019094 0.03559692326800322 0.21107137159165587
Ni 1.193850866927936 5.337835174763971 2.389975560300934 -0.004419212113618195 -0.10432945274771063 0.031447419876003906
Ni 2.656072123666254 7.89672697321955 10.735101660386317 -0.06894310282861675 -0.39672481733083936 0.0954221229557518
Ni 8.684683262715257 7.82547673194346 8.423384546735633 0.2683252110078024 2.8523024000428876 -0.2092518018844138
Ni 0.743759247886168 0.6930350734068237 2.3862870311566384 -0.5630453670693658 0.574602732889662 0.3782712386113421
Ni 4.305249377556204 7.5031121623899 3.75487667725752 -1.5605565176637703 -0.3612178826734811 -0.29020401335876467
Ni 5.123946476030054 6.089826005521038 12.387389788482253 0.11279069614118639 1.4604742702281879 1.4474740013137781
Ni 5.655738555701613 8.90883729442931 7.500328748626649 -0.9554147356449868 -0.8927464100814883 -0.22796506202320094
Ni 5.899301057476672 8.258322407612061 5.057242967811383 0.68310174363403 -0.22419839589191715 0.5591799705766886
Ni 6.3139800372350905 1.7524008799679627 10.829825112443773 1.7655258901227466 -0.25944462068872093 -1.2426871771792536
Ni 1.8175894237226302 7.097806277888432 8.035941813351926 0.25588389992065613 0.5704784263086433 1.4403636155212418
Ni 6.782965939856153 1.8179757534584418 13.159098153088975 -0.17713383830394655 -0.30050590950540507 0.6600271212027536
Ni 4.01592519874157 7.416767466436032 6.186761655232367 -0.8244594527796316 1.4396961571405722 0.027389961977178634
Ni 0.11750494864517769 2.245155259668475 9.088709659925026 1.1589283494940428 -0.6332056301345353 -0.12759330837165767
Ni 6.424691101526211 5.561014183811452 10.041369353789623 -1.839631510988909 1.2551863380875286 -0.281800876896734
Ni 6.430706807412419 8.370578790846428 9.838743086687314 0.30947211755975734 -0.35777748953336447 -0.6293152939411937
Ni 5.781507281362339 5.221191189530032 1.5069048898484383 -0.6245230147588728 -1.4033620985962283 -1.3786813080200964
Ni 6.743367141935475 6.612189799973389 7.696587933749703 -0.5672092686390683 -0.08315204733914712 -0.7450717575789233
Ni 8.329149525844167 0.4536835657521106 10.397753935912203 1.2419616118671386 0.5606480704817829 -0.3558368208672259
Ni 8.551427098841422 5.702447660426631 8.849464852864013 1.144510631406816 -2.015670316456464 1.4237429762454252
P 3.415669970887989 9.254620804634678 7.698391725682861 0.2514045239930638 -0.8278036866615163 -0.16731479533099572
Ni 5.256871500130336 0.26628420923699986 1.9872534858658806 2.7484030928540606 -0.5179831846234046 1.732049869852488
P 7.239874439069585 5.542350778240941 5.7383606887011265 0.5247338730836769 0.1994016485632114 0.20143770515663373
Ni 0.36912334524460994 8.355797079288118 4.120671147945221 -0.13998911093284924 -0.10622024201252028 0.34857782531196746
P 7.607494777675348 3.7211832052985327 0.4430861731657197 -0.06374767467060635 0.17875260485429215 -0.5517682514936497
P -0.060067835089756536 7.454232252482704 10.557663172226212 0.28836181794370336 0.21310100042717492 0.3015911721497838
P 6.079045566226489 1.674518644893775 3.781895843114013 -0.27702068189927126 0.24056449595476637 0.6892569646021485
Ni 6.504449795317199 7.041540111365601 2.641243500640023 1.180831063104405 0.593093849715314 0.3123602377408298
Ni 7.184620088521499 1.2465756775391614 8.346229899330558 0.2601773850896874 0.37531549841712786 0.5518798373708496
Ni 2.45438960491857 5.554639743170563 9.55352228156662 -1.1957925695102438 -0.2654985401922847 1.1889115261196943
Ni 4.143699159697699 0.9974205929218796 5.2727800067514305 1.1289315460216365 -1.3872495093050818 0.9947096765898675
Ni 3.43118754860975 3.399876443354933 5.799521285043606 -0.5640229004912868 0.8263319872119962 0.9184132187199732
Ni 4.024479642891682 2.7079322915354247 3.719739067952761 0.2593479472098566 0.5073025649811069 -1.254542790966259
Ni 1.5908690587635441 0.226914449659696 9.164007165100095 0.11125034823726003 -0.07441441035583313 -0.85909838300974
Ni 7.685809334120563 6.272118450861803 0.28517481348547735 -0.3615953206175579 0.4296616772681761 0.9246080346767753
Ni 5.725369891418112 3.024538708359984 5.798067029538088 0.3624162738569565 -1.514757971272417 -0.4976185049241237
Ni 3.4991907804396156 4.848732530899583 2.2820460701076555 1.0844589175305581 -0.17050322036130636 1.345008855468316
Ni 5.076041588789429 8.936892191910859 11.96086520315769 0.4455379821788005 -1.2018994537389303 -0.35742473417963605
Ni 1.9564289721116452 3.0081104962609526 1.4151166239504456 0.594465276141544 -0.40359274809526624 1.3138648257653438
Ni 1.6141776194908375 5.510423385074234 11.906072608627168 -0.4946185417555353 0.4414399008500268 -2.0536449959280243
Ni 8.345835291100407 2.8523000344773615 6.8586838085770925 -0.007994331059386232 -0.2007514777228865 0.2666689063513021
Ni 4.3580753697649035 1.025880216793326 0.16063038515419176 -1.5203542344132717 1.3760731809732882 0.5705105650981595
Ni 4.269697843534503 2.073008569056284 11.626815998761243 -0.7768950727371071 0.8130082735198967 -0.4080777804498133
Ni 3.997390569749662 4.483742913828156 8.310068516225899 1.5630710565555082 -2.3105946181090333 0.028740048247169855
Ni 7.408029055745058 9.12857612916266 3.514675244184022 -0.06747397448225798 0.6494902262271717 0.13277742367575843
Ni 4.040622706852377 4.495102847726422 11.075209802806075 -0.6947758375378487 -0.12365155011509027 -0.36500408918879074
Ni 8.080822290660768 5.244591733527756 11.71268054204346 2.6483406429128196 1.4854147422236097 -0.22983991044841062
Ni 2.768024962108198 2.722640416477391 9.33125390689641 -0.15732374555655487 -0.5648276557807691 1.6653706233573833
Ni 7.989409316506135 9.046407473686372 1.177203734645278 -0.5139504093149277 -1.4603058629711236 -0.4960691581591327
Ni 6.24346566212245 4.108202815638258 12.021622912775682 0.3211834924594146 -2.0253281512612022 0.3196313174809463
Ni 8.882392104180308 1.5747167964758064 4.631310754748397 0.5679978259786347 0.48778480666315344 -0.12847005454965615
Ni 4.416769894627121 6.653803031516511 8.42311503575327 0.22079502663732295 1.6721076849709011 0.7025259137969126
P 4.78755445773572 7.16476090043538 10.563896878463341 -0.64491186282787 -0.1634861656135249 -0.2719784914896735
Ni 5.400107848845967 2.708217439673762 1.8327151527123542 0.14792019285446784 0.2695284872872842 -0.38205101736874847
P 0.6538529597011998 4.129368166164501 10.252046916552786 0.8749052681350094 0.21662135487560757 -0.0030043340439625675
Ni 1.3873928662424495 8.412909491898917 6.316865552428521 0.2673055114940364 1.1604152184522145 -0.895504946663232
P 2.023806717702578 1.017151004429395 0.2980957034829631 0.39882977948898407 0.12459385942370156 -0.5070598528426816
P 3.7435075450322106 5.442236186703506 4.571724911995701 -0.3399306911599307 -0.39273137990073004 -0.5907554313901245
P 4.975384295956449 3.0668970043936015 9.687408530842909 0.7471378960793327 -0.24921240143775142 -0.42303748708343913
Ni 4.419713359280922 7.223096690542915 1.4171494542269776 -0.5021413324951417 -0.5600122366699969 -0.240701792863579
