# total energy = -340863.1558696917 ev
CRYSTAL
PRIMVEC
9.34951223221119 0.00000000000000 0.00000000000000
0.00000000000000 9.34951223221119 0.00000000000000
0.00000000000000 0.00000000000000 13.68395621502322
PRIMCOORD
 96 1
Ni 5.741133561830608 0.6005836958099274 7.887651660378134 -1.5431154393691875 0.6765724271559445 -1.5021084008292065
Ni 3.2531161067639505 3.867640860576711 1.3871563076848783 0.09574376796122866 -1.952127558707812 1.6095717712202087
Ni 4.206196055627737 6.170023746099912 7.706954568355499 -0.9801014397583895 0.3552524091186656 -1.1282080375920505
Ni 5.668441102591103 6.080717203250297 9.773150070559293 -1.497338490244389 -0.9634000678433084 -1.6482668737975614
Ni 3.4647890684594365 1.107917224422044 0.19295710768832935 1.348496042685968 1.0355843033170424 1.1583722198802566
Ni 0.9131079783188792 0.9496673768223182 5.695413511036126 -0.5454459088200476 -0.46507219555698615 0.5099484872443862
Ni 6.967331468161204 8.96580845174484 11.932314319636383 -0.5516281263713596 2.7682136998220845 1.6020932034549764
Ni 1.3218901661783555 7.531471699421978 12.835250028417953 0.6349740348888677 -0.4779701345655768 0.20644801388703155
Ni 0.9777533121992281 3.639755844306138 13.494981544792108 -0.08700330276443727 0.34416889761099434 0.8651646438084777
Ni 4.747345835792698 9.28489796189083 2.1168259169330157 0.4983325002720128 -0.3149454819695027 -0.5415445168831126
Ni 6.6182674211249415 2.5706016984702016 8.376456325231942 0.11061579997705466 1.0327617462665828 1.4130132485327471
Ni 5.912762561735381 2.1285006531198154 2.6077519861599994 -0.8042714078675309 0.5536610976409884 0.250855079247497
Ni 9.114895777151032 8.693101872825496 6.979816807076758 -0.11631285036183195 -1.9848872696373365 0.5287306529478958
Ni 3.270496850394335 1.3468346653746255 5.665404380949818 0.37505324589467665 -0.4574051659300316 0.48163472790135764
Ni 5.7340933789614965 7.839743823672135 8.595331216361794 2.145575817901066 0.2027037163532509 -2.2586601340232715
Ni 6.389419405072804 4.888055998050519 7.714221009425716 -0.6010755823692099 0.4090630271812181 -0.26528359596800116
Ni 4.233038505849811 3.9519641132945376 6.044805725959115 0.14127337696191156 1.1322210154061856 1.3621090054837122
Ni 8.928644139786378 4.896143326313179 7.49321162460527 -0.9959957423911426 -0.7315513544949853 -1.1032786213402226
Ni 9.114316107379604 9.264254238418054 1.5489010030355659 -0.3335888081023029 -0.9730897843272466 -2.0326961615904993
Ni 9.089465103307758 5.978349391518678 1.4343245979566863 -1.0622479286511577 -1.2424925446699437 -2.4753228836597754
Ni 9.336067843487976 5.69478802865373 12.305544051482466 0.5792219768292283 -0.28883464381506385 -1.0165224015895846
Ni 3.729043688130868 6.372702476825828 11.530881783507862 3.3117307670505354 -0.6495221079063717 1.9903529207375978
Ni 6.7898683724923865 5.309419824803706 2.1361887572011846 1.554345246646736 1.2228724564461713 -1.6931413657127485
Ni 7.625705435328727 6.694325704843704 6.005929518272454 -0.8405208771178686 0.45575811724491183 0.8022947437571345
P 6.284209341558701 8.909963813926502 5.1732338916167535 2.087682288018392 1.3604401024217216 -0.30241958158835014
P 3.5050761175736524 3.3051741920431232 10.640576331084704 0.4570284993169032 0.006637045700543408 0.5283084778088127
P 6.540629069803417 0.3367572838083568 9.766924230223912 -2.5403671656546187 0.4194168596117164 2.2369782781744636
P 3.874017228062414 7.065192814895596 2.016317723226185 0.10733327257104094 0.5308548983797503 0.7239051508036372
P 7.07243868703844 3.2883357201343966 6.434826247200467 1.5903496897658032 0.26515606925120144 -1.1948962829482195
P 7.944093732041539 7.577620892837565 2.1505299743365516 -0.8492903957803825 -0.27027616408658617 1.6277245308698352
P 1.3860652195828527 0.2876218561186723 13.479135056153519 -0.2416739269688612 -0.6470286520605566 -0.2465091435739754
P 6.051911355415324 5.725650769226027 11.636262008148416 0.6900496357067729 -0.15622922694079547 4.087089348538458
Ni 1.2343319821554657 6.985273182538131 2.5769079446125875 1.3767570944141903 0.5139879474210826 2.3060419657413442
Ni 0.9664030040941786 5.728913749068418 5.626596424703987 -0.11861115947770541 0.8366212849531462 0.7012097660886505
Ni 7.614102690387734 1.016394847123585 6.466463127402993 1.1144143262420678 -0.06381426624248364 -0.012491190488475261
Ni 1.0960433436202213 4.360201224578622 2.5282063343002292 1.5607051274264927 -0.6859060458520445 -0.01876776752580639
Ni 7.8709244476674725 5.030467771572853 10.39738522799471 0.9587348011571553 -0.9733949742724911 -0.3219733353505616
Ni 7.357860602879421 1.994709130069356 10.840156633387215 1.146868333005715 0.27523427942280987 0.5835149477776272
Ni 4.084287762891543 3.024969304144991 4.05134101599584 -0.44414804380980927 -0.5556968971240945 -2.020816122323462
Ni 1.6318826007179108 8.53430040399167 9.06812577610927 -1.6751734683804183 0.40947928878303025 0.7886720107673771
Ni 6.753676409827933 0.679314070184722 0.9399906314444548 0.400811071585071 1.4493128542947298 -1.7903231516720846
Ni 8.767645535528592 1.0088871886323538 13.047501724933621 0.0075487588815353855 0.7692874355931784 -0.7472011452171002
Ni 1.8226781011295619 3.444902655494494 9.051171370246259 0.5038624289513064 -0.1909260069920325 -0.46300657127720907
Ni 1.3815120070234135 1.5582084426719554 1.4702594490289742 0.8143737864088555 1.9036316679899536 0.3104573642911621
Ni 2.3713448892981965 8.666624053588675 1.6032123208133522 -0.5034284267376814 0.5818005361896819 -0.43432385863053585
Ni 5.682484070279558 1.8367117193055744 5.637708320241756 -1.2410301011918048 0.07459747290091669 -1.0185936822963166
Ni 3.7770440850100475 7.813378198584623 13.507378998290706 -0.7331778343548147 1.3389335958085133 1.0622772392271964
Ni 4.031687405890713 3.2958340291131853 12.841435665849831 -0.04670845980013246 1.8035352794869843 0.5856137392881849
Ni 9.008479626531862 3.049605269430663 8.989113981409961 -0.9196321787287388 -1.263864582587817 0.5966890232657401
Ni 2.9728177237413944 1.366889369563531 9.822836184531834 0.07035746667764012 -0.8681661496389628 -0.993281171673457
Ni 1.70019013862194 3.0570848793845666 6.439491653909215 0.10681982326973216 1.2230526907777775 0.33418633247698576
Ni 4.793588524332711 1.6568551484515082 11.43145439343937 1.0533516546027926 -1.7686942605483993 -0.028473939069976768
Ni 6.274186664220468 7.911295642393671 0.747766525531608 -0.018139389913188114 -2.722332621019254 -0.36738364516456085
Ni 5.430701700206262 7.497785406092082 3.682681325831594 -0.09805416126196016 -0.719358154862903 0.08956746394718769
Ni 7.074607773925073 0.032842032356348645 3.168096315369167 0.015447187793005655 -0.8143498751494556 0.5379020350345187
Ni 2.328056646689977 8.383483418783635 6.695395289067113 -0.24979552763473112 -0.26307347569055983 -1.205320049384705
P 1.8863202323248431 5.100906998313745 7.630598035189824 0.43548162638406296 0.23652066490269588 -0.015368512036270305
P 5.480198019076222 3.71486982726822 1.1662600519649844 0.3773649247469888 -0.12039884750574749 -0.8197965000863235
P 0.630844327780935 7.868484224920012 5.223221059889939 -0.004924690995127002 -0.5475670689281086 -0.7251547069400222
P 5.31426287224886 5.940418419539942 5.2716206809504085 0.5586557226421025 -0.6973880783497151 0.6754820223052431
P 8.510561991900467 7.431618906537358 13.292677729515132 -0.9606664709622293 0.49113109742756705 -0.6654632046166603
P 4.207729375668288 2.2287367760145727 7.526942795594889 0.03284995665048535 -1.7483151826714147 -1.3864067016888122
P 3.357045287073448 1.383765239522027 2.713555743714194 -0.20493671944882771 0.13383414707504693 -0.2258703842777013
P 5.1669613037191615 9.282663428417102 12.989016784801557 -0.31028612882062045 1.0127943020057202 0.14073498795993827
Ni 4.136261702558734 3.913088840559121 8.643662585981435 0.8404488862293525 1.374351056075859 0.5690640624596199
Ni 9.237785768693676 3.9252525562466576 4.68189737879355 -0.22223381596637856 -1.0128992030147006 0.5854605015397724
Ni 7.294910335604875 2.9466671374400573 13.60742252122915 -1.4203763737660375 -0.8196841428781755 -1.5288093071591606
Ni 8.39528250348592 6.062672644236503 3.9208227572514573 0.4041198242433298 0.6030573886859292 -0.9915937566687052
Ni 0.5620132171801325 6.200764943010458 9.115622234267805 -0.03406043201881876 0.5087400687585819 0.9190246270517269
Ni 4.595780889589275 8.562236747169502 10.338886263593983 -0.23770388657751965 0.9579079343804858 2.1714899666636667
Ni 7.851290471538475 2.055265922158652 3.9921576672843293 0.9991479148668793 -0.09820071414215345 0.8113766514537446
Ni 1.7318475877518391 4.437157061491853 11.265057380697353 0.5104490810298886 0.0382641856875212 0.3051796608319905
Ni 0.24936271625320863 9.289310931763634 3.661895489769694 0.47426106114510586 0.1325462815015588 0.9985707022071705
Ni 8.475220834868269 2.273605086225555 1.6014742464503136 0.8216024429468108 -1.041960124936399 0.8560593390730998
Ni 0.5807019576012061 0.8622849636333452 10.524727457362417 -0.004124049470702574 0.7929323287056279 0.11853942569950554
Ni 4.745139350856297 8.465216856554923 6.402476934149831 -1.7906175429840516 -1.0731851443889517 -0.396852086937323
Ni 8.363092132146805 9.263328636686259 9.179307373220322 1.4048841916677095 -1.1004205830661369 -0.9162820313095833
Ni 1.5961113661133646 2.0573695624581876 3.781424331589303 0.08242211115165805 1.1758351525517106 0.5648600516806014
Ni 4.647371499246328 5.929498189007241 0.0679644107973938 3.941677266817824 -3.0183876938421568 0.9979163564526233
Ni 7.463257656642373 5.099757008283333 13.314736034220441 -2.001923913404649 1.5626005446769928 0.20545531095645905
Ni 3.1246164077558785 6.32223380866186 4.9454367607631395 1.3199686246702365 0.6881465051467891 -0.2910591622702084
Ni 3.1307309888931947 8.755734256677 3.864185280778007 -0.6810931978444335 0.048676382159780686 1.2575509816649633
Ni 2.0222527937246078 1.8842165920253076 12.05646930021248 -0.7367105300984216 2.2959149046096714 0.05810281768000316
Ni 5.834413647468235 3.8420512450219166 10.63272180568186 -1.4256687325132285 -1.1101270117206234 0.12565778191184165
Ni 4.8385503296681165 5.1229344496279925 2.910071275838093 -3.2884921082375684 0.7005284237509097 1.1260341698691834
Ni 7.815781023282315 7.404701660215746 10.86306387382229 1.0052134043346688 -2.5437291401483155 -1.718099321209667
Ni 6.555214309213531 4.109746485272145 4.382574607853239 -0.03496623166253979 0.2588206139514768 0.4322752036316233
Ni 2.8853623843553713 9.185213460230173 12.022313661357979 0.438242991179284 -1.1195372492909301 -3.1185522165789004
P 2.304196690937023 4.347766373030257 4.422504505592156 -0.5165665067815361 -0.7632507424807952 0.047483390292944024
P 2.7763190207398916 5.196505763037082 13.649582277685575 -3.5114221789400233 0.11220217062756804 -2.290079785985134
P 2.1503224151603306 6.574184469959119 10.52604106386057 -4.35648850933673 1.2057717922101427 -1.6412768156329733
P 3.5516834370989177 8.288352129682417 8.50716531403015 1.5630353182215662 -0.6623997351999883 -1.340150241824434
P 7.573282719064302 6.5028383405113175 8.585027118699047 1.4443082019912867 0.14702210652023068 -0.27667281164154933
P 8.386194777391927 4.032706502746932 2.608298932637878 -0.4799987349598315 0.3904233005928437 1.6899601397712896
P 0.6297177115316281 1.0355987456802338 7.989679149856853 0.380896334939015 1.1365715790653974 0.6876420547065448
P 9.006488180381636 3.359466810796024 11.697825742727758 -0.03175081004903565 -0.013544571453654093 -0.04634593425439115
