# total energy = -340869.6024885747 ev
CRYSTAL
PRIMVEC
9.29734089688420 0.00000000000000 0.00000000000000
0.00000000000000 9.29734089688420 0.00000000000000
0.00000000000000 0.00000000000000 13.60759819221015
PRIMCOORD
 96 1
Ni 4.658209502428075 1.7297888619467818 5.901683285671248 0.3857356653091873 0.9712715001715853 -0.6981995185074169
Ni 4.003723192489221 4.361754491721203 10.053511258614533 0.5065019234566824 -0.9294355379724059 0.5659327159194899
Ni 4.419900061468452 7.423815109744383 12.670933058079454 0.1702607653331971 1.789648494202563 1.6733762672706793
Ni 5.102854829124939 5.846409664516087 4.368950633547933 1.159028622517333 0.2901675036938745 0.26907031670394305
Ni 1.722918127050201 6.7821219408308275 5.000806286096033 -0.807362388088029 1.1100925589382624 -1.6656663002209315
Ni 7.302958975886933 2.1484295262542856 4.245869646022348 -0.8959284073538958 0.8250626335812694 0.5192024017424864
Ni 1.3390960042686721 3.7779744590333606 11.99403643772826 -0.7648553679637536 -0.036417876507401796 -0.49383615506355594
Ni 0.6753272292137876 1.391049545002223 12.739528838954925 -0.9317554443548339 0.6175823217749816 0.43575622020168825
Ni 2.4204697198590996 2.215565624614517 4.2728263561159165 -0.9566159550419396 -0.5402497093310888 0.22293367024688057
Ni 4.523063355666641 8.33409915880317 6.449021461118713 0.1577250947600316 2.4321987987767915 -0.068575692186869
Ni 8.484939216938663 2.8134776154117 8.920937086900329 -1.139267637840322 -0.4536868365381799 0.5918910876564646
Ni 3.3583203845719636 3.9115121658257714 5.79930003837133 1.391837128675764 0.3031844847788327 0.7556091667751373
Ni 8.28974154555339 8.725545101091054 1.3236066343935655 -0.09822848205629534 -0.4190250234899364 0.45326954649510326
Ni 2.298525797120865 9.092436766163958 1.7096861515362443 0.21753769604228987 1.1805626399343667 0.38017565472290654
Ni 2.3788269301408507 9.14472501116852 13.01034736197055 1.0024952340725575 -0.690403933722398 -0.8462117568550589
Ni 1.400765266202395 3.649420126942665 0.7627287414496309 -1.401150178546574 -0.7565327070306712 -3.254406479407769
Ni 1.7221929344630111 3.295944524732773 9.749939133478254 0.8437298709734694 -0.45851768226791995 -2.176783610962438
Ni 2.814500322906455 9.0090210239554 4.651553536105393 -0.21090167878301097 -0.007637461940599749 0.07492297456113549
Ni 7.020384895086144 3.692596977903046 0.23325354699918976 0.734390109495361 -0.5234894591536146 -0.8688860585241228
Ni 3.7888430505003474 8.204047954833788 10.391551415526315 -0.036615080119872426 0.8948269467596008 0.3106301424236005
Ni 6.731497919840457 6.722581769954366 2.5435460587142535 2.2336325016306824 2.8465176750403107 1.5184284781454689
Ni 1.6179139593614529 5.667175527389853 9.655366582236006 -0.4110633454406985 0.6497056846720874 -0.31212626735315274
Ni 7.575863822191858 8.171144665525263 7.41340580691595 -0.646985457527447 -0.23867756334469867 -1.088143565470997
Ni 6.756219549190942 7.60921338386173 12.908167726435499 0.9834706133409385 -1.5821391289305526 1.351194158343421
P 3.210669314351934 4.44681586326223 8.077102992446202 -0.40745634481573045 -0.13393801964276286 -0.26097288440778926
P 7.734169645039062 0.2102305418240838 12.96593210520743 0.39598639650291806 1.7676267385158333 -0.7745047181280598
P 9.113123349580592 6.165010941154835 4.0502879944595005 -0.47842470560449224 0.8564537462980412 0.05712682691997903
P 7.098547639708006 0.7948650001370895 8.161415928047886 -0.6389129649319577 0.7067942021549634 1.6470438000237375
P 3.3395862427362255 4.1221341257001205 12.720641290994974 0.2322292366161936 -1.5406775193516564 0.30086252151387544
P 0.9700287614341987 7.4127884634827526 0.8908730608083386 1.0074386941207616 0.993706946356966 -0.2903066003749
P 6.559329761768894 6.588198005143568 10.879546523723581 -0.06696669582853627 -0.07975999093846264 -0.3626451020383109
P 6.85521763468322 3.705864283312276 2.4465236581550247 3.215363763683011 -3.2020104823045563 -0.7931261898839889
Ni 1.284976183114413 6.049370615520636 12.88217701005743 -0.4760078686328835 0.06801853413181834 0.5946668506293887
Ni 0.5366443739886733 3.4778191066636475 7.131306820233179 0.8748854706406676 -0.9814643815441871 -0.6568556654533075
Ni 2.7361888208308107 2.1113331362172656 7.110269727066069 -0.8958445893908379 -1.1791809290954918 1.8161663379874335
Ni 0.7135644029745026 7.84960542917431 2.912488717181184 -1.7621538883267198 -0.3010532973684428 1.8118098607909505
Ni 5.254540945278819 3.525040300898741 8.026999622544071 -0.3729729663268802 -0.2275302884786275 -0.9111205417133018
Ni 1.7358507281884203 5.4572415707392485 6.848486359899561 -0.3676386985981604 -0.0788243664980707 2.980932634319492
Ni 5.781802442870159 5.453875933347418 12.756279857984927 -0.29479240406039553 -0.30837039985514636 -0.955432990477432
Ni 6.250592963784101 1.4782586022822353 1.9946701030883114 -0.7471744057442229 0.6152665291576114 1.5950131566797432
Ni 8.314602635016797 4.601486425832622 10.92766305188363 1.0638456121555806 0.20157448784481413 1.5099569503393477
Ni 4.898145978038446 1.3890413193761588 10.134558038371607 1.6039436264001536 0.3603856165801729 1.378390773362871
Ni 8.015107393848243 0.3290756608532107 10.695858030590648 0.16589400372406912 -2.3730076331286165 -1.4250686370353844
Ni 8.569656586867817 7.042996028061089 10.083053559201659 -0.03928825607666137 -0.2951225337063046 -0.5089627262923493
Ni 3.589182655501599 6.467778846306604 6.10619224392922 1.4184701578822603 -1.7752680571111747 0.7522178817054013
Ni 3.020622369803882 1.9481833987812687 11.486881369483802 -1.10102607786062 0.4870641264470451 0.7642958959158579
Ni 7.5416682025035975 2.3074233523252334 11.368754005169176 -0.8579817529067933 1.9797545763964615 1.5173365306328706
Ni 8.778326105161272 6.059077039379946 6.321178375603915 -0.20725739716220434 0.5916645734679552 -0.8284508333272119
Ni 8.201816593027049 1.2867333805372192 6.48139387226405 0.6995426627988727 0.47718800498391356 -0.614884206117528
Ni 0.5827526765226566 0.7726192526579972 8.377803168990393 0.419498106471613 0.3923675688034082 -1.1361859135912045
Ni 9.214083173994627 0.8411955091176606 3.4657056012553182 0.6397956246472272 -0.34569587577848204 -0.1227436935888402
Ni 3.3598916351775414 5.579408629658157 0.6460220108186279 0.27026716522552163 0.3233339631435141 0.8814099020227465
Ni 2.7632068933740643 7.521009511109549 8.405835581421627 0.15000381485637393 0.47419986888986715 -1.3256471631122526
Ni 2.5515715233458214 3.824479758022126 2.555152859045636 2.41491969998137 0.5872119370132403 1.8843936456959482
Ni 0.39512675953491544 7.6349577207069705 7.940849532388174 1.2950600343540148 -0.5030047089367015 0.18354488403661295
Ni 7.269851145079457 7.254538424680718 5.002955831303191 -0.7157328994054899 0.6987667038647966 -0.43127478739156694
P 2.952891241628521 0.9681414012393328 9.525563617267622 -1.3227302465757735 -0.32353425207977826 -1.614919151575051
P 0.051244153625825455 2.5542584548547684 5.023340251141828 0.3466865218265255 -0.5811973553880442 0.996167749192633
P 3.168003817138931 5.203331191814181 4.096771909564285 -1.2789880684928165 0.6402543094512005 -0.4400612753349454
P 7.201748123269641 9.071480559862342 3.2272185810852414 0.017092179595596373 -0.21550343922108048 0.353877640258326
P 4.325578538429463 1.1764483232391914 13.067103908993104 -0.35532388578654933 0.08285405648275408 -1.1084812485870845
P 9.011717252805209 5.310799154831202 8.299464704626251 0.8191377834564022 0.03495286192610109 1.0717394130813607
P 5.880214795888168 6.769821558871183 6.914197175905739 0.5141203592338888 -0.2512263465439866 -0.6140665953122392
P 1.8088999353365072 7.462436263682674 11.089729649109273 -0.47937087156784536 -0.7255295737809375 0.07863050531970975
Ni 5.84411322132332 9.175713048259594 11.699867643139209 -1.2040095581033974 1.7534332206242706 0.33010702020128957
Ni 7.610356956787683 4.039927037803547 6.895827489831768 -1.2556956736237794 -0.5248824828463993 -0.6610781881750873
Ni 0.19803336034800192 8.566895276631978 5.6078547737577225 -0.43783238600442664 -0.013564111837679867 -0.4273610541594576
Ni 6.14840589037636 8.438461809972482 9.415328765610246 0.3876524227159259 -0.3629289518273169 0.3354436019228545
Ni 6.998210737131685 4.970265451100392 9.129051553944358 -0.7319064238415588 0.7331089287900923 -0.5417828581461637
Ni 4.918014395459276 8.307155464986808 3.342325239353996 0.25598160184078494 0.7336264918564591 0.35147802967789793
Ni 9.158559454370296 7.891396976346341 12.27345500104069 0.4575671454291927 0.7284961126084293 0.7177288467895961
Ni 4.867167238288233 0.7333147441663928 8.016113366129447 -0.09341666248994879 0.1311062066209226 -0.28272698825542925
Ni 0.7016089523608173 5.168596326355959 2.2984318939781647 -0.116237002818574 3.382135284916027 0.04433841690605912
Ni 4.8895738297642275 9.294802687353377 0.9751599638556101 -0.5068312817716433 -2.162291073773218 0.4080854937592972
Ni 9.088364530866661 3.2396956125212517 2.9824047204589768 -0.601405712015119 -0.4475598977048356 -1.0250170693241571
Ni 8.187786905667185 1.7310254082813492 0.9462099038813562 1.6709465747832644 0.8177185345113724 -0.719450200356077
Ni 5.757071516178812 5.072582687280193 1.5541918445655312 -2.7963605945699457 0.4360066456495975 -1.5354255269240977
Ni 8.374365942073931 6.39877398243323 0.7752615569308096 -0.36790815020946316 -1.0356712066038938 -0.38752798132291966
Ni 4.980334471253297 6.396375268490987 8.84129234614516 -0.6157943766366234 -0.33092051724152044 0.23620107677974808
Ni 7.314627138668001 4.975908937003267 4.032843393801239 0.5967558719479336 -0.9688886017617055 1.4725597406378124
Ni 1.047866099125911 0.20335422852298604 10.625398132872464 2.356889130300199 -2.633536745130767 0.21380265447988983
Ni 4.372037350713921 3.1585019347785708 1.0348200704291826 0.004553680808953448 -0.6215119958466908 -0.8304051288401053
Ni 5.176945338449504 3.0508201329217375 12.232345878687884 0.2120900426641573 -0.1127788690666445 -0.7140051180811058
Ni 3.2519773997991726 5.9041275565837115 11.675101386552589 -0.13432188534474288 -0.14800503925879027 -1.6885000102859953
Ni 2.8410442310657764 6.977031394649396 2.7375629678101268 1.411493469454111 -0.6576156835477837 -0.13021583359616928
Ni 6.296075555278112 0.2182002224104832 5.228815203115302 0.3874968709746681 -0.8226324268732219 -0.04903222283730265
Ni 1.049232808232538 4.4867293475802565 4.779083301233162 0.18258560544713714 -0.8952678909517613 -0.3153013226470247
Ni 5.103282506804564 3.3907402121556953 3.464971111327267 -2.002477471915274 -0.4365818014267771 1.3236162487251528
P 2.005864101485447 8.969637488066475 6.718098592190995 0.11204764732757477 0.03420158558237336 0.8338645481436157
P 5.850156492883236 3.658940603984747 5.639532673540713 -0.10084509374353601 -0.05980488797277443 0.2950600558994854
P 0.3014281583336402 2.0749154520631286 10.664791895836338 -1.3176140083951309 1.5985263120393243 0.45905632838020943
P 6.033128161035755 3.2352328889077757 10.098742821905287 0.30550619093347386 0.7711946799182202 0.2877079864097884
P 4.962074493801491 7.070237236785016 1.5012035097941052 -2.143653918288005 0.982519819391895 -1.3634830030131035
P 4.335963668171655 1.2638061379729857 3.833764082606329 0.43726365798515016 -1.0677865990811997 -0.8892738781518555
P 1.5332151841140211 1.958503447137432 2.0500115948317594 -0.4110713158604985 -1.692866000564175 0.22015559328111114
P 8.879676417891485 4.677789702282202 13.18508251585395 -0.1252011539903973 -1.299127005334537 -0.6180502625503356
