# total energy = -340861.9897054276 ev
CRYSTAL
PRIMVEC
9.30823947152065 0.00000000000000 0.00000000000000
0.00000000000000 9.30823947152065 0.00000000000000
0.00000000000000 0.00000000000000 13.62354935783683
PRIMCOORD
 96 1
Ni 7.309006328220705 3.4605706531225717 7.146001373018184 1.1479744215857002 1.1242737355346508 0.6941312619753142
Ni 9.15293129386113 1.2155350410310464 10.907585590820842 -0.2726870875209239 0.16296500300273223 -2.050416204578082
Ni 0.9600890308538081 4.602756768737423 5.978871968642194 1.7809746205776489 3.207310811471547 0.6371383895300382
Ni 6.697203685983364 8.520445743974705 1.468754520375854 -1.2715010160871523 -0.7130538099114301 -0.5989197123684717
Ni 8.635514197781177 7.9595312458046665 2.7673246406033103 1.757571154052044 0.5405443577533723 -2.412612649114748
Ni 6.9945181563791365 5.324070845939425 3.2906589843846676 2.1464991010462837 1.5633973295466754 -0.10403866098016921
Ni 2.9949725250365224 2.8190654193873783 8.877349700503649 -0.7785773455355365 0.18830245332625636 1.3193790707153537
Ni 1.5583574931983635 2.50700669799424 5.047198199795748 1.937787487936056 -0.34374543692033055 0.9003077673685141
Ni 8.121848322125429 8.29140720859515 10.86287346350654 0.7576187410059985 0.1324550073393332 -1.1024124166851852
Ni 0.8737374260069174 3.3047414195702216 10.162881769991198 0.6560465392884508 0.29120494381945333 -1.0716417111612317
Ni 3.6573002900097897 5.697154383960556 6.91833766457822 -0.21339024953281957 1.6852092553498657 -2.033660325275981
Ni 5.134592327440433 8.450419859976478 7.5298582671658 -0.5885422257888896 0.8154544210675441 -1.0856567944934012
Ni 2.8414145018650796 8.002442228820994 0.16502111982753956 -3.1970765353380486 1.2045872849837385 2.065154025008889
Ni 5.287210218446008 3.8744615120859103 12.521975891928834 -0.9195874415337324 -1.976214681564003 -0.5501805952915557
Ni 0.4525163286215926 2.9628311748509737 0.7962798437787038 -0.468530843529548 0.2721301865761894 3.211015514016644
Ni 7.020469527452785 7.674578117154162 4.1739280473999845 -1.9786631431044959 0.7448339305365044 0.5692134435532906
Ni 2.808649499648708 1.4693334928582 3.3315984823244533 2.3955009291351264 -1.024920395845293 -1.2171489236988329
Ni 2.330513173271337 5.363537780427327 8.59692223778428 -1.158329025347147 -0.6817022921833421 0.8470226827921283
Ni 4.8488852314093815 3.817150682925058 7.4651324946056405 -0.9978361380339913 -2.268937090469247 -0.4473578089963586
Ni 1.1789908936726732 6.937179402500486 6.7231941516619305 2.057403691639508 0.11327252087361138 -0.05996558192035478
Ni 8.307799017942601 5.741536068780913 7.960294521424479 0.4254679509018028 -0.2934950254052107 0.9898536340491468
Ni 5.148694309928445 0.42244140755309945 5.125424642587334 -0.33886445467894544 -1.5756249819611186 1.7340234486390909
Ni 8.832830253742154 3.24885475101707 5.2029017721180075 -3.335550495177953 -0.04351232146033796 -1.1316348038854123
Ni 3.7719591812885573 0.23582238015662627 9.305306239821862 -1.3751632675645091 0.5616968234612714 -0.34898560227334735
P 4.393628557147873 8.929235687820267 2.3771046340934467 -0.7683975767890573 -0.47927394097866494 -0.16039544250334312
P 5.278209151075771 4.654305797792612 4.004641892340757 -2.5564879824758813 -1.1133095232136634 0.1652152324894897
P 0.8975600027604286 0.7215579530707716 8.630272728250484 -0.061686935486835695 0.09292815288930446 0.28319210081730584
P 4.628978078749786 6.173838625012428 11.405675989712769 1.1709765389078284 1.2389300241296664 -2.443156583339876
P 8.751271461293335 8.94985343779449 5.342828809708298 -1.1172319981965209 -1.7063591499546031 -0.18640575052417574
P 3.6792305017205202 2.757947520366727 11.463017536063198 -0.0962980978028019 0.0914291997462748 -0.4432710405214946
P 3.0707695173796794 0.4787190221554236 5.305445989992057 -0.3574802700079198 1.0535856249904694 -0.9137672353075295
P 1.1909892140865659 2.8281595691502748 2.927278354974431 -0.11431664586740957 -0.49091589609296743 -0.782087415571324
Ni 5.187230420489745 8.558879463904079 10.685181037566176 3.60058392280836 -0.8080018214442407 1.0859139048095299
Ni 6.566134368878613 2.2823709597875097 0.49427774408856695 -0.9891200983172321 -0.4008668645236709 -0.9777411670563291
Ni 8.436792597691033 1.9887890933374097 8.866764370810337 -1.3234411565998692 -1.690427309215695 -0.42620997127414983
Ni 7.31597819943095 6.084386445666029 10.682060915764207 -0.11070553147738353 -0.51977730040935 -0.34349295458989226
Ni 4.676180160067746 4.339519762294531 9.894770038644694 0.13769542980266608 0.36797242778849526 1.0993795433961324
Ni 0.5509891226406874 0.7103620028816093 3.716476490319551 -0.8975278906305316 -0.1959244886478884 0.15900421858277133
Ni 6.134185525739206 2.5003419986797737 5.5123057836724785 1.136516814568062 -0.5247436432756898 -0.7521248077709628
Ni 4.7638358492358055 7.845747329016904 13.206055150418925 4.6657492822166295 0.46288675786989314 -1.2589154661126576
Ni 6.625409236524595 1.992763711503998 11.57621596460113 -1.3231362237649407 -1.0373951312735359 -1.0267803318721673
Ni 9.240298427611942 6.660659538624992 4.5181551128725435 0.5974541835665389 0.044428148406388 1.134193308641208
Ni 0.991299557112755 6.920973757938355 12.920492332096496 -0.3033701184270775 0.8538541038916649 0.4482630944194474
Ni 0.10764885628753205 5.001279724672571 11.700121660766754 -1.3100567648731631 -0.19062004571583946 -0.6599996103989278
Ni 2.304226705584112 1.1401941524119243 11.071722427918111 0.4553130592876933 3.212129058795797 -2.0634164734924916
Ni 6.66348924336186 7.589733516244439 8.860824783334692 1.6798333357499327 0.055747944294581415 1.5041850808525772
Ni 1.9814635090350563 8.210444143459355 2.7012640665324046 0.02545546395862713 0.47488146833792405 -1.4394506167886694
Ni 2.3092066135914298 6.080923780659071 11.045619332544426 0.5435232378760381 -0.4401150113910162 -0.37645706822073877
Ni 2.339923803169278 1.365276686103423 0.7476722183315756 -1.8023484582677347 -0.8391936736660128 1.5870357949012217
Ni 3.9206303788453427 0.8951007659463476 12.9806533441206 2.008551188913179 0.48348335107432217 -1.4251534834397066
Ni 6.220761459152408 5.779653308575242 12.873504340281654 2.0277856116627593 1.765455184785811 0.6693779662900343
Ni 0.2932253608862116 4.737763471051699 3.105991894762278 0.017087037389273797 0.22656303946935172 -0.4083935119180192
Ni 4.410979115139725 6.737424587851814 9.15729965054867 -0.6527694111990757 -0.16214404976333366 0.357440675019236
Ni 5.433628822100418 2.064260297306256 9.229641424476283 0.6083934561868619 -0.5468720997436131 -0.19577253645105638
Ni 8.176701776120053 1.4269065382837054 6.578253696402965 1.2787805804677008 -1.8786677989557643 -1.0838243692703526
Ni 5.507629324265233 4.584596393929429 1.3607649825311856 -0.4462514633060573 -0.16223275282239802 0.25922324870653424
P 7.588560678096921 6.259548892173891 1.350480308966166 -3.046176433919651 2.11238390453013 1.2036876559876046
P 7.911416957038638 3.453226452341686 12.350987259907852 0.11470256845191859 1.8136057763491087 0.800480316256215
P 6.199929619675068 0.4241345762755875 13.014822028818289 -0.204735402071299 -1.9214203594319423 0.8503861999477226
P 5.270725326705896 7.466408654209012 5.559661450938328 -0.7599998396436654 -0.21165655467116454 -0.2826244012392939
P 0.6114843004544428 8.97638191970263 0.8255449480310535 0.036188534105415095 0.022007357509026614 -0.15816681028314053
P 1.7397192270573918 4.943624490658877 13.115731719877223 -0.027641415866352395 -0.15381367552076736 0.17063331818126745
P 6.932255343928764 0.5011900425675094 9.979467569374012 0.16937836272824378 0.006239553151808609 -0.7016615089140883
P 7.625328223197679 2.157547471230254 3.867548282783041 -0.1734327353032755 -0.3842637087493512 -0.9062346743759103
Ni 3.0875522727763034 4.078432959122088 2.7414803142812203 0.5522829863465392 -0.033370605040645755 1.7674729865467882
Ni 5.90550070345176 5.440870632249376 6.122981198134704 0.28612392975212014 -0.25268004827137774 -0.9801042679718668
Ni 7.699254259448367 3.4208710126530195 1.9914763820135082 0.8270778642390854 0.6358677503477307 1.417695484499765
Ni 0.6800217969940348 2.8842510189672788 7.483319863307507 0.9222680736896892 -0.47529078796120083 0.3794922555026367
Ni 3.7463429068284855 5.622781552225099 13.123332828061852 -0.1840699033021475 0.9207328679920852 1.562535238656696
Ni 8.608641311020193 1.5349751961621347 12.970858283940974 -0.08051075306155811 -1.2516348732908444 2.231809589489331
Ni 1.4159041994712762 8.135978229331238 9.9145789026267 -1.024586923765274 -0.021740991221517396 -1.5627355275929602
Ni 3.1578108627561816 3.6393540047049138 0.5181105599052708 0.5005313076955444 -1.359093872806472 -0.42175964881228006
Ni 7.2845163507118205 7.462527118435084 6.554507447211434 -0.3978126510783794 0.15510514063868125 -1.2486300250262496
Ni 8.982153028047561 8.10278504810863 7.814250108988563 0.42760376629788294 2.1140687484317207 1.6943824372087015
Ni 3.2254910704593733 7.722720330637989 4.630235621874625 0.761934594772533 -0.5534348405627952 0.25347014827284087
Ni 4.9156718481430355 6.892146140931508 2.058382144209768 -0.15803696957349558 -0.4097471977324363 -0.036638477158640124
Ni 3.1268702754359485 8.49934396555865 11.33480677923704 0.3346002800859528 -2.8685486866984213 1.737452786035614
Ni 7.9784083550361435 7.554725228364958 12.960558717193129 -0.42121611760398425 -0.01986280036219805 1.4193461327293104
Ni 1.035913947914763 9.102610952389055 12.15446705840412 -1.4776921767683713 -1.1926532525503137 2.6693707241102413
Ni 4.102783313041982 3.0692615826185845 4.852912906539785 -1.2860742859156367 -0.13771291330416283 0.515382513775764
Ni 1.2334068604217945 0.34739093599907706 6.2466290560726625 -0.413673786480352 -0.46694035911397647 1.6570531046306236
Ni 9.021005618743905 5.250275125038462 0.48243394044649 0.9812903178601681 -1.7782801044646213 -0.7265029934378003
Ni 7.764793572120374 3.644054665534251 10.117419398592057 -0.9390571202225698 1.8517491201880496 0.4453562051852975
Ni 5.793894914652245 1.1689286870261113 3.1628159030095175 -0.011893151893160162 0.569270007822839 -2.0354598403785653
Ni 3.7249246482773857 1.359589351911888 7.249648617245256 0.8984455173487946 -0.3581374439759445 -1.8747790054243199
Ni 2.3639297522363294 5.904169625236721 1.4908792742872439 -0.528198948814142 0.7676586417405037 -0.6560465392884508
Ni 8.078043748139564 0.9219382813981208 2.026134680096587 1.1855716631131838 0.8289066899177079 -0.33996720082482096
Ni 1.406102623524163 2.880267092561424 12.53701614493486 1.3635452237096064 -0.5881395910338323 -2.49826483716793
P 4.738145108861605 2.4845924578416767 1.643000105316014 -0.8781798251212231 0.39142654504637747 0.07011089788447279
P 2.7426447750133987 3.4176410536277126 6.7594869765601215 0.1487768844278083 1.1824038069081635 -0.09520717873146828
P 6.380546694392814 4.725867541269732 8.47955557970303 0.3545610394785958 1.7521492117055242 2.693666877653445
P 0.4969864417149772 5.744403006474846 9.644995538652239 -0.2923794237435287 0.22349545628762155 0.4607224032287227
P 1.9889845663619963 6.153686287001507 3.5724491733325805 -0.1443864686695965 -0.05238211314614204 0.9430464438876209
P 3.0085997873219674 8.125804323813485 7.841782949913509 -1.1872863318114455 -1.5387857016455821 0.026587263570225176
P 6.283014963363514 1.0615395306141011 7.362656226878234 -1.3723959892320172 0.45914940231464796 -0.024597486833706023
P 8.020891159046235 5.354471555382228 5.786738740304533 1.2529358514904552 -0.7004970562923419 -0.5589771105372631
