# total energy = -381169.4300670418 ev
CRYSTAL
PRIMVEC
9.25316182638432 0.00000000000000 0.00000000000000

0.00000000000000 9.25316182638432 0.00000000000000

0.00000000000000 0.00000000000000 13.54293765684642

PRIMCOORD
 96 1
Ni 2.702848612310946 0.4859001908933581 9.956537379104132 1.7583450561035912 1.43414154587093 1.6119945217290883
Ni 1.661229422173216 2.2899632719140723 7.32167822502214 1.0697578638749576 -1.136906593807313 -2.491558628792348
Ni 2.7258797324617223 5.430393913927807 7.622575322008484 -0.8902688950752733 0.5153215786308415 -1.3718334318603278
Ni 3.618587786968093 6.716426124420146 3.686929790668217 -0.4681647184393808 0.1964613349879649 0.4229901787852715
Ni 9.033899046879922 1.940212255658923 8.477797892046066 -0.07422414872189798 1.2681081883555194 0.975289877302359
Ni 5.418003930045971 2.6924943240631674 4.858555906526483 -0.7343376589908708 0.10218720959372724 0.5340754621995769
Ni 3.7374446525111744 7.167730593328882 10.706315541878485 1.1541008461984124 0.09894324873513283 0.8923926262864953
Ni 6.440802188730635 4.867912703913573 5.119216553989469 -0.3870333010746883 -0.34737634880469853 -0.28510654423119935
Ni 4.693555372856485 0.5007126525797236 11.874055329708096 -0.06781438854081225 0.16315680729856416 -0.17514200468489838
Ni 3.3458971036240204 3.629673075011737 1.4506246797193276 1.9380757086004363 1.2661803752051872 0.49546623446781124
Ni 5.062858320360567 9.008101231299221 9.570469552737386 -0.2083632286318734 0.25987759446108144 -0.6343191749136882
Ni 6.697281332298025 0.3570526863680373 5.764822619271879 1.4378876431769234 0.1500848046059544 -2.3805453362665583
Ni 1.8890052573003855 5.234754310332837 3.0063421465469107 -1.2150506464089073 -1.7364235734401514 0.4876454528718117
Ni 4.650990827780723 7.0404533503903775 8.46642205471647 -0.0608073610953598 -1.4768776512868758 0.7936373251924524
Ni 0.20960910222559453 6.821273702736118 1.9537450050444238 0.32634086829063796 0.18205004465864133 1.5411562587602876
Ni 3.731328312447027 5.471811066918919 12.761022722526423 0.6823980326987861 -1.1103820651542233 -0.611270777734657
Ni 3.5562122221081545 4.560152536691861 4.886359807622929 -1.1293344378870098 0.8035065046770484 -2.1933361160044806
Ni 1.6687707491812045 4.434096711133792 12.038331340795608 -0.28242796895777167 0.017108120435196342 0.03537323729297133
Ni 7.578607997577616 0.40425028964367726 7.900150749558099 -1.188122968780128 -0.036722809342330305 0.4815676221088481
Ni 6.764431528736028 3.481011774753649 2.9641023874564003 -0.28369552281628563 -2.6765415308270675 1.4615297080758958
Ni 8.582825907020512 4.778564171902363 11.146474577190753 0.9416320800385977 0.14179788200681384 -0.3940914934730503
Ni 0.5665266924288261 8.367930473359747 0.14455197102588277 1.0673829358848776 -0.2947903471778665 0.5662690162129861
Ni 4.139290970674269 4.579075252926629 9.264547988799706 1.9431286976433118 0.8077719648216217 0.4522945841763436
Ni 8.67891074094806 7.6860279549220785 10.617027155420102 0.07432159353171071 -0.12399582082838645 0.4369409845384088
P 2.351496799034469 8.218482654333954 1.8235021236935756 0.16235642288445584 -1.0187875434746776 -2.3559979859444975
Ni 6.868381550340619 1.9595421110205031 9.596823483352662 0.8200548959540329 -0.5135395470297542 -0.023618667860204487
P 0.7787257546906611 3.158113434544122 2.8852552689683386 -0.017921103254794943 0.19568126228883073 -0.188995622738539
Ni 4.963766208791797 2.8454768509626436 12.820882352645905 0.7110038693609367 0.08749618324045576 0.6913074193732739
P 4.810367289603536 4.398749632396963 3.0432881716726734 -1.0865571948204837 0.09378792978643848 -0.11457504173511882
P 7.815303880846749 8.892991896355202 1.3432371084417696 -0.1866173523143496 0.2730799520839684 -0.021732249470769023
P 1.165500522632146 6.600113878419637 11.816904100098109 -1.297341888409656 -2.4041295513444014 0.1969627001044156
Ni 2.9538221245044056 8.024240278196908 6.085383610767028 -0.9097527148314977 -0.9660333917010974 -0.49986436353550695
Ni 0.1787544336266529 0.6513124902711539 11.97595207467088 -0.21801489278902453 -0.04407410750107894 -0.7640375000481486
Ni 2.5074866035751664 2.9541274788495144 9.403552689222781 -1.689435377616071 -0.045870794390185515 1.3050330864063266
Ni 8.555806674059376 5.701567078708309 4.290132315893194 1.0701561277546408 0.39567683568229917 0.02551948442734315
Ni 4.611886965282859 2.101180261341091 9.648421890462659 -0.2289564794021928 0.18061048399863733 0.1582172039051017
Ni 0.2323468971418276 5.648972106053822 6.670411075244654 1.9516557612777161 0.037983935442941034 -0.08441703009449977
Ni 2.045624276855247 5.812558756574347 9.803299464934202 -0.14069539297125447 -0.6319761286028084 0.9688112115565508
Ni 8.641481700767308 1.3457058520561638 2.9915676228246344 -0.705683485589288 0.5196297190878921 0.7010400732800056
Ni 5.515532257241306 7.969794673147823 3.646991292960389 1.0615771278363781 -0.5574447330531368 0.6309649137294746
Ni 7.27383660167318 5.998621337527269 7.281563917236825 0.35627442262527675 0.30475002949373964 -0.12959362663113808
Ni 2.537207759832417 7.86154193122579 8.609841438716858 -0.989368209772296 -1.0196097822656567 -0.048411044313535975
Ni 5.4114156787212 1.5368946847421232 7.342682902700831 0.8037777560605642 0.914847869966218 0.3268152368238952
Ni 2.172855253983886 5.545919641160611 0.8263980451755155 -1.3733812359634219 1.1360951536496111 -0.7854825572958021
Ni 6.154176243455237 3.7748459332060076 10.99537599406898 0.27950899553876374 0.24045393851883107 -1.071112063910007
Ni 1.0211326895295254 3.7695161119095646 5.226369094952913 0.5217915026259013 0.5591475746768564 -0.5796922315974274
Ni 8.048113436087228 3.7970072561313235 6.34804941842956 0.3824924757815413 -1.2775477365018644 0.14070593449421573
Ni 8.809260033661596 1.2227775952449658 6.175863804487535 1.49736034462126 0.5464383546403041 -0.7779931908972924
Ni 6.273079374808183 6.201570939080901 10.150296740186189 -0.5674640649623517 -1.4975169248037823 0.981246094885794
Ni 9.020916860631816 7.765068464495377 7.688406942865335 0.8204791279756449 0.42195993774854423 0.7851151466540544
Ni 6.866475398974182 6.866660462213642 1.062978263919987 1.149481088038214 0.6309649137294746 -0.7089752689666822
Ni 1.4288270060595503 2.9985426563198763 0.5638738108911693 0.23772831205755185 0.03443709863194715 -0.10333957803061558
Ni 1.9398698886659222 8.403999298730469 11.578087392104766 0.35875707983781435 1.4567081183175365 0.4644098793826389
Ni 7.014303914654702 7.705357810283659 8.784260765959166 -0.2716205939296225 0.8759272816416205 0.4128422917179922
Ni 0.30814232281119647 2.6726647979550457 10.93562462594458 -0.21965885615035072 -0.01440383413015584 -0.8041245978770216
Ni 2.492246645805649 2.0433202395239722 11.928349182900824 0.3281228998917252 -0.033560866674580914 0.025053600534518144
P 3.946658644720522 3.6596995856140966 11.270270780595018 -1.80789355645568 0.6108241771155415 -1.2367587275099605
Ni 5.748017951812729 9.100558825733357 0.4636278300243665 0.15028586487316697 0.32343860704217847 0.5531857006664667
P 5.287136460261945 6.830323295145703 12.778777689720199 1.1857544685479515 1.5801940893890398 0.3161006786198685
Ni 5.952679388331364 4.585339643582345 0.9239402521138101 -1.237250065324082 -0.46658606109835127 -0.2475103311449802
P 6.883325406927002 9.28693601419336 10.611609429084913 0.8945531242729238 -0.25246150450266847 1.0713316361199807
P 0.8854582021005312 3.9600387169334685 8.254678248023707 -0.8540212255971485 2.509626284927336 0.36580730181637644
P 6.971471027881722 7.1568951406585075 5.200542594570096 0.028617920847008777 -0.11672011310257963 -0.1153718266048013
Ni 7.87817911645323 4.008229184488811 8.814515829662257 -0.1417135498231237 -0.024054469846042446 0.7926155687961575
Ni 8.93668532719167 1.3249510097507429 0.5761305492405945 -0.39289927293716204 -0.7214091238546608 0.49134578454153444
Ni 9.093989080732532 5.971343016030888 9.208074090646143 -0.1386603648190967 -0.3098428706356148 -1.2249465653663807
Ni 3.39559583658096 0.6881752369391593 7.87834659868494 0.4131819344455981 -0.04441426444931706 -1.6420103513648883
Ni 6.530261758685521 5.731177197021883 2.964467887354333 -0.7576665635247984 2.0017863593855205 0.5789080451332352
Ni 6.020403280811692 0.8930754050366981 3.2665429118598386 0.44545596398795545 0.9016835646701181 -0.8024040156414891
Ni 3.515054157652286 9.291840190039046 3.231426236856137 0.5624516993494248 -1.0710837817752328 -0.6837375774458161
Ni 7.266915236517383 1.8775683491017676 12.086286778036836 -0.1809830368467077 -0.7959639164431002 -0.2884042411458646
Ni 1.3036594840508886 8.292313633716457 3.623264335029243 0.4235213686983932 -0.10968068975729499 0.23046494562691922
Ni 8.218195806312792 4.534900657667566 1.7711727167877143 2.684331716295448 0.6877533834734285 -0.7662532767525448
Ni 3.726590693516855 1.5365800772350418 0.5768041794322283 -0.46660508726174477 -1.8168219692935614 0.6939875373085984
Ni 3.654684371824734 2.2552824208392983 3.3537058470130283 -0.2295115805747144 0.9128313537568215 0.22604804750614618
Ni 6.550202322737318 2.2304561872657613 0.8698888317647749 0.5079353134690994 -0.7226226845467878 0.4022421476046427
Ni 4.425972434921505 0.5287987751163461 5.2639230528203 -1.2377324042771394 0.6854764145137936 0.010948528591703723
Ni 8.094462524409943 8.187956472985054 3.389201901657623 -1.1847820773323532 -0.23940235732586512 -0.5366853890185983
Ni 6.943461706589476 5.427035016131611 12.43494962244396 -1.4112407300133567 0.896906712106765 1.2178086687700187
Ni 8.672017135278182 3.352207760089601 13.300627340194827 -1.4527684169434978 1.9359386076527754 -1.3628034604475756
Ni 4.563687244565544 6.817813020158218 1.4913617253054243 -0.5651899242161944 -0.42425284754777903 0.29001015218040377
Ni 1.4366921937365935 1.4788310933615987 4.553270960132546 0.3310555001574879 -0.5234352088769114 -0.19100931073445815
Ni 8.963334433673886 6.074450999895937 13.511870550824854 0.8077007452640541 -1.2392917783444592 -2.2425166914941896
Ni 0.6106087560681597 0.10567388568015984 9.562804233358959 -1.077322306485777 -0.15994112857474388 -0.6378654975040499
Ni 5.111270863803261 6.051965816301568 6.483017889600015 -1.8749525548877066 -0.9878039506089699 -0.6777975578122972
Ni 7.632035754809671 8.107685292869348 12.617183244972459 -1.1472313727720886 0.5315709506101685 -0.013367936666473753
Ni -0.05273099413548917 8.087652197197821 5.385484617608087 -0.3085110391980687 -0.20481819159309242 1.6497786824563976
Ni 3.5732935591102977 8.20244692463476 13.408050073487884 -0.99990099098282 0.17863896209456329 -0.3112821741853026
P 7.46119462530232 2.334813347997164 4.805643550416323 1.041066666587852 -0.6721467872844231 -0.4378359855488524
Ni 4.317719692999472 3.850666342412704 6.718678344044371 0.7090205203823208 -1.7777136904381903 2.927466286970236
P 1.3875393973360604 9.146695091330695 7.214932823185508 -0.7866722067285291 0.5727821347411555 -0.1845203605760048
Ni 1.6903583760641947 1.188281807409652 2.0635235933758027 0.12795197726265703 -0.17287274903474745 0.03391567891083837
P 3.1207861791450724 2.325643464481929 5.666175584794009 0.4693898490957335 0.18618077899756325 -0.586101734668197
P 1.7918378034219973 6.206067975799775 4.8933209613752116 -0.8450311062833963 0.26042292544159024 1.6077246907091407
P 5.9847601008917275 4.334856548973453 7.931299668707782 -0.23627538166110923 -0.017723642532008185 0.2979602602654159
Ni 5.2753386787463805 8.211589048664075 6.647916638488311 0.5387049905517883 0.7471456093888165 1.0280309164498165
