# total energy = -340858.7459322771 ev
CRYSTAL
PRIMVEC
9.42516718017961 0.00000000000000 0.00000000000000
0.00000000000000 9.42516718017961 0.00000000000000
0.00000000000000 0.00000000000000 13.79468487869355
PRIMCOORD
 96 1
Ni 1.8066066467929203 8.525638776442129 1.5222851643744781 0.36588623468342796 -1.4306037079210008 -0.18086425188065625
Ni 6.0344445265045925 6.8229634496904525 9.989324848035938 -1.6417432137464307 -0.23743314941463625 0.974022323443845
Ni 9.320906119429344 4.534297195132098 6.82781741086042 -1.8052669174661102 2.3753241970769348 0.6791823539749658
Ni 7.763774226438153 7.335258994219495 7.039772458593394 -0.6015970020903187 0.27571841814808 0.7941029519749614
Ni 6.461084150426505 0.5298857342989687 6.132606701629064 -0.8272125900447367 -1.9518910172169737 0.7000784806976846
Ni 7.670361393126394 4.172012613673376 9.813690625088578 -0.6890407348262843 1.0720836837946568 -0.6927582928871876
Ni 1.8438831835448128 0.3420845628577971 5.950102474221915 0.3293130635450845 -0.2875218385409113 -0.19718587185881523
Ni -0.06830230253694425 6.56651407207168 5.56920412982228 3.228161943888944 0.9861877551617854 1.228936146141748
Ni 5.831039990564618 2.7823753691317132 2.0476006350398204 -0.44465223713973745 -0.013498034486434819 -0.22712559684104108
Ni 5.81347147867953 8.638712508784089 3.631960893902703 1.252280220184327 1.7116060001758393 0.30910110737358376
Ni 8.184438294278978 9.583698634654695 8.968725317338011 0.7357952173730037 -1.208865343533802 -1.505846013494768
Ni 3.9929532849218075 5.954028998927564 0.19073239847779325 1.5180847216528048 0.4523812303528789 -2.4852478560829714
Ni 3.438904249163717 4.048646598617618 1.521912870265325 2.7264651551303882 0.3856382204993746 1.9883734284137242
Ni 9.684736428328597 7.16785859744317 3.3821666269288135 0.17845512821853138 -0.3808109743140603 -1.2478448101207928
Ni 5.467417035346411 3.192228770056124 7.225021294724221 -2.320558928410597 -0.8426440941084584 0.6939785384475339
Ni 5.28887609079746 2.029417602245446 -0.32225589584929354 1.040676630238285 -0.18754372078336087 1.5879009711149943
Ni 4.169562070170091 3.300335439220272 11.886935255373542 -0.588196926634329 1.3172118878607055 -1.3298236630874452
Ni 9.055700761369987 5.178884388169247 0.529287236174128 0.5088951062792075 0.1452624435166466 -0.31351620572214395
Ni 5.989609005561798 8.570615674894727 8.288384694587934 -0.5341945042759445 -0.036918470292904154 -0.47023959869053855
Ni 2.644277817554285 6.387539569825994 5.802969014734489 -1.92121132874493 -0.04587259416239841 0.5020279468457289
Ni 5.096178544933379 4.978938888635834 8.819177129983117 -0.5009254578101695 -0.5885663941586058 0.41130605757912386
Ni 0.6744772261601021 3.803950404647294 9.875146486084036 1.1620884923895791 0.9898469491809276 0.12830113307195967
Ni 5.377142782752322 2.2846228577779346 5.007718637048452 0.515384570658293 -1.0399893743632733 -0.008358399267024315
Ni 1.0355714089862662 0.232977883440962 3.367765913780086 -1.0641410319088125 0.920292438020557 0.674603990575664
P 7.722001884874465 7.9820988022462025 4.883898328927855 -0.28045541861243306 0.9997618943017943 -0.6054521141703509
P 4.295020472370961 0.6107442447400523 6.382538576045829 -0.8649815812633942 0.45821429209488823 -0.22899607439087658
P 7.919647643581717 6.394410516802513 9.119086896632648 0.42860109721414574 -0.4449348013771628 0.22293315602624833
P 3.864309176166667 8.172430631112881 0.8910261004450024 0.4635781275099629 0.20822644594369302 -1.3286674379958148
P 0.25665107619942684 0.1601562131739211 10.368029956000134 0.09773842979375424 0.2334278849099851 1.774784432606537
P 2.340655477497277 7.4528756572098525 3.9426587070670798 -0.23312089519252754 -0.5697446334664124 -0.2087046711316922
P 8.880251271702104 2.983753494097815 8.307614863471597 -0.8981948347905693 -0.6736727370106463 -0.13405860438102718
P 7.121882631254616 3.8312928150435623 4.577917812007302 -0.8466326464425614 -3.3243361145193715 -0.616515571073364
Ni 7.554695739771343 5.704356316612107 4.806095457732021 -1.7442867782383122 2.805923812778348 -0.3667778932597619
Ni 8.902965924944091 0.34906955435889125 6.660046605008407 -0.8565992707369698 0.8986499200501168 -0.7078396127003421
Ni 2.8083888309358147 3.0484101419152574 8.141623529209662 0.8353647868382259 -1.7365775825195124 -1.1188433085476988
Ni 8.554649441454094 8.88217400583545 1.997498330598427 -0.5387060189930529 0.5136786437107799 -0.1559546331231701
Ni 9.117303654975643 5.683300492818496 11.356957154434836 -2.1028417693676493 0.6554981229841486 -0.4164094402439602
Ni 3.997590467243408 6.516457008433425 2.3749348110413058 -1.2653259976246918 2.037633708101433 1.2420444013889318
Ni 5.014236140250458 4.232239432850264 3.9156075343410097 1.6432308540355507 1.6273370656234298 -0.5443588464034561
Ni 5.18243767624901 7.82974097251312 12.404553191888375 -1.2737435322644255 1.211506637811391 0.32412174915213215
Ni 8.08094995710179 0.7953813875117901 4.477602928666868 -0.9729015795758406 -1.4990048222032184 -1.0748818153650845
Ni 2.2890149857492066 9.150772424130123 10.508543177961762 0.9399199824434974 -0.5203228885001748 -0.9834181628364482
Ni 6.394796948662647 6.752444347799767 2.465717080153962 1.513834173906567 -1.277001119969775 0.6609061813735972
Ni 7.8107209848607 8.183429801375704 10.664795486831602 -0.20593662146825178 -0.6702030332944909 1.042219806355689
Ni 6.845536725422634 4.227074441158725 0.14853875193488628 -0.32974655153807725 -0.43749608571093035 0.6297117580486639
Ni 4.609736234363993 7.031749756170331 4.726279370796566 -0.7477243647104219 -0.24441729404195325 -3.5020937024502463
Ni 8.702850772398914 2.160823285025442 10.514640318701282 -0.9154852464399007 -2.2432602545284333 -0.8958098794981604
Ni 1.8331667683016013 6.258697532557127 0.5147913288354653 -1.3628394558918335 -0.440848290012615 0.2317885495343492
Ni 2.7413758912882913 4.773083809192577 9.426377511810728 1.0707456817095238 1.0258382796738719 0.8329546347348364
Ni 3.683364813951033 0.5882473128631642 8.544883083076773 0.4841526092272049 -0.17208522013644556 -0.07639930199634584
Ni 3.0647722323833446 1.2828500988023603 1.5311269138376766 1.019607982493444 0.030368842099844466 0.30185111067938986
Ni 1.2197486035927723 0.7662906085776016 8.35386792957937 0.32047052555279 0.7546059223216036 0.9012760448190542
Ni 6.261100950223811 8.446542772289947 0.8830184782896529 -0.9766841865467244 1.066041591365635 -0.8199661928949685
Ni 1.7770493220763754 3.364388876329213 0.5424306320023237 -3.4681230019317564 -0.5209101284622125 -2.284448041620653
Ni 0.01106797398425976 4.07434902990015 4.551307737111824 0.24111214092812028 -0.2825529245714102 -1.4845035432632496
Ni 6.877931025502598 1.6904980105738143 8.269278937912901 -0.736335663257506 0.8904072204253505 1.214702261930553
P 2.8239403570143544 4.3528627242158064 6.533452470145439 -1.076382825390643 1.1259398103831642 0.1147889575181378
P 5.167366833703808 7.192571386157067 6.59190076024898 2.7138549225655457 4.373747553527494 3.841289058106049
P 6.511518220757573 0.6700794430884376 12.257515869107616 -2.208419235589848 -2.8954984758143874 -0.3392722316403254
P 1.5704590795821323 5.218752845934229 11.976103935840959 1.5185773450185072 -0.3500634087185584 1.1514071014163332
P 5.351072769944297 5.021154213063578 1.694236031933056 1.8595727299975264 -0.8719580125812274 -0.20341539770829484
P 0.929458162710367 4.979183942986163 2.481553246285575 -0.17348338603555283 -0.14180662375756223 -0.4316398840404695
P 3.993481094291746 2.3790724594949295 3.3187390209299426 -0.7978855589458452 -0.5782362158771912 -0.24951707716236385
P 4.900521496530715 2.1367325573546867 9.373833146516638 0.4950132060907927 1.0483135779582526 0.622201822824864
Ni 0.7019487613486586 6.061343954036804 8.350157241205357 -1.202203101022278 1.0768528230485261 -1.373723706904505
Ni 3.3207786271380613 8.145484077744067 7.231436063602435 -0.23168287719442035 -0.14640272776867688 0.7272105610277863
Ni 8.315089963673348 1.1520570518981852 12.85612238337255 2.6115903227666633 -0.32571249067801966 0.33337797764307747
Ni 7.579644157668248 2.616209669274352 6.301150371201342 1.5570623884675827 0.7025295133413385 -0.7519998521573242
Ni 1.2086269061547865 2.2325393831658085 11.845910329578356 0.4725075687891089 -0.2598747662476041 1.475343988251169
Ni 2.9842436027984722 2.5018164135075454 5.610712566700999 1.7080892452718324 -1.0862381209181677 -1.8463431186811299
Ni 1.878068265415638 2.917400316162715 2.9748099528275573 -1.1965893543799264 -0.34988394571790066 1.2232635212370029
Ni 3.291221302421516 -0.13082886253999224 3.6902159680761786 1.3286653811132858 0.8614753678823486 0.2020614547835617
Ni 7.7993071072357845 4.386312643035646 2.523958016576457 -0.11782028814529387 1.600940835018088 0.14450705340786082
Ni 1.613475543232104 6.5506986413081725 10.246526354006873 0.08358193578771411 2.1369196848879652 1.4108460656780992
Ni 4.70049117049142 5.362957905935229 6.354066088087854 0.31535480159277945 -4.693721341949523 -0.25032646043753665
Ni 6.480490569939057 2.555954574595502 11.34401828473749 -0.7840537952690755 0.6103636925393553 -1.131066332976452
Ni 6.894283690803365 4.9012378092470605 7.213089032896686 1.4412226210874277 1.226683088441513 0.22464576784198084
Ni 8.275494835760655 2.1785520247549766 2.608147381148544 0.7260504792814141 -0.8845204226272703 -0.38089196406364084
Ni 2.7619227560466038 8.817130926157876 12.663548307200365 0.42507765744191955 0.15515630559159085 2.2898920954543596
Ni 0.3841556822255398 8.248548282391841 12.07101160068972 0.11020982278788762 -0.1954148960013215 0.28371917696536947
Ni 8.432056290118604 3.520384820647942 12.34130466406859 0.7518805529706405 1.0511019393366672 0.23793142920729346
Ni 0.9984079742422177 2.781819284259814 6.594797114166517 0.018704518388038754 -2.430853083382175 0.7968311495394019
Ni 2.992311546024672 5.00650750304779 3.8424126274480837 -2.905233186603648 0.20887153572685965 0.5147217402633135
Ni 0.876013693937186 1.0707272830910852 0.7773453873276127 -0.8392643790029481 0.22011882650590475 -0.42847717004177177
Ni 4.527850380684994 0.6894849200842584 11.469384320298621 -0.5043869339962088 0.4480682047998219 -0.4867098284314198
Ni 7.029553692184695 6.667712093590029 12.590809578405743 1.7358764426874298 -1.2428656117386465 0.4813783889161774
Ni 2.7367952599706125 2.0964305418929694 10.16218618675766 0.5930159452895271 0.09238873544606668 0.6562198316415214
Ni 3.6584446715560888 6.123361555004554 11.382490875222333 0.7231021952863675 -1.0028657300380985 1.2452433679422037
P 6.580972278741061 0.7819674893815011 2.1768291041688212 0.5962511643973731 -0.6031358073323484 0.4091769270512631
P 0.4185452902272162 1.866729789129285 4.787638152568625 1.0449207502266198 -0.438756954701225 -0.8014455083829617
P 5.415229883893762 5.05549952277885 12.57381411669373 -0.25425742006082663 0.4698858148955456 -1.0614799401368817
P 0.49348762314133066 8.3032896541883 7.6738449349679865 1.036591661535634 -2.1290482525596883 -0.26700700641701114
P 8.026312262145856 7.162844408428757 0.8374176337604478 0.2808158872756454 -0.9309280633575322 -0.3632935342555872
P 3.1918988891999125 1.8851277157385629 13.22023261974122 -1.750800925207746 -0.7599090797020719 -0.6233693607704038
P 3.5662759603306133 7.300084269780035 9.597873143787734 0.7328780437262088 0.7373000840533044 -1.0007404561649798
P 8.8529842626444 2.664739855806714 0.5634289622752797 0.10155806065016057 1.431890030832592 -0.23363922958984282
