# total energy = -340864.5553435447 ev
CRYSTAL
PRIMVEC
9.30338974217635 0.00000000000000 0.00000000000000

0.00000000000000 9.30338974217635 0.00000000000000

0.00000000000000 0.00000000000000 13.61645128872337

PRIMCOORD
 96 1
Ni 7.234790448297845 6.1371951163182255 7.421401563988737 0.38141286956411735 0.10589808278641116 -0.3018336271778931
Ni 8.253167415397517 2.105654839695632 2.284853944664286 0.031747210504609845 -0.5399584033429152 -0.14318884881706953
Ni 6.138813906158403 0.13264680265670056 13.044465305710654 -0.04778909445882092 0.040048274171137474 0.31788862375822674
Ni 1.5907122095012574 8.461340067488383 2.7565144140916633 0.7459230498356251 -0.29550742784954914 -0.43158177710902446
Ni 7.98139679004543 0.5425048530708672 9.719136982289287 1.1695830009944117 0.3775940100386594 1.093180356563956
Ni 8.089883619506976 2.536141296504198 8.067869938358541 -0.6025385400679817 -0.39478774820912654 2.1659590095431085
Ni 2.6956200059313336 5.7708462293842775 0.7413685332417225 -1.0191904353400512 -0.15740524952676763 -0.29220227473571614
Ni 3.9470561930671266 3.432895047623182 6.409549994555159 -1.079909864707295 -2.1214609271307334 1.3320438106672157
Ni 7.656624752512359 7.455857598770813 5.430145858027253 0.05837124085004141 1.9916721537696536 1.0403953515524405
Ni 5.0362691707593905 7.544844523031141 11.522827044757566 -0.5553731952360887 0.01920691194575402 -0.39619979806530475
Ni 3.5572534602303767 4.872566722323976 4.476326974025049 0.07596118601766273 -1.2653298542794338 -1.5825862437703002
Ni 4.522442947351345 3.6371974895214385 0.8766909908296588 -1.0899384525878908 -0.571135600276668 1.1367114470773714
Ni 4.218957065877619 9.125918420610423 9.300172773854626 -0.0815016562199177 -0.7094982313496877 -0.06828541463995981
Ni 4.2269579811796465 8.726188970765229 2.6898621379308407 1.1051321296091934 0.6191424671732499 -0.5978411345923124
Ni 4.741370318150514 6.977114458623165 0.4004216220527185 1.0509947243348416 0.8146280685115067 -1.2804230011671303
Ni 7.243563544960416 3.493646183579267 10.326009198964956 0.6867820206990946 -1.2144346100914634 -1.0485565472069942
Ni 2.2640822660656412 5.449144310513613 6.26920463676773 2.3615489976697135 -0.9622505276198977 2.025931589173156
Ni 3.873308221440192 5.085335249018562 12.147209171537822 0.520355284400007 0.7376680089156844 0.508078523915183
Ni 5.9897642967935605 1.5484469092488085 9.199818967831488 -1.1164447264085353 1.0034539984414008 -0.6311649455554227
Ni 7.9037786082258865 0.23807095616775054 7.3631232690643715 -2.3882342202703835 -0.46732936702227906 -0.027575081404791223
Ni 0.40417553987175064 4.600107646120318 5.123080962464355 -1.9138716005504073 -0.49098634431958665 -2.0238531093775722
Ni 1.8372241313126456 0.6494101062517806 12.843799558918866 -0.5648489959370078 -0.48851037197526836 1.1356495814717604
Ni 0.5881128613093837 8.492590154115716 6.808893353720082 -0.014106871715027319 -1.2566156143348874 -0.5583515611381222
Ni 3.7526153444481123 1.472038168114456 4.709454108807338 -1.7832099376660706 -1.3164796376803714 0.8904627562536342
P 8.146820365609768 5.730888169823575 10.231687710943952 -0.68106620126124 0.25348840310528603 -1.2204106251692401
P 3.173507234209463 4.522601104979408 2.4210732490372404 -0.7435782037525323 -1.1279339579950576 -0.5104094860412048
P 5.312347265628732 6.705157765473355 4.2875072335752025 1.2415574344501845 -0.6495951272361522 2.7346741733037416
P 2.314729920605446 4.729489889265993 8.779016409555341 0.0389252163102878 -0.9570880095823517 -0.03239898515599581
P 3.6279313131949054 1.4622696087340752 7.818947508227669 1.416370080820122 2.41850998843579 0.6041315955867144
P 5.8455896637290214 4.77690926751533 13.368387013408137 1.231237797691731 1.5442248703832826 -1.7741390857130543
P 1.0026635415820875 4.997250753577183 12.724559871426992 -0.32891994187172385 1.4654588679269729 0.8927554089425529
P 9.223148148309816 6.8268088916237 2.3414166944936583 -0.2459848956393893 1.1748640468876927 -0.4807507826345075
Ni 1.4528266679997066 8.448827008091607 10.274443299843394 1.498380301245342 2.8893483970525917 -0.6373507626511604
Ni 1.5901447027182065 5.878839979181861 3.2600780681163775 2.005435526102333 -1.846247730753846 -2.0109034911954398
Ni 8.535329927252354 0.48671149358507343 0.1305898231528889 0.41468448713305356 -0.717382519193771 1.1635002851354415
Ni 2.0292367951713937 3.8822022621712824 11.359388812594917 0.009827527613383074 -1.5828675224561448 -1.0949197078525659
Ni 4.375523814270413 6.468237638634512 2.562902497511499 -2.405807710377773 -1.2211230778552324 -1.2642831581824743
Ni 0.21288667974613948 3.9278074793928326 9.632795011773569 0.6578028598579252 0.4520968663432407 0.07071407868611047
Ni 4.041690274988304 3.524812539697625 9.87590375356463 0.5433154927406062 0.8762664101485942 0.09899878456341661
Ni 1.8809035468277782 2.9067325292261983 0.5068123977729319 5.5546189829515304 3.4938677149960276 -1.1059721090119856
Ni 5.211126383668212 2.995933431453907 4.480152527946204 2.507205591300985 1.585536584647876 -1.0615377899580105
Ni 6.502529933754593 0.8989530724880531 4.026656927271392 -0.897272580086616 1.3322973214389184 -1.9111639718112567
Ni 6.948822849979604 2.9739960381025368 0.6062367951464507 -0.5628610189727016 0.09508813665510076 -0.020377792325403616
Ni 3.1932397241578325 7.220491138042945 4.862979579046373 0.228121127985091 -2.258265212577698 -0.20562603220636846
Ni 3.8548875094657595 0.6432084665537217 11.6262435267312 0.6995838004494532 0.48060834351937237 -0.20701468502377898
Ni 7.257900068774862 7.155227857992113 12.89631812516476 -0.5549407356843604 1.3854916460737106 -0.8551910775355337
Ni 2.978852407623069 1.235918132805816 2.5629834370035076 0.09181589366173219 1.712552680359825 -2.279538520134177
Ni 7.956603255999034 4.958678899109507 12.248883128585794 0.27069679656377255 -0.1160696240027743 0.9081812565793198
Ni 0.5664015403322452 7.292731960508335 4.470294656022916 -1.3834854142769593 1.586357023666642 2.548951821999836
Ni 7.1070456017721195 5.890404092810255 1.153475212991354 1.0124245773711271 0.23582903815230996 -2.1692942445639285
Ni 5.181578817390031 5.441320159619422 8.648734528607681 -0.1017030708684571 -1.2378203360052553 -0.3525617496603799
Ni 2.4474985976696537 7.439697610538698 12.557105365850521 0.9207138418286918 0.5613180999656139 -0.07054361454651721
Ni 7.125950090020628 5.356529064197713 4.707098490488184 0.7570055329020318 -1.6337643093060121 2.2112402499784114
Ni 1.7581639240607616 6.9407382041686025 8.513196232374389 0.8301102233075058 -1.2109008859065922 -0.6319023379420794
Ni 8.853859390171866 8.276918969776673 11.366905021283877 -1.5014270584914657 0.3380833535385468 0.8165656518538518
Ni 7.850591128247183 1.8167752803430481 12.073258386011371 0.39040530287071473 -0.8645205824665756 -2.302114091441848
P 2.8227601321144653 8.180228838690672 1.0834867412173836 1.1176562302181332 -0.5724666603832657 -1.8379523235142732
P 2.3032216273163684 8.968979536622186 5.024062192889869 -1.5818776477390497 2.66706033080951 -0.15224890213680875
P 0.6792739877860886 1.3140293942893204 11.191279348370465 -1.0347186128826373 -0.17384951112571995 -0.3838818999299002
P 1.9265924945583035 3.1640829002548667 5.029754006822171 1.1460180691902782 -1.1738962836577846 0.4876559943947731
P 5.717835513813408 8.602332941211882 7.524083078161372 -0.03365908281534203 -0.2499508222656728 0.09545503307621625
P 5.415373005227152 1.8589196365269778 2.2569809885655987 -0.45204878671412474 0.4793533880663487 -0.005085642053023499
P 0.8541488771356938 1.5364269295159965 1.305967076614046 -2.477941552229545 -3.480943807845508 2.612834222476094
P 8.03335622255917 0.37968343565766377 5.2304327783598 1.7731751791378882 -1.379058488853857 -0.5448694674912874
Ni 0.5043358353852582 1.4150269948925749 5.96246722052882 -0.27546747847953845 -0.147672595620036 0.23513638296065956
Ni 8.654450531353687 9.139129234248653 2.7725683436790782 -1.1422516601693102 -0.9341697102232814 0.053237004947269614
Ni 5.818591226279625 2.788960916658347 12.083770286243649 -1.863316770420991 0.35657498458483106 -0.09963076172046066
Ni 7.165610441104975 7.104682540741055 3.12323264560409 0.39223721387313093 2.010427837110602 -0.22761282089010476
Ni 1.5910471315371562 2.843925344105291 7.392289396357224 1.0692076477984425 1.0802968157330686 1.1076757219666535
Ni 5.062113987862913 5.312579850375885 6.087588511106674 1.2965317338035347 1.9010052861107003 0.5975187182558871
Ni 8.657483436456548 7.661350874574487 8.783604841447154 1.0403778680509437 -0.7824769377002588 0.7419424679213221
Ni 5.91980280485026 5.170628727494118 10.910535603473255 0.003939701374038376 1.398937230055655 0.6802568179860672
Ni 0.8922555621090661 3.563226236537238 2.7363483861746025 0.5009676239020148 -0.28231612597025574 0.6687429038091965
Ni 7.563776921449309 2.4083964499784716 5.921549981470864 0.23587017580289055 2.2660070613066456 -2.2941308161260556
Ni 4.154838102782775 1.1962298715518105 0.447575853690301 0.12216570959818315 -0.29957028506501315 0.08963636951191015
Ni 0.3424075434011181 7.521316250009252 13.463702103468975 -0.4214444315647064 -0.5842783083062131 1.2899926471334364
Ni 2.4463263705440084 1.8709210094800175 9.749692105692128 -1.1783198666467771 -1.076191278205127 -0.07474968220806481
Ni 1.1626353306731856 1.2468961328713872 3.7860954536311384 -0.712184005711967 0.5565739004124093 0.3154028812218955
Ni 2.76765615381923 9.0216925437167 7.18567413173329 -0.2966122308779537 -0.35318704194920464 -0.28248787566142963
Ni 5.676277271192301 1.2982508450425334 6.410978995241661 -1.6841239927054867 -0.7742784610498665 1.0024512682084994
Ni 0.9254295897648402 6.2745968815457 10.805865954881966 -0.6766685864141766 -1.5284704357625032 1.0000943379405485
Ni 6.1328690400212 5.060150972596952 2.7813646988163647 -1.835268091813891 -3.8697879368766905 0.6928966182372648
Ni 9.048272328621223 4.393497963530314 7.348689989995112 -0.14139216192796294 1.58953567850494 -0.3703514695436331
Ni 4.02002267994363 7.127587486640578 7.476098984145952 0.5903648808199252 -0.05818200765737076 -0.21662752552319464
Ni 4.996850707812081 8.69355267904487 4.914000299520609 0.6588585548159491 0.25168271735511494 1.74440247788057
Ni 6.433768579106596 7.402921310319033 9.298470253505474 -0.8421699826855172 0.7739563018237574 0.871179739654306
Ni 9.207499846521435 3.1397080187533444 13.285953396983562 -1.1109739331019512 -0.2510941918414966 -0.27423180630022453
Ni 0.07635571181200168 5.14918441380671 1.0278961956311063 0.41094044670958907 -0.04575329497571475 0.05343523700100475
P 6.743255147056842 8.239640286503162 1.2239763015480472 0.20069311368112533 -0.06567291671777722 -0.7141745537794346
P 6.0160649800015005 0.21022125854377835 10.904203716316792 0.040957930469600425 -0.4305415087699682 -0.6081939385815461
P 3.6325085810188553 2.7771270047232566 12.46948324888648 -0.4298388262759888 -0.8100659030621211 -0.4081718828255164
P 6.453212663968497 4.1579826485642695 7.292671488474075 0.33705568360498084 -1.0960648772006025 0.19096637331166466
P 0.5332423981002887 1.0105900297650254 8.226365279474718 0.20104689747611829 -0.09133586870152012 0.3824598227713929
P 3.0440598673345844 6.982473211197545 10.528798909667735 1.3308469621456371 0.4233704449428257 -0.5112299250599712
P 7.963878506889946 3.5475593279690845 3.770790446929553 -0.04729261443837661 0.7926312525254414 0.6941456601530174
P 0.4783440247215356 6.293603707082957 6.460693519775893 -3.075387508265968 2.0485300432989626 1.2841454443240399
