# total energy = -340867.00761264196 ev
CRYSTAL
PRIMVEC
9.27418639958960 0.00000000000000 0.00000000000000

0.00000000000000 9.27418639958960 0.00000000000000

0.00000000000000 0.00000000000000 13.57370924492936

PRIMCOORD
 96 1
Ni 7.531501680300681 7.667535443239964 11.445826837947607 1.3912637726707975 0.5634336036467199 -0.4868137009991358
Ni 0.6422438851363064 8.677383028386714 12.837158797565618 0.47606546134369626 -0.7544719678469006 -2.6990510247834933
Ni 1.1020515441829077 6.712507572623762 1.4767648353216083 -0.1495798399450779 0.28772135614622707 0.6998208561609237
Ni 5.459527922490904 5.015340775233137 8.772579767304281 -0.07153168949139938 -0.6361518572470528 -0.37710344355548603
Ni 5.619785859741436 1.3871214790907105 10.981102932805141 1.1374588667663572 -0.13160988573021848 0.7283374755433779
Ni 8.13563144247874 3.034346783883296 0.5920798120698639 2.0785425305006524 0.12085701808908864 -1.359245053672356
Ni 3.5131359197916256 6.0405927836306486 7.22995429880069 1.6870532505371398 3.362037742835203 -0.5396470427500836
Ni 8.239493053547532 7.604053638814045 6.663442490620062 0.15275078147389176 -0.06664659348495619 0.5962357377784054
Ni 2.6282487192810815 1.3285364449696684 13.419905068660427 -0.9494939992851777 -0.29750646055744895 -0.614656149267122
Ni 3.764234510709342 6.645603593496139 4.618386130789216 -0.2540015952962787 -1.2858431437414373 -0.2535470242573633
Ni 7.4982537228329065 0.44062585976331 12.493445401163816 -0.08810322069683538 0.6481409112881289 -1.1176302620762042
Ni 6.583401626763539 1.2820913205628015 3.651137665039042 -1.0120656513698119 -0.6257316903549932 0.015628193455560182
Ni 5.349128010162759 1.5735418955648384 0.21455180542447733 0.4260695890415437 0.11551889370562686 -0.030783818150076022
Ni 3.4828649760887473 3.939303323294891 4.508792145240416 -1.6379341244129857 1.924634752604182 0.05871705422523436
Ni 6.018603688189618 6.363306640257196 12.570435057765975 -0.593699601620113 2.6552329991572785 0.45492430848970683
Ni 0.5582874598731186 2.727834930519288 11.864195578289182 -0.8566275528717441 0.418240322805112 -0.37820978924578735
Ni 6.265899862772107 0.5642127374257437 6.528872194260533 -1.3780914969548974 -0.516446179153588 0.31004341668219504
Ni 0.504226373772378 9.145942736934666 9.73853912117495 0.7558608777746273 1.0876211173086239 -0.21889986649713913
Ni 2.038874187320939 2.2394191893525064 10.134728645258734 -1.0554208784269952 0.08926973020111077 -0.5377038029807837
Ni 2.672718442030867 2.066984245643066 5.673281220484983 0.21275390150040135 0.44923857095883923 -1.632198507480789
Ni 5.19809788816479 8.191851559122995 3.2761906644085177 -0.7897801562298915 1.4255010965871129 -0.051053624142705624
Ni 2.581006014862435 5.365830819479207 9.379609567501912 -0.9640119903956946 -0.9602458384850431 0.2564012058767068
Ni 3.345773955924549 8.28343414768486 13.205793787079665 -0.16665890691455168 0.4748709268149628 -0.576602279818194
Ni 7.473436000605915 4.429416240533249 5.4422835007013415 -1.0462124724548498 3.508437128169771 -0.9288632104087035
P 4.640839862958038 8.046283932787096 6.652610241157757 -0.7363881137619963 0.7671225667313756 1.4475045974413974
P 1.356164245610255 3.0376947650955324 3.7476058948823625 0.46209562942716553 0.07168801256360557 0.5962336808958764
P 6.739634567210441 2.393732373259427 1.837377653786946 -2.7688919568360313 -0.9900657500599529 0.09666010912791095
P 4.652052354053866 2.4002243035878634 7.439994212646905 -0.2271086275601766 -1.1797779392495422 0.5529987814666412
P 8.706735827657429 6.443945689122554 4.790664340752155 -0.12288638981429159 -0.41615130148656715 0.9797006047755449
P 9.15122902305925 4.924212621794264 0.6648942300522191 0.37998436464770685 1.1546531191574567 0.3701704638810786
P 7.739401111975749 4.858597754546145 7.850218362682149 -0.9949439040878607 0.3039866689651539 -0.29717530247027535
P 8.405538082976554 1.495926231395296 10.456601333198442 -0.49056699739398096 1.2020125822780265 1.5921057532249612
Ni 6.070733888726958 7.352482064400971 5.4224385971059315 1.465926808702327 -0.8635972993213579 -0.32411249318075147
Ni 7.584225428753765 0.5974736787541759 1.2956279227162086 0.26454363247818313 -1.8477353710429663 -0.0031349460845558914
Ni 1.963382311787413 4.000837548622279 0.0011861684128670696 0.24509015173926177 1.3461234286887334 -1.584625385687516
Ni 0.9695234236209809 6.055635513620253 12.82604183058748 0.3168576113905511 0.8956993220622251 -0.6016137142608672
Ni 3.0644415180486884 8.726434199111141 5.442649831055588 0.3692988599094027 1.6017859566272026 0.9574878161239316
Ni 7.502195251960885 0.6451392860627887 8.74786220628807 -0.1774901932021008 -1.5176599754105606 -0.17250790949616096
Ni 9.258698292553415 2.2441490243060813 8.604780989267962 0.5091684145452522 0.38611695990800593 -0.8487340090562802
Ni 2.3920351971878504 4.714105933807529 2.3111819146216552 1.0324488430118541 -0.9666733392779415 -0.7556616172796277
Ni 2.465199251989323 2.8276993673429986 7.995783206762194 -0.5640622383696543 2.5565347765534168 0.07480059005065828
Ni 1.2229127385260168 5.587140724375586 4.003076337166971 -0.15145468837028755 -0.6331076711040903 -0.17157896992398836
Ni 4.317680845394684 3.0957975415350334 9.76141019172203 0.1852958052894486 -0.40191741727537234 -0.6797760216949067
Ni 0.6300307093512818 6.9209078103527375 10.621128178349228 0.13534646995451527 -0.42155061812526756 -0.34855905625889005
Ni 0.4244080903842588 6.106096360644567 7.886813373943543 0.2787808591234876 0.6062023620728141 0.6815002034748651
Ni 0.7138758443802679 0.8100408083353884 5.438496850482626 1.4012795050355866 -1.3767581228554546 0.8510174057738182
Ni 7.177784219262762 6.078904446754604 9.843111134905396 0.3403888617432718 -0.40773530950873 0.679096736239695
Ni 9.062530706400448 1.4974657463017536 3.028090417883921 0.6434010826102983 -0.8939458297062282 0.22814786745796836
Ni 1.450566186771896 6.94410254999762 5.751099061913326 -0.10884919499493512 0.7592853300751439 1.4243700683064628
Ni 1.9064295344346633 8.89289656691842 3.584626911405598 -0.6960066246211561 -0.7373455925792592 -1.7737372222889454
Ni 3.394277949664148 6.083819765431848 0.30532197527666777 -0.11815350311499652 -0.7795193977338316 1.0191451839244123
Ni 6.126657231413342 7.510393632547082 8.320954722727363 0.19966955751261742 0.9898466920706114 -1.396705255401343
Ni 8.99995777222051 4.027927446464224 2.681717184884698 0.6056107512354022 0.841209675654777 0.19899284316056695
Ni 8.915414290971908 4.489095628623941 9.56976377133351 1.5770468020093098 -0.730135190873749 1.1468364513265152
Ni 5.183583786787645 4.500734732284209 13.36126717167814 -1.79213783628332 -1.8580560362426841 0.1204906358886054
Ni 0.08676186658369045 4.013200038804858 6.643258151810337 1.1130375004991993 -0.5721753543950919 0.6363886558482071
P 8.290195029412617 1.1940700194953946 6.759041729217991 0.6527943508997402 0.5623331714936897 0.2783473711304948
P 8.400724780347328 7.678460434564103 9.015507800194351 -0.7273789682848505 -0.028174662662003087 0.10589705434514665
P 8.935075565680886 8.428194919822795 3.0619847861286846 0.31116004678514153 0.7290206176533316 -0.07129514800056108
P 4.282374018594176 6.6944414579383436 9.235347746580649 -0.043282464837719005 0.2947576941677182 1.0580434036515067
P 2.0449116825263842 4.753929289279392 7.125437002768728 -1.7833806589159802 -1.5173375590741351 -0.14625643199879973
P 1.2369353080354382 8.47993560454043 7.38807453613593 0.6635683015867927 0.15854733355101083 -0.5152562726105449
P 3.832195747061882 2.98649198317654 0.6946764241432278 -1.4431100679181275 0.8906252499734274 0.37177071848866294
P 3.10948624034185 6.933196107045848 2.34358221147226 -0.7470759324931456 0.5171609458324256 0.9124444027310481
Ni 1.3444787710190702 2.5163000178602966 1.437170552248478 -0.6197397344376165 -1.567619595158139 1.8034159803003007
Ni 4.936324708949889 4.346263887212168 6.625231916125507 -0.5193322424521315 0.649854551545126 -0.4160628555378189
Ni 6.860709067835769 3.0042242271593538 7.084621309375233 0.31642875138324855 -1.8181499440763655 1.497906446932717
Ni 8.071389154785777 7.502028316609583 0.2692973264655587 0.471150283430266 -0.9778581522501675 -0.05871936821807953
Ni 0.846889932298209 9.121319772617527 1.374134836177984 0.3727667638533451 1.0960548498982736 1.115308555921563
Ni 7.831493780777704 9.15879675898497 4.9841433403305295 0.6936360675064506 -0.8639418271449701 -1.6573894049241198
Ni 3.4267654238648784 0.7900966709478151 11.199287436957688 1.9283011457121761 1.1193940388448465 -0.2205767399789298
Ni 3.0178758292214356 8.438377976252257 9.162782804206628 -0.5072768539494942 -0.23897272598761424 -0.09001277901472239
Ni 7.891989297252543 4.978318223988685 12.071777832796776 1.9297669316244253 1.5172599117586645 0.0834343544662563
Ni 8.50277792511034 2.47918472475401 5.026561613096529 -0.6419016152466364 0.1779591624187193 -0.4701627227060161
Ni 3.4652811190848696 0.9547125482859637 2.024952706440917 -0.6961920011590849 -1.3024061903064408 -0.19078408209752948
Ni 5.201288208211907 0.6851240123742437 8.764001145084562 -1.4162986041522383 0.38888320979923346 -0.43940898646292714
Ni 6.8006587122977376 3.7506571021367274 3.260309547987927 -0.5699719189858701 2.363751147527355 1.7058277029311653
Ni 7.009281530495117 5.079323385712964 1.0146887103345277 0.4668064046392734 1.365277375909365 0.8651384185562326
Ni 6.883514291660946 3.024497598156441 12.228758272650065 -0.7310322487667217 -1.6232351276399142 -0.5104925326733144
Ni 5.274656295109416 8.220230568844444 10.531107362740663 -0.31136522081741214 -0.2474774210245157 1.0357663374208614
Ni 4.957553321123874 5.907619502131915 2.3513465601450694 0.6461326226088485 -1.024488964734829 -0.13942192557546956
Ni 3.675016839624266 6.247509151570267 11.548104418016258 -0.23049759863706754 0.00825144137551482 -0.7838383368241597
Ni 4.565746777430403 2.8210497758494437 2.81764429468287 0.898588213574246 0.742955739677185 -1.340100362423105
Ni 5.191605957836355 2.4899335065406634 5.22460165743994 0.9651774714587056 -0.25916437044414076 0.37914618501712766
Ni 2.891348107120221 0.7991529137559832 7.5021071471921426 0.392413334439679 -2.4022233354606244 0.39465919305106223
Ni 7.074135914476191 6.549374637656352 3.3875495275880336 0.5013825999522462 -0.829022903780598 -0.22688339892324796
Ni 3.327763486356231 3.050660077380037 11.891546080762884 0.7013390925776631 1.004948066488424 0.2699262369463351
Ni 6.8183074886048995 3.2761433660589825 9.804059391723998 0.7014100550249146 -1.0220145350524075 -0.4788206554913302
P 2.2544433709697436 8.513999690392351 11.178777574212923 -2.549008129159068 -2.8684820951265437 1.138646459316555
P 4.2468075145805315 0.994322597475606 4.060737662344139 -0.5741985554727078 -1.3257646625267232 0.030134357491535202
P 1.155656340323421 4.717639398743436 11.142440385327431 1.3617737336314806 0.4157779773075484 -0.18519167561141656
P 9.223651142966043 1.4078400110246043 13.393232509196737 1.8152332846502026 -1.521498118209728 1.1499734542936002
P 5.419148115848032 4.947444458183882 4.597646268227099 0.004567564766024391 0.7820935862189111 -1.0442383794476144
P 5.832146174970756 4.716860367104022 11.168922823974357 -0.8391625633177612 -0.7135482330493453 -0.05277163527507686
P 5.450263010493607 8.91043405299138 12.839276094271304 -0.2033824875878304 -0.8178062091291721 -1.4773008548672235
P 6.465331962461657 7.727279750633941 1.5787447140137707 -0.5217465083205788 -0.5601814152580094 0.30537249356908697
