# total energy = -381168.0451553608 ev
CRYSTAL
PRIMVEC
9.23488260224695 0.00000000000000 0.00000000000000
0.00000000000000 9.23488260224695 0.00000000000000
0.00000000000000 0.00000000000000 13.51618416463541
PRIMCOORD
 96 1
Ni 2.7635663240994353 1.8628512841342078 4.48123694229367 1.7399539551909131 -1.1872058562824972 0.1966539106147452
Ni 5.666339268581875 2.182913845447338 9.441460464132735 1.4779613712693578 0.2592564159373148 2.227319157818145
Ni 2.232024951139046 4.759002817789089 8.569503772086753 0.6284930551502144 0.27233613193940837 0.31598600741887517
Ni 1.2795114546441473 1.3978380054579604 11.810171836191964 -1.1093230277620894 -1.684415041583344 0.22766347162238212
Ni 4.16872759146291 6.729255786615768 11.089461280980714 0.8285395363862763 -0.38712560367817844 0.1926818133408746
Ni 6.497801923894579 9.11606660509192 1.184537151472798 1.8532678708254209 0.1068802441940224 1.340012944915621
Ni 0.9150974461337624 6.730280858584888 9.111408530306116 -0.3126399737647777 1.229773811551695 -1.0156739375463604
Ni 2.8401789101878925 9.148628801156034 5.811175473400693 0.07981604098737867 -0.4933638434128277 -0.135887687169966
Ni 3.128325717219236 6.906777934925605 4.996906322521388 1.127683275436832 -0.9904645281602684 -1.1190911628924467
Ni 3.32999708354032 7.053289347448913 8.985058713485355 0.7097162608977649 0.14439109665528682 0.3364231922273045
Ni 5.801925814983842 3.544680399451404 12.467003784938361 -0.06774059788008333 -0.33685359489650374 -0.7348313107978377
Ni 2.211800558234789 7.138970588255169 7.025145119222879 -1.1832656406878266 0.015235843113147955 0.2726199817284144
Ni 6.680135446041455 8.780831131659294 8.796414072566437 1.2793691059813193 1.082649118015329 -0.46527094183135354
Ni 3.062471769365236 7.291355386115057 13.104521900205318 0.6862307761813149 -1.8604679881182864 -0.5792127208578476
Ni 1.2477157538362211 7.525201083430859 1.0165250852692649 2.0645518726485155 1.9681455314026233 -1.1526779977089567
Ni 0.5831939183449064 0.9083430529966967 0.7291346151232451 0.24764428561968319 -0.41359819604741027 -1.6883339170217762
Ni 2.762772124195433 0.14861788924543654 0.21738728953773526 0.39827930630215275 0.5558480779899783 -1.0789516145590838
Ni 3.0251536087597084 1.4431258697513296 10.034563411512465 0.6103096993729683 2.0752432909240905 0.6525840346611471
Ni 2.4696846549705835 8.66100852986352 10.960935725818286 2.779676449046045 -0.4389860399928956 -0.32264285061376047
Ni 2.6333267747255804 2.5833198854212176 13.478420133150713 -0.9062483012226651 0.40565837237504326 0.1332196534194996
Ni 6.090562070793234 7.705936970887125 3.0500619341210617 -0.5464494103838976 0.012684537446203962 -0.4320142366607527
Ni 8.99035214819436 5.826721474777418 1.063072587549913 0.04959375176772749 -2.2845974227143233 -0.6724463208027128
Ni 1.1470093590321444 3.2001915736488846 4.385407488993127 -1.9601056918172823 1.2826732306538877 1.2184000224971145
Ni 6.311257295279966 1.9171431589671437 2.3064691867919236 -0.35825545761104755 0.8007345983588662 1.7098435089587778
P 1.9747318868899517 6.357182366473059 10.759598662247491 1.4425678222614122 -0.6675260006829601 2.004195483047645
Ni 0.19444599417117983 8.390260241659403 6.755023879547617 0.05328945545175983 0.268660225749718 0.29029862995510003
P 1.180162587582959 0.17675011212408476 2.810312376356084 -0.07057472489476878 0.9369770977650895 -0.4562885358270852
Ni 7.114082579635546 8.383897407544776 11.18689945083099 0.925580940113006 -0.8309016088605496 -1.1059397131121533
P 4.2094164842191475 6.347587323446792 6.881333062884919 1.3683254187070693 -0.4586806902083455 -0.14664518279678615
P 2.682724161778034 5.168265110180859 3.412282658012834 1.4036307788765825 -0.39155921396949983 0.32531705501181396
P 4.232734562795974 1.6652617359243935 8.145799046789516 -2.2647850159740868 -1.2283910722715556 -1.6825067688170379
Ni 1.092440437721068 5.284680040295503 12.585756987328509 0.03835443140848233 0.6227636088656049 -1.6552746725739622
Ni 7.020893379271682 3.6049195386817563 4.1534152326160845 -1.323652501279727 -1.4535436045466257 1.0697262393060738
Ni 4.243123805726243 3.0818003786568386 2.885205427303549 -1.2921248629850908 1.4111206594957244 -0.18428407619548262
Ni 5.85438918306105 7.729301223876975 5.570330658558801 -1.8748270850534356 -0.47029256341566106 0.38540656410454266
Ni 6.1329963563617556 5.206931563646671 10.55231433427928 1.483888021166438 -0.15024241322974125 0.28442340212124567
Ni 4.185202622029666 4.272629255648208 5.20633960767171 -0.1435292628756238 -0.7220608985060468 1.2017068781121498
Ni 4.857068036168225 8.59140521967202 7.530785416941911 -1.662088610172002 0.643676190648556 -0.06760098697842551
Ni 7.903877444635917 7.48997000629399 4.864677579434485 1.6504631101179317 0.5294402774204109 0.7430696395472298
Ni 8.676966407004416 3.71666161819843 2.7076297166746053 0.1051267518380254 -0.22410532195747856 -2.177072860068083
Ni 0.6713815062900738 7.905059509609316 11.874724589086966 -1.7137215038569453 -1.1965561871491457 1.8227820435317383
Ni 1.1699672771873881 1.3431397957904183 6.68000892814977 -0.6918401519482924 0.035497164465345316 -1.072602018191972
Ni 0.8164947575870327 7.702270722493066 4.038527752084255 1.0367377001951952 0.6475320740595364 1.7623408075265454
Ni 0.6396984710499246 5.540477053562639 3.605010040531282 -0.7423846976650634 -0.4331288098811702 0.021601894540491832
Ni 4.914250429256427 9.185448278100909 10.124405890420393 -0.6710263005267346 -0.7043156587074838 0.9164272986381958
Ni 7.908568764999097 1.4241020115856813 10.144734637498082 0.23298102718055358 -2.5543778781114135 1.4501615754482702
Ni 9.157235711743601 0.5876368203660198 4.730353441484578 1.709689499879417 0.4522979266104533 0.0697655987299121
Ni 9.314764339214296 4.667355842820206 10.169604176352497 -0.6084909009966746 0.7125917826733469 -0.43112952006295424
Ni 2.8246273678816047 2.865399374581284 6.84337954235619 2.559480746555618 -0.1838637008286124 0.007401177560077577
Ni 3.2871102887241688 0.9798302792395539 2.2924127719793344 -0.03306361532318822 0.5583086237153287 0.060192353219180206
Ni 2.1496497983052674 5.506178699568844 1.0027928148361 1.0104738814026597 -1.8578729736976005 2.2557779273794702
Ni 4.702863966435215 0.12051152403808146 4.0899300321501855 -0.9580933109184144 0.3687409305234037 0.2603902724314419
Ni 4.109984503214517 4.327124297898447 10.080072912988348 -0.8293106102243459 -0.3297452659864966 0.29193025202125206
Ni 2.9013600074439223 8.112050168310699 3.028828168548112 1.0125536467498237 -1.4495020874874005 -1.0115336901257417
Ni 8.745683168465867 7.816783266791145 2.1195403870609564 -3.294730890058429 1.6736493184264079 2.42524884982152
Ni 7.907986967395002 7.865783553891597 13.381684737866651 0.3569071711132692 -0.8377350868426153 -0.034136536672392824
P 3.910547978483766 1.4742381892465095 12.150198366719902 -0.24875191686156514 -0.9441396769517999 -1.8129781700674388
Ni 5.048858078102298 3.845072660816558 7.881719267314239 -1.2767938890549753 2.278786986680134 -0.2085249510207183
P 7.401287428641211 3.3313823159310223 10.330879395695913 -0.9968976853801218 3.571887583314932 -0.6276188800753773
Ni 0.7704283926900887 2.1268026987412796 9.445326185991055 0.7680443072146966 0.8101232386626176 -0.4496890282326965
P 8.287300535499783 0.6641256590275737 12.492481902556422 1.0170098827489646 -0.22571046166106937 -0.34112085481328996
P 7.358058943168687 9.184866480496813 6.514084868903157 -0.7092316079518625 -0.5628893011074758 -0.4111453636315435
P 8.401656086793581 5.138279446363451 5.3830906432840555 1.7688868361751795 -0.8036857105673901 -1.1292637325500745
Ni 6.414891147869727 4.402610228309132 1.1175547009645055 0.6089711830672029 -2.1673209228876416 1.6451918344166634
Ni 4.428366315893595 5.968504627407127 1.377974696463546 -0.9698247404227297 0.6063892812726396 -0.27907062244976455
Ni 0.4926486648707633 9.058006898156274 9.85854285511415 -1.1893049049033713 -0.12529628480736485 -1.0263427301141164
Ni 8.074556544935682 5.711063805036358 12.137668478001865 -0.8740318643911205 0.22682503488148675 -0.09086921347774672
Ni 8.698963897368772 3.244214259025412 12.063288886527223 -0.166941471151977 -0.6395706531206147 -0.7187719433421298
Ni 4.9603971376320315 5.3647095329476935 3.377126383425063 0.0049434600482043895 0.3700290532072079 0.9255120345482835
Ni 5.596338858438371 5.800420529119278 13.024465626393575 0.8400925313311983 1.887620380163362 -2.2743623752498765
Ni 1.8983778775144262 4.912671264331027 5.94386319015305 -0.326590779517915 0.5060959462675155 -0.3235599631113912
Ni 7.928663869546888 7.021364358284521 9.126776298448572 0.21036920331830866 -1.0942180537998512 0.4737234434740809
Ni 1.6880718959579626 3.4815045675527623 11.151797662050589 2.56240871883569 0.419993815161109 -0.30411470990258593
Ni 6.257390225046846 1.2064265937106797 12.03282393230263 -0.6914442020614544 0.5862994525013 -0.9628719632539803
Ni 7.81241516731913 4.555706112129579 8.343649018688783 -1.0788744814642452 -0.48514994014346774 0.17476302407892483
Ni 6.9484641950031465 0.6342526607779425 4.430767385370813 -0.4582654570477978 0.18955149524200907 0.21771587349136695
Ni 7.491115131736971 2.3221758751259696 0.3615696646681422 0.7549669052054482 -0.5770864185434642 0.27304755618413623
Ni 8.422388398241097 1.0954417745675902 7.952301475061836 -0.13813843087735567 0.45767153221754087 -0.3210245982840471
Ni 2.2901400673703214 9.36223163580237 8.242088397243773 0.6176160032263944 -0.6191458096073595 0.18095758292541095
Ni 7.208998703046485 5.75217750239241 3.6135920169358147 0.9000061769676952 0.00199594738410624 -0.9805534396941435
Ni 3.5010271093790633 4.638441425384942 12.475248688127822 0.20326961615904995 0.7048414493039666 0.1939311123669434
Ni 5.717168062438054 6.336985678216615 8.540904264148306 -0.5970093827196363 0.018721230558587112 -0.7263145315760782
Ni 8.308586939903579 2.6561184649939396 6.053411985051111 0.027272462562707867 0.5031967703428495 -0.5765133196488136
Ni 4.98135108626206 1.3652850442764501 0.5227220600729161 -1.2882700080153748 0.9366909339832385 -0.5738542847594117
Ni 6.571182301071396 4.988859045819668 6.221066661297843 -1.7958199131205974 0.25527557691269587 0.6698862733850205
Ni 8.516076282265614 1.2841566005943033 2.4506598733166745 -0.5499060014739304 0.14341767699842398 1.5945729838185312
Ni 1.5850660153853195 2.7281505493104734 2.1516814724782978 -0.3280894755506285 0.12125965284414598 -0.6024698916135753
Ni 5.438727117024234 8.33946838733364 12.814910440792872 -1.2392624677684208 -0.8089197052728198 -1.2234998056175252
P 4.404992828021141 3.5013410953876227 0.7816746327260726 0.3437739761654208 1.0309712300250633 -0.577548188671231
Ni 6.035651458825783 2.1127933818299742 6.917664014540005 0.9013920015716281 -1.510395323428347 -1.567419820442507
P 7.0451995902872095 6.310961779036616 1.4768054866106115 -1.1981649263971623 2.508436892604925 0.12172090875128071
Ni 9.248457882112668 6.080052774389103 7.069612925940952 -0.15062627893172126 -0.7302285219185036 -0.2792783675851964
P 0.2422300472325951 3.700639096879304 0.4503529025413116 0.6659787108004982 -0.3589098033655948 1.994394180686507
P 5.390410211236528 2.2174615412714602 4.445148868051087 -0.4133739958517461 -0.45990479242343374 1.3132151079964869
P 4.527909115489481 8.162241755267155 1.2175112233010816 -1.269025815073782 0.3602282650667022 0.9872966719552482
Ni 0.8113287642579726 3.431950187496029 7.450580461520232 -2.5732276638280656 0.7649744100401212 0.5733308081557739
