# total energy = -340877.0777275643 ev
CRYSTAL
PRIMVEC
9.20775891591123 0.00000000000000 0.00000000000000

0.00000000000000 9.20775891591123 0.00000000000000

0.00000000000000 0.00000000000000 13.47648590796982

PRIMCOORD
 96 1
Ni 4.470219717784104 5.202641707450949 7.178331240748705 0.20824341522455747 -1.4823438166077696 0.6767338924344731
Ni 4.942844784509558 4.895452448433734 0.4136097763406139 -0.49060762082392934 0.236276924323006 0.20185268120686525
Ni 4.46712591072728 7.6455983124552125 3.3525183849684246 0.21178125317448687 0.3039694425739733 -0.4478218931169707
Ni 3.3396818480103314 2.432524213946577 3.3609821571310237 -0.18458001016934664 -0.5584361504321286 -0.8375396830023575
Ni 2.139524111698907 6.011184241578417 12.024556246718447 0.6599088504573345 1.6030100588422909 -0.5253301119067791
Ni 0.0477680126470087 6.405129006814089 6.198280381788069 0.06548985417269367 0.7023953017563193 -1.794234828021665
Ni 6.392210520800027 5.92538634230612 11.786427022485745 0.42847382760766206 -0.5243206968056583 1.3763284915172038
Ni 0.38440920991410193 4.789388271387416 10.957016943915177 -0.6223923415691153 -0.5863341623939772 -0.028714594325873127
Ni 0.13478133612020202 2.211795812856695 13.251267318715797 1.1005013157054013 0.32331776519359806 -0.48197257085675055
Ni 1.736942468429599 5.2000174961081065 7.388227634036062 0.3271111707977592 0.4085117826634384 -2.758930217637629
Ni 3.930331970850007 5.19106755426515 2.942658008132391 -0.5016083428098072 0.2022242056136711 -0.6820581328608641
Ni 8.756385538964434 6.468432350610724 12.656455288763963 0.4693577103062175 -0.24554780810197066 -0.10982981374064955
Ni 0.6358022111270296 7.284313468739054 10.497158435178672 -0.4518310142763638 -0.5935085686552295 -1.7859954708310082
Ni 0.8778355252171528 2.035531680449569 4.111864783012832 -0.4431286014063594 -1.2233979899323382 0.4912190291556831
Ni 9.249194013632028 0.9460143774560162 8.587271231496665 0.4650657677990829 -0.7061141453688033 -1.0499662830703274
Ni 6.98869836290764 2.5789275835998864 0.010409371659941274 0.8847993873202699 0.0024759723443183164 0.42947064430329257
Ni 2.858511980842219 6.016110392695683 9.211029693723914 0.7303375366925422 0.23447560944820908 1.3695713752990282
Ni 1.5465720490848085 1.9858834433948114 1.724828740560675 0.012047418082837318 0.5354173209394522 0.4433772270820558
Ni 6.306734893096149 3.689760848904597 8.260601116556463 0.9255724554725738 0.6027393432248781 -1.5276613095976463
Ni 7.997528072928113 0.20221251832033288 4.5565350931176924 1.8671788244795584 -0.4074761423100724 -0.6421312147589393
Ni 0.7894170977056516 9.007379844208431 12.012777681280678 1.0216468673003436 1.1222662181863188 0.767803394848484
Ni 4.298531841648531 4.989785940389594 11.221465626752721 0.304834618787746 0.11171648924040116 -1.1204561615607738
Ni 3.6734631153016815 8.642375065816806 6.28346596508037 0.9530261808081522 0.14985314821112258 0.36845836628597833
Ni 9.027876315959894 7.372091036217356 1.6002652547111824 -0.22191679894659203 -0.9008443565982744 -0.4213089344281067
P 5.810740533780751 0.5259821891447619 0.8968670424961732 0.47589859674852875 0.21710497938024545 0.42486322743826826
P 3.8350132486706947 0.3950257561537413 4.2489747614088405 0.16363503248656336 -0.4278649903790696 -0.4130495226327919
P 5.871419666234544 9.354346622527677 7.24111802925996 0.0632787054539878 -0.13531355983405083 0.4313310945507991
P 6.021432477454149 4.141696080937536 5.9506772942197514 0.6561594107172313 -0.7822216271563431 -0.01655250504204246
P 5.65169491088631 1.597177893085726 11.010976253779473 -1.3731326102877255 -0.47557360930894227 1.1419770663516848
P 7.101880137736475 3.049462489010164 2.4434759226173726 1.1542276015842639 -0.04830228664981359 0.029291549875265683
P 5.753947075666185 6.15976985013788 1.970275370948313 -0.8217389685246751 1.5062121385849352 -0.009787161293750887
P 7.427475707189976 6.852487982575475 4.863407605221946 -0.4876883902946052 0.8102008859780885 0.9207051000779434
Ni 6.345840245984048 3.7332398873639008 10.58184495792788 0.7986926282281729 -0.7534219293158315 1.3096960390996346
Ni 3.1091379757223088 1.472375926275603 10.79986719861895 0.6452684748363403 0.31092916172125806 0.4326518702447516
Ni 1.7164183734008427 9.003788818160332 0.8756275045855262 -0.48889886566293866 -0.7665309558939637 -0.7271305997194702
Ni 8.249203752345341 0.14380309848412104 0.8266624832558174 -0.4657386254963915 2.0376869299368714 -1.1326084806525913
Ni 7.089790350041205 5.149945702134856 3.158551414920075 1.184528052340018 1.0460605202580178 1.3707479121056327
Ni 2.7042083538830894 1.2545571770605914 8.04027417376324 -1.5491261643396417 -1.6401105632390143 2.046892507695539
Ni 3.077205467171512 3.901410399524155 5.018872330603294 -0.34659061967860955 1.6827001157747663 1.2905271794806676
Ni 4.243616766389893 0.43898728118976393 12.789279976075907 0.08996624204750313 -0.42131947595106795 0.25763533539412403
Ni 2.8727655919254467 4.019131599588152 12.792257765368099 -0.6646977872055456 -2.1806731758248312 1.4407924755285446
Ni 7.466470566968703 5.050354579734214 0.8394327243484071 -0.01643449140693944 -0.262853903480586 -0.8884344129696956
Ni 7.834633606730837 2.3510263381729013 6.8040625359288915 0.6830765468230494 -0.7236614102239473 1.4501240373421156
Ni 5.200330559917428 2.7051107142746633 1.584134181547935 -1.5221879451879012 -0.6052471972483964 -0.45615766667617574
Ni 0.8464112849685481 2.975984571410579 6.425561945027779 0.5544504263115032 0.29816646273895103 -0.23202971901087782
Ni 0.7569293612812635 4.427431261257127 0.4444493238865151 -0.4166007303191599 0.4688812848904312 -0.36009405348168305
Ni 6.871953185307998 1.4744016332770953 9.352209501641104 1.4254023662257194 0.9785520929933986 -1.2989120611102531
Ni 7.896040152153348 3.5550052945098685 4.708468642885076 -0.015311947766722015 -0.2770538491300519 0.9168906114278595
Ni 5.259066855201608 6.06404598655827 4.838921411453452 0.6465301151575834 -0.9870858414960227 1.0905362340728895
Ni 2.21660226310569 7.883149289416578 2.7868967929080966 -1.6486916200398056 0.22484888499172243 1.2438009790687226
Ni 7.421103937894372 8.37158407851277 9.45157227161612 0.6009750522356038 0.49315147029170553 -0.43068651898826465
Ni 5.873205971499497 8.532250267008406 5.159162668991645 0.024776435613731523 -0.3636074659515802 0.02211765783464578
Ni 5.394098642369268 3.48161945450126 3.7900324247025576 0.5741921277148048 0.29968135672158064 1.9443443152179676
Ni -0.02647046585404615 3.629164586282683 2.7146766552012562 -0.19187911493392115 0.8935830470501707 -1.0427569098060816
Ni 6.700357386763402 7.714895907424444 -0.006787039230909077 -0.659999867509244 -0.22718576065501517 -0.7411210004612914
Ni 0.094464242135046 6.873675036259265 3.784480145966649 -0.5368517393931336 0.12813349714584385 1.2958218522207037
P 2.257457090222151 1.4844749217299709 13.16478896604618 0.40624355545455193 0.31174651541623083 -1.3527568748448509
P 4.4189969539236404 6.611769536484503 12.61318250410845 -0.1963831734518618 2.123645593486878 -0.9051252433618154
P 5.556136786970459 5.433093502147995 9.387706333738617 -1.1421105066057557 1.0556774745224915 -0.5536086471364983
P 2.9475878423532955 3.2210859108320533 7.291762545849088 -0.8071633847033453 1.5132844720506842 -0.6268043545938817
P 2.918316376181731 3.808006891237163 1.5002561000475059 -0.07413236033904007 0.0252150658130469 0.8618126966171094
P 1.4559492840453199 6.805583657731831 0.39445027121013554 -0.3529301887433922 -0.35786336437895144 0.16844016718469054
P 7.968219775720158 8.309569820989811 11.73222462778127 -0.9776565777623228 -1.2712189660703592 -0.88110085542276
P 1.6637131603256516 9.158387093410587 9.877118986850984 -0.4324132718713843 1.0755081360951735 -1.1629400417565972
Ni 2.51510860529378 6.405617018046267 4.7152335834941494 0.46673235686822845 -0.482925164578007 0.7480622076658149
Ni 1.4532053718342075 5.552702292827019 2.4094477280959405 1.2261071613333852 -0.041010895194722924 -0.22494453002932227
Ni 4.827084837133368 7.5572406561537555 8.370407326900084 0.22218959299200444 -2.280428636048615 -0.5991187157531552
Ni 1.6158512285358464 8.614226946255162 4.985396601627724 -0.16135883485787694 0.6351259870856998 -1.8846656684104122
Ni 7.613380363372386 6.1201212394632165 9.819614689734074 0.021666429229840106 -1.3079662008927215 -0.2636758851612491
Ni 7.958349057967432 8.445614461658218 6.867024271863003 -0.11517333744075003 0.6493657848341655 0.5105331561032627
Ni 4.806284509331681 0.3258561490359661 9.270326741537144 -0.5233827583724212 1.938192436683959 0.5504577602123423
Ni 2.7587827420551125 1.6261178799297733 5.6924272748067715 0.2199650745368599 -0.5204753549176392 -0.5562478845315582
Ni 6.750806698859658 8.178073813315667 2.2765420125039384 -0.28105602831090953 -1.201345638117989 0.9682337417865261
Ni 4.867645015958703 2.8631618991865535 12.694000847260714 -0.09037016235414114 -0.9735204441067622 -1.6961953220477242
Ni 6.178618133010857 1.7518314148905678 5.531692948893815 -1.1681946052873173 -0.32927012612229095 -1.218460957642037
Ni 6.807176600055731 6.259581958756866 7.161660592902333 0.009164182997771313 -0.16708288182584774 -0.365976223294073
Ni 5.651639664331724 8.032397856631075 10.981894467445322 0.0032164500547686545 0.28955043893516585 1.016566881674275
Ni 1.4181146019129018 8.292286857163443 7.206928698954318 -0.740784443057479 -0.2677351428322873 2.3251432053471697
Ni 1.352518526100941 3.757557579140906 8.924964875628625 0.6437394397863236 -1.5888656490211088 0.6282796535878276
Ni 4.071385632467557 3.5214982591533657 9.249370802606705 -0.5788522521946353 -0.16384226340136301 -0.11294110567612162
Ni 0.7779819816822274 1.9901190125797497 10.612975470661269 -0.3477314181512721 0.5377176869378546 0.4587994751743969
Ni 6.27413021813122 1.0301272568134365 3.191541894991197 -1.2995278403173813 1.2236545860278345 -0.3166593793368159
Ni 3.4894644652524938 7.015879667764027 1.1317698679410435 1.2718817964653384 -0.19322380188727367 -1.2097487745800197
Ni 3.6989962312795828 0.4695809815677568 2.0549885961989025 1.2961900341933998 -0.06459048228687586 -0.8703659855037591
Ni 8.609853260683757 4.675994718099333 7.558556444928815 -0.8668353466426814 -1.4449643475180471 0.5369034185666753
Ni 3.262787851785502 8.132596691132164 10.774437209542942 -0.0988288346444556 -0.8522065409859129 0.36244275621951777
Ni 4.734657351310732 2.1084939635396833 7.34398435157165 1.430750003690878 -0.02310933232395375 -0.09123122480285578
Ni 7.974462636388394 1.1838231716721181 11.709503561431804 -1.7704824627970732 0.36848356309695895 -0.8440510017583142
P 9.123250284693793 6.56365899519906 8.373790257592578 0.3161184192316814 1.620945303164473 -0.16113026378683862
P 3.0673807882142734 6.721544440447192 6.959984886937395 0.33347413690130956 1.9224482864758246 -0.12765964283321884
P 2.437008392627153 4.018956652165296 10.71726991640901 -0.14758132145781036 -0.54954938946546 -0.2488534754364359
P 0.997181894761893 4.771608088569772 4.4832634293218945 -0.5427519069276524 -0.649344701788243 0.3762372389004488
P 0.22385627685536863 0.18037447606833576 2.6870902089445696 0.5214732000545342 0.032253460717067035 0.7942407631044063
P 7.847773078963243 4.278182694042631 12.141748000634328 0.4384695053677932 -0.2355917253305233 1.433335762140183
P 8.589135802713947 3.0177509666777116 8.92566558609596 -1.6739398530836331 -1.1901027182143182 0.3287566768209822
P 0.39103971724035025 0.7592377464870549 6.084983509970512 -0.6925410346700589 1.2052277467812147 0.9837264381054864
