# total energy = -340867.3122389142 ev
CRYSTAL
PRIMVEC
9.32104973387219 0.00000000000000 0.00000000000000
0.00000000000000 9.32104973387219 0.00000000000000
0.00000000000000 0.00000000000000 13.64229847166933
PRIMCOORD
 96 1
Ni 6.151482601815243 4.849583642728061 11.521862180271567 0.5408050676139267 0.20358740450978485 1.4709162914971183
Ni 1.5194802196169344 6.806323619561772 7.142424821916223 1.2159091377544606 -0.19387197699423386 -0.36700877832364537
Ni 4.643290173249224 7.728128818554611 5.5772034156567125 -2.2300380994112046 2.0848342770466353 -0.1027741924454488
Ni 2.235765596246731 4.538055523402122 7.284428216072612 0.09680280535336232 -0.9200350705941122 0.8564609453868927
Ni 6.190453910142145 1.3459222762907128 8.174369407049303 0.7496053837832186 0.2924354737924448 2.5973512963491463
Ni 6.3851053886857265 8.572811653257377 7.089261283486822 0.8137644349596308 -2.066214347952603 1.026751535516761
Ni 6.226703471989389 1.9278447231113 10.825054068860595 2.4886990478563655 -0.47207845167149026 -2.1171856967941474
Ni 6.632653823640496 6.453204976974737 2.764557128311475 -0.39930260536034456 1.2724474391608214 0.5940960657275833
Ni 0.5642264341780076 6.860506880816085 12.92292592171423 0.19972097957584314 2.089290513045776 0.6545825531484146
Ni 8.624627367916371 7.210381798146539 7.7335051999568964 -1.3705995594532265 0.7109758443364788 1.223681582611028
Ni 6.328498654538565 0.5163945361128712 12.791619364064884 0.9162354943423641 0.17116322254280847 -0.8003198794189507
Ni 3.073998264634689 5.4298376216724185 5.206446550934544 0.4189329779967624 1.2940107671538938 0.003920675210644861
Ni 6.777903739368341 4.211352735347124 1.6386722091169195 -0.9100581618870583 -0.19071183409869738 -0.3831771605533917
Ni 1.9571128188172255 9.288006467085392 10.826104551149147 -0.6954692640604473 -0.21161824523406134 0.47634236915416683
Ni 1.5273751486178642 2.0203002139734263 6.406777761082494 2.0331587030492146 0.18575294743152523 -0.8685574715401105
Ni 6.12193487462168 4.261136461195961 8.331324696849602 -0.5811832143206571 -0.849371385529963 -0.3215113081124786
Ni 7.533225671672157 7.768759273708155 12.84621554781594 -0.6831716776400171 -1.0540700208260558 -0.46104096291040597
Ni 4.8672190685483185 0.909783841339358 6.355633161993826 0.28240071526426197 1.07829238370853 -1.391766680449145
Ni 1.9063783459104253 9.015188666697897 13.47342058563938 0.8869179763251692 -0.5581733836890451 0.35234654832578033
Ni 7.465918372598115 4.295009155398296 6.023429090472065 -0.666698105465026 0.7561598970722848 0.6926222815299555
Ni 9.032693597823926 0.6322225588165925 2.977213146238995 0.19378995880338884 0.15438368909162445 -0.5928071717128307
Ni 1.1532934655077005 6.13232784491216 3.689505385225346 0.44081666544373116 0.5847063969825673 -0.22530936956790878
Ni 6.651286601766656 8.97974071511521 10.2081907355549 0.08272601554532205 -0.5708378665305911 0.9371023104890441
Ni 3.950922609861913 1.9965967848714616 3.266716557493745 -0.0021160179017382912 -0.007518676974548341 -0.1204662104085732
P 3.3478134173280876 1.1572083063346077 12.408624893338793 0.17763134676565537 -1.9020147012118211 -0.733818039041975
P 5.605781753693136 0.8183005359492469 4.102211633617744 -2.4697885841051077 0.5620544639110062 -1.9644333726583587
P 4.2021342173047165 3.40594880360766 1.16321013016424 -0.577909942886024 0.10035092771593686 -0.12170753901484199
P 3.246008913729323 0.7703204331956635 7.870405319463925 -1.012890204153636 0.41075841260577 -0.09671127408082054
P 8.290560950686952 2.9232862138483475 11.388972908402202 -0.2654502034528525 0.021544301829679025 0.2653306471558527
P 6.040627359066652 4.540357822650327 3.6729707753614154 0.23913316282487845 -0.8979351533712794 0.3949764671811649
P 6.776925029161616 2.348587580458363 6.4606375819161075 -0.06930331438151291 0.1860229132634603 -0.27974862235339565
P 0.02804144558016137 4.385069136516339 7.233132615980622 0.44996593604316704 0.15525272196013906 0.8495444207727175
Ni 8.760985002337385 9.505047106739049 0.5720449305723165 -0.42851290837571365 0.06793625883065721 -0.0976237585927609
Ni 6.007425780434644 2.062850805342073 0.7718714558470857 -2.5914565281312663 -0.20335137723957883 1.0044821825955992
Ni 8.954284928690724 1.5583117122000192 7.2326283471979185 -3.9031994224576008 -0.7105045611270151 1.1462767221683035
Ni 0.43479247539086596 0.019665550420497422 5.498091939384587 -0.19137903536905104 -0.5051803764317817 -0.36206300428259586
Ni 1.085641287598908 4.091437432399119 5.2084384592314725 -0.745498817814013 0.6625064359811816 -0.5196240626609374
Ni 4.69316710959394 3.7573337309713493 6.252497612513914 0.012194742293978997 -0.39302037189605865 -0.1322788867727851
Ni 9.173460088700004 7.7654316590052845 10.499194835793299 -1.3478920905533818 -0.7249014532786354 -0.641926812057617
Ni 4.559354121710415 8.562027198884206 13.322823183762969 -0.8343044638945114 -0.6601353646458438 -1.2569514004077516
Ni 7.378253901224157 5.633483913068298 9.866942449618026 0.9756917407264681 1.505916461721387 -1.3960840768775762
Ni 2.9705346142092828 4.528464163376199 2.975712457255347 0.7788979620997489 0.2228719637710097 -0.04213472438652099
Ni 1.09365739024448 3.415325779493062 10.951027121935757 -0.8348953034009751 0.059497898255316886 -0.46609909415960377
Ni -0.14817206477364553 0.959098718393925 10.25056329487642 -0.8988669211569295 1.1112500695814733 -0.08163818179778197
Ni 8.348202321338368 3.36630637971043 9.256872297251974 0.20659430965690873 0.30949242927473153 -0.5284167212519029
Ni 4.3190667843846 6.683872991125864 3.140675460756589 -0.3304530906867986 -0.9815715965460128 2.6074410764849802
Ni 7.215657512213275 0.4212191629810032 5.192477093917196 2.2389505714094864 0.8560619101762612 0.7925222377514028
Ni 1.9344999525170423 2.9140676958059397 1.741221464577755 0.45164049553211255 -1.634173886039605 -1.2954570126821174
Ni 4.8002007220115015 5.842405918530916 9.72873179053894 1.2904230498026357 1.0121530688772955 0.3930003172914006
Ni 2.7843093644931396 0.18000438122119541 5.654664134046825 0.41792227734406084 0.9430065917886211 0.2911920883036469
Ni 8.480160420353906 5.910887669853029 1.4326182906124916 0.24778852450703134 0.7124485722272633 -1.42224042355797
Ni 7.210950382171399 2.0984292516189895 3.0636369859128076 -2.533607992553914 -0.5639280267846353 0.3755276144279339
Ni 4.3691021785723105 9.478016062934213 10.535919771169523 0.7195329898778705 -0.3645124942643529 1.8743226346131912
Ni 3.006728249758999 1.966955847182021 10.283141295290998 -1.019473770908425 1.0377481437375806 1.7425258296831474
Ni 8.994747604951687 6.110563194124474 5.688633767164874 0.5124406575386207 1.0310905292117467 1.4255478906646482
Ni 4.042324822120609 6.0848557393611165 7.371043137262977 0.9708917482346634 -0.06789794939355402 0.3180022665179556
P 3.919482709602012 7.576782936396294 1.4428369572756783 0.0268878255297795 1.6723033459214747 -1.071852284510141
P 0.07380313853183078 8.99540007842284 12.198643084538036 -0.4505781157058692 -0.4411781625482079 0.050068634521617
P 8.042518500104027 8.0017202660579 1.9882423281258497 -0.765483745576372 0.6067075838440068 -1.8668674638867269
P 3.0293877213071214 2.8819939641740637 5.053462028258679 0.6153331207294886 1.0701813245656215 0.011954858369031023
P 8.03662759676449 9.233170732359927 8.67440084061066 1.1183059479869901 0.016082764494475526 -1.6761579437808745
P 1.7711019532416041 7.464082125829304 9.583359769061492 0.1078886308538787 -0.6582317198652277 -2.0630025258835243
P 1.8083488673947503 0.6144128293690408 2.1148837004564642 -0.6523554635901088 0.49866674368298 0.1424172607583676
P 1.6601348578979591 5.216544043953088 12.082301472002023 -0.34416838339036215 -0.3581338444315187 0.0027559654785823504
Ni 3.0866376078758466 7.2615263972352055 11.214173401270875 0.7541834900722043 0.8731021534879995 0.15902787273185515
Ni 1.203114475554889 2.0652369940365687 3.981791129782077 2.0587720327419445 -0.4004266916624588 -0.9725938185274347
Ni 8.548129513948686 2.5513856563417465 4.9494391148579995 -0.11375177450287506 -0.6474446565520526 0.1402891586717713
Ni 1.0034482723330314 7.890203228788571 1.880208567087509 -0.3080204727148953 -0.1367826881804096 0.41197505862169054
Ni 5.352193278605424 -0.16097079796275585 2.1134510551348082 0.40656905711477076 -0.27097061905044945 0.3532790874423787
Ni 4.672726047847731 5.65399954321121 0.6667402696504091 1.0283402201601193 -1.3963923521466144 0.4807548963995656
Ni 5.702646101010326 5.861197154500069 5.32160159385802 0.38791801767248674 -1.9802898800746407 0.11436292572431271
Ni 0.8049816881931332 1.640849606300647 12.668565663720642 -0.7969702462204274 0.5397169767560704 -0.35290010683640516
Ni 8.838340392867154 5.244544476915063 11.832129161588268 -2.1667149138725263 -0.8826715423439895 -1.4635274552322148
Ni 3.8997314055253067 2.7418333415211964 8.494991142353173 0.8041785910434085 1.3066384832202336 -2.5681245382735454
Ni 8.591546962929005 7.931476836363679 3.9492131293674966 0.4194001474411681 -1.5537037564079952 1.8628753120081982
Ni 3.683874539169311 5.269142726777463 11.949493293264071 2.154435582284541 -1.455815174189622 1.0501804559636623
Ni 9.446510915327197 3.773878593989826 13.584454792540058 0.0974185845604903 0.0768621005653773 -0.02605093145078094
Ni 8.341369991990456 5.112288104312713 3.9093367471256113 -1.0241058703637975 -1.6614129242612161 -2.0598696366814973
Ni 3.593040910935475 1.136338476307357 0.9970558965256672 0.326756872782134 0.6738306027447492 -0.6087282138184613
Ni 2.721886295403145 4.856192266885864 9.729851248594443 0.46408232083989104 -0.6600780290453471 -0.28984483024713315
Ni 8.949270204012448 3.288773889238491 2.270733513775642 0.5940814104395639 -0.4513088232243066 2.109652878752212
Ni 4.384053142111261 8.451395661325725 8.558223278547395 -0.00336480270717485 -1.3845611638396411 -0.8647311558154849
Ni 0.5835387168191246 5.567248534696862 9.355274617751165 -1.180953190504566 -0.08405373321781008 -0.7454659076935485
Ni 5.100916423815506 2.882152422017058 12.342432391795462 -1.7716919097241426 0.48451487766263013 2.6044277435799534
Ni 1.2509780651886242 2.5268992590744004 8.585466842282834 1.0303508228322449 0.6090380317493963 1.4527468196769433
Ni 1.1618967942773084 8.987859349306248 7.922001057352645 0.17355023471774628 0.9963443839798132 0.9209475551060526
Ni 2.494499290706949 6.424785096781308 0.48346140370899343 -1.29498264414886 -0.5932414310367718 -0.2721371285547249
Ni 2.710169736071187 3.102343576431415 12.673804093589027 -0.02804379351109364 1.4082592787875294 1.5514764097393732
P 6.746184207620805 7.662648445199793 5.030747562517987 0.7607786267912188 -0.5572009924734469 -0.12835769734150798
P 5.432158563019798 7.497609941196889 11.371755997708439 -0.13911493585801202 -0.006985687289213775 0.0039019061575674735
P 2.1580653268822103 7.720383026347086 4.957447760663902 -0.5966417149675725 -2.4982967188471297 0.2048744987523246
P 6.280513891260188 6.433723983336079 7.938398647787634 -0.18484534801559133 -0.2286911415559481 0.4370114327650281
P 0.8884470267277547 4.83669263114803 1.8538113546546486 3.047187905903301 1.3531260852588114 0.10137628365665767
P 7.989369875353966 2.2327642182794354 0.7977373684534371 1.4235015496585806 -0.6670284922212513 -0.6734732194053304
P 4.836720594296794 3.536117261102326 10.296279314685108 -0.686942714646675 1.0438539995250022 -0.7833385143696058
P 6.7001382226567054 5.592508579080002 13.572504274863443 1.2523421837705142 0.6032962441696126 -0.8553188613626496
