# total energy = -340873.383274168 ev
CRYSTAL
PRIMVEC
9.22187626722683 0.00000000000000 0.00000000000000
0.00000000000000 9.22187626722683 0.00000000000000
0.00000000000000 0.00000000000000 13.49714807862545
PRIMCOORD
 96 1
Ni 8.089992589087448 2.7326909938393666 5.9030587010774855 0.7320501485082748 0.9895715840323539 -0.1261437204093247
Ni 8.719782200031682 4.19445985771094 2.391964790138794 0.9012449344708028 1.1783437779061772 2.9096811950726726
Ni 7.813133413187023 1.1168153519892432 7.598664842661133 -0.6227330127379855 0.8994271645357734 1.3781051238016526
Ni 0.14167476628607856 0.7304048943584495 5.9360859295289465 1.255774863601147 -0.3110080945883096 -1.2810084413569551
Ni 4.609103090207471 1.1798099902736947 4.228198092839569 -0.17120667418623417 0.4436803601447714 -0.29904809401295596
Ni 7.516004552767607 8.14656880133677 6.789767946581397 -0.41775824096237085 -0.7132528132961136 -0.5165631643474264
Ni 6.662040346294646 3.770530195591742 1.3101077275374446 0.6681595205019009 3.898388631332518 -1.3918361002344997
Ni 2.380940958985928 6.5789235735150005 7.7866131407849695 -1.1132041079840507 -0.21613078839243421 -1.2232429524117125
Ni 5.217903710266707 0.5660701331678833 6.5113484291793275 0.40078690321535493 0.9211326745336652 0.4980406800632068
Ni 3.2336509902566215 8.499545345763014 6.301036158386244 -1.2603802235836423 1.059841376092194 0.1884513201992948
Ni 2.1091814807829548 4.261078693454883 2.5373827160910505 -0.5617163638452971 -1.0155587521247347 -0.4254119008528867
Ni 1.0967854362589213 7.262753380674558 5.295538999662328 -0.44527804364919443 -0.07992994085742362 2.1204841650397612
Ni 4.795698539050626 7.13966899519914 0.5167690592793593 -0.9038391775605401 -1.1094454122725665 -0.0033108095407878464
Ni 8.9661077428828 3.9657849864564314 0.1752119645072856 -0.5634991667773327 0.17440255541571253 -1.8698681983862635
Ni 4.748731522101027 8.982098476711704 10.355633348540852 -0.3923475141987501 -0.04181693603578605 -0.42273306846914294
Ni 4.402809713187534 2.261545324105413 13.02094193526313 -1.133107788886513 1.4238023687284511 0.5902095861889836
Ni 0.5413379826167091 0.792939361006187 9.787254979688209 -0.26750477198903605 -0.5494653143920859 0.5045442855096794
Ni 2.320648330512242 4.879451621307893 4.814392204877945 -0.14866941231566652 -0.12705260537683927 0.8415374913078411
Ni 5.181735510683685 2.2128445943762096 10.477174914079951 -0.35333822281508825 -0.11661932585865721 1.4493665903508006
Ni 3.034781223808927 5.463758937416975 0.5092781290087607 -0.26209491382737443 0.1776873968145714 -0.912902316204073
Ni 8.924913620614225 3.053805955002138 10.254930457300006 1.4768894783614177 1.3420906533802563 0.05506994439095032
Ni 8.096208133839859 6.825516550784249 12.543115938201808 1.6721665632332945 0.6586232988766915 3.0370125080321952
Ni 3.2766249346872383 1.3250637668244778 1.8710966067608494 0.08790421731215184 -0.28668057358653853 -0.17090045579972504
Ni 8.739600012602796 5.478394055402251 6.081869041790099 -1.0534611835974632 0.20917569723083973 -0.2908660724227959
P 9.181604552637019 8.6982030090515 4.075477362897054 -1.1581683313995668 0.12151033540237138 0.7615252751492562
P 8.611314488788567 3.4879626781457036 8.114242435498339 -0.013470780792925187 -0.4239011206353151 -1.1176942825449203
P 8.44432474935732 8.71696952770307 11.581039062730492 0.3581590412424993 0.5250233792996377 -1.0746984957096846
P 2.4652012444499936 7.969766985323081 9.389561556175257 0.29149727824889154 1.5823445600731394 0.8482614402952359
P 5.696629762473186 1.183978278445935 8.593526411232297 0.1571172859727036 -0.4083575164737613 0.22434083500705237
P 1.8749273742536559 0.367785033689481 0.3832473539956646 -0.47374144119620987 2.5138981728298124 -0.9950284933818669
P 8.028049244722544 2.216570232477061 1.7549258620879284 -0.3552758061574333 -1.1866481840068146 -1.2195601042434867
P 5.297082741786295 0.5607906088789287 12.372485401933393 1.8012667951677817 -1.8411903708355968 -1.1116809864713049
Ni 4.95493268035609 3.0155075019505597 7.431233375346146 0.9146149280198055 -0.36771017526604416 -0.7526886506942327
Ni 0.9719950036333612 3.9098911930671676 6.717462901795411 1.3742101596226204 -1.3293433810169173 0.04791996360973037
Ni 3.5094588722375 8.632275814044101 12.797470046722733 1.9049329032998807 1.1172283986520952 -0.0024690303657828446
Ni 6.042745230792911 7.470005832849169 11.826281957282006 -1.048616453910652 0.1376308951133178 -0.8452779321868797
Ni 4.1218283584973054 6.470852402960836 6.183745877907771 0.8259200964855582 -2.318249049330498 -1.9291406108943359
Ni 3.6646446097650585 3.5924373168698374 9.250297388402947 -0.9156413124017907 0.7116944676700582 0.7307021191208125
Ni 7.292318716692704 5.672671327359293 8.405295001500301 1.4502803604143217 0.26686431019155976 -0.16476503232594852
Ni 2.7180097664716536 1.390234767959922 11.072898913280259 1.618504554933464 0.453552882063477 -0.4665513512056739
Ni 3.405795758644245 2.6750450439175237 5.711966665259143 -0.0799296837471075 1.6367087366463164 -0.7785948290370334
Ni 0.9973551639733177 2.3257019188272587 1.2509706001876126 -0.008577714366682001 -1.898085541360744 0.18113627459512027
Ni 7.94381662488794 5.659963581559853 10.806289853095418 -1.2416523081568358 -1.798354249506677 -2.0253939715021314
Ni 0.13427882134329855 7.278126248778816 9.656548713296074 0.6611139265090291 1.2440148948517413 0.5103575497573468
Ni 4.091267059818535 5.6331371428584225 2.6140063656360195 0.8391700195169289 0.3825876065985088 0.6248868258561947
Ni 6.880737147189943 1.916785471629315 13.238799545398086 0.17286657838716032 0.26867513814805344 -0.389256276867936
Ni 7.606397386095699 0.10196721050724794 2.5326721815813595 0.420577712689037 1.7073410542518985 0.8102965310156883
Ni 0.741268264860438 1.7707939449595513 12.06033687127918 -1.0229936111362254 -0.015048152582374083 1.3404153225603623
Ni 7.0963261757090335 0.6116511020814478 4.939618832261353 0.1545361555090887 0.12542149753131945 -0.12626199115474385
Ni 4.664342130366139 7.872955725959858 7.959308455198882 0.5352391434903749 0.38546749924946516 1.3986464382881139
Ni 3.6223715279474726 4.618537069853935 11.765910020670528 -1.1473532430619338 -0.8322928327811213 -0.6283848117071242
Ni 1.1024384465456096 8.964244923832375 7.798558237398913 0.2930219424235341 -1.2689808207684596 0.13150781293471545
Ni 5.680998681827286 4.493294765280499 12.724234514599182 -0.09773817268343812 0.6358057867615436 1.4176903422934424
Ni 0.14909561029537416 1.8197989966128345 3.3748941727230966 0.24398560582117335 -0.28757968836204023 2.2577599908065054
Ni 1.6866443220133325 7.502761938131905 0.5948829640646687 0.3699442068028855 -1.7320030757749525 -1.0772156057045834
Ni 6.189151741904601 7.200090729943647 2.6564546631068624 -0.476554742275289 -1.4924027435056686 0.5952885433737877
P 3.0002360744876624 6.679774014779641 11.985373159501917 -0.32432949428756397 -0.39375159363512835 0.8137970879697791
P 4.479849269362078 3.8766463283306063 1.0908871240576719 -0.9177056511299873 -0.5150138175824357 0.6313726906908546
P 2.397402008515681 1.2426847441638122 6.745011413425794 -1.6859273644628125 -1.4917990484833985 0.32603670678665786
P 0.9157683005029075 5.600832909523562 1.2290234563355897 -0.9993073232628789 -1.2065382380625223 -1.1684931103643426
P 0.22047108993144487 3.953132571915915 4.494833896466222 -0.03620036117995701 0.3339137955418894 -0.07751258966518264
P 6.059565933505667 2.714145800223493 5.1513890817270696 -1.4741363410963129 -0.37491209233112205 -0.7178288627025702
P 1.9024915630740669 3.404338702159259 10.560641195978466 -0.2091456153238527 0.34005436122198857 1.0971989908050457
P 5.820793107497613 6.960875253864205 9.518013995953906 0.3496921414220687 -0.19315541054318347 1.0607176080495604
Ni 6.787337982127005 3.151779170802755 9.052902200005564 -0.35359996111690717 0.5957788527466449 -0.03347164939488429
Ni 3.3310985590974647 1.219805268598928 8.703069393273827 0.3263061583979606 -0.8964500841853206 -0.2951109637420789
Ni 7.202755852248465 8.814564646567709 9.365549634177736 -0.3706065229772327 -1.1576201722055806 0.03270083266713078
Ni 3.570129597647163 7.885847909289043 2.436869795505843 -0.46523957437278585 1.3448437906453614 -0.21566413316866084
Ni 5.045749720002596 8.120526222136757 4.524325457472469 -1.8135235010479476 0.8435779187766375 0.2347586879062667
Ni 7.622046910494573 1.4153367157582353 10.864840469100661 -1.399692363054125 -0.8879299625294514 0.965574192676492
Ni 2.2311223535739524 3.3127193592583617 13.21462624056204 0.33691838669616814 0.5457259019543117 -0.7867855923779418
Ni 8.587503603698469 0.25358223745894065 0.17910082982196182 2.0837886093909406 0.5925711444426246 -0.18446636740961778
Ni 6.7514464388386015 8.307702649198609 0.613879107440769 -1.8647056803487176 1.3865571112237476 -1.542866556583175
Ni 5.500664887118978 4.97940754055327 10.46676894865173 0.7445446814308596 0.14404991126578418 -1.442119164759768
Ni 0.9683523624208948 8.88747280207596 2.205609110084308 -0.06122413691780424 2.0581557393141847 0.556729452153667
Ni 1.5462135868653848 8.570876560391945 11.789273644750994 -2.3496159936775536 -0.865479346835419 -1.4398342253803331
Ni 0.7243682540098911 5.0503698801227115 11.850469094932782 1.4607470642736005 0.031434307249881346 -0.3229742658112502
Ni 6.524791158534802 4.6092783058607285 6.089724236181944 -0.9634360632875664 0.9325702269466455 0.19105893302547095
Ni 6.351373771191937 4.694414669591083 3.5618437416233624 0.17351295372190761 0.08298852517808934 0.6128710323422413
Ni 8.345410902155002 7.238776501807691 1.820724873012155 2.108426205433962 -1.886456441762248 -1.2037038539375204
Ni 1.1849189098476351 6.771974335899236 3.0248326634544744 0.8687338492169747 -1.1373750488032994 0.1283561546796112
Ni 4.287812913391441 3.489760944060719 3.3856653244602124 -0.9163002861420284 -0.4378550117122459 0.8106698551947071
Ni 5.704579020005202 2.1418361454243313 2.2375168027302164 -0.14591858904340677 -2.9821644498440643 0.25549026402666325
Ni 8.181473603841036 6.403422042086015 4.022649843439804 0.03318599983366542 0.10569650829856636 -0.2651295868886402
Ni 0.577128085263753 4.9876150106269295 9.187873584273056 -0.9318037810942662 -0.2430474102776201 -1.3066521100669883
Ni 2.251954572558666 9.168444934889704 4.3777059210139235 -0.4193476969366778 0.9839609227137956 -1.2268769496198741
Ni 5.109463664653053 5.354940794867344 7.890716137886666 -1.1331777228925 -0.23864902409960834 1.5982807716874217
Ni 2.5019227566222506 5.748456708331569 9.987106875981796 1.3781182364277749 0.8688490346386004 1.145538301340382
P 6.653925094985859 6.06611346581162 0.7538072503201613 0.6640393276859403 -0.6211193883939625 -0.20149941163250457
P 5.404268612197681 9.202556656016066 2.4815857524049028 -0.887023134444466 0.14798524176444836 0.024496699589783618
P 9.094854360521394 6.920003897272682 7.544069489481275 1.2625183529725674 0.5970772598430943 0.9084751336706547
P 3.0495546699415126 6.846819085469812 4.305860125677003 0.6053680390969768 0.7782076209009435 -0.051137956326395805
P 2.3829789936896115 2.0997475011364912 3.741085666155579 0.5875790905446718 0.6691208559739058 -0.39175718891291883
P 6.45605129119879 6.868545826473789 5.215406426113958 0.9557734045359861 -2.102109262076999 0.6596013465192446
P 2.981792321513149 4.513186352863512 7.257119736328493 1.21287677868604 -0.19782170567060123 -0.1974355259757761
P 7.214015763439406 3.6858364819327747 11.575343631811961 0.6977560032120951 -0.9787019883077016 -0.797145338345711
