# total energy = -381176.4127697791 ev
CRYSTAL
PRIMVEC
9.20666331234574 0.00000000000000 0.00000000000000

0.00000000000000 9.20666331234574 0.00000000000000

0.00000000000000 0.00000000000000 13.47488238140730

PRIMCOORD
 96 1
Ni 6.952623447357607 8.34099746031222 1.7968754992153069 0.25064964810491025 -0.8637587645998867 0.9632437447711023
Ni 7.077161980081112 2.9209427845042977 12.889668166242513 -0.14532183599967233 -1.2974311056893526 0.6128975147048026
Ni -0.06350664189202744 3.969185833243851 10.325209221078838 -0.20560597760171043 0.5702267153091535 0.025204267179769497
Ni 8.387417456023902 0.3854424776808687 12.097587630926904 1.563755227106726 -0.44737632093911983 -0.04127880414412891
Ni 2.6330412204622573 8.103216970576883 0.7730549658713056 -0.8367390414779331 0.08947824666749106 -1.2138319435104579
Ni 5.335049554743674 0.42532942520591543 9.968219015263774 0.7045581137355931 0.9957316900964785 0.12714542220096164
Ni 8.636466901481393 7.306223759792855 3.2286221023717707 0.2619424474099102 0.5215562466866437 -0.833929597053596
Ni 3.318817940132222 3.3596586979618563 11.501741597118043 -1.3440711741453948 0.46264301729020324 0.6795402515350167
Ni -0.22803523676810067 8.197925914624097 0.6963376829942145 1.3474159222479116 -0.0871421423351467 -0.40601112772877174
Ni 4.9970269163949315 1.4576173266689236 3.083848244663201 0.2528289151444162 -1.14025134190983 0.7130602376693331
Ni 2.1448671124463594 7.0280812587128105 8.113792664562208 -1.3633809302176 -0.32201678699398734 0.7323018595077646
Ni 1.342257837127599 1.9329113129076219 11.618272174214809 -1.560015814668952 0.2192878459641772 2.5186115191450815
Ni 3.6451389095897406 3.099432363413927 2.1751828129381128 1.2536429048598088 0.2847630448488515 0.3587951321646014
Ni 2.986466606297243 0.8989100514283614 10.56786463896359 1.8832582465399244 0.1805202382776762 0.6179024241185617
Ni 3.036523233961743 -0.012945489085718812 5.308254482248776 1.6988934377051772 1.1569264885726656 0.031789633706771056
Ni 9.036901509471049 7.1780485951165325 11.749019680581304 -0.04803077815598179 0.11038594335443569 -0.42142026319499043
Ni 8.402599243594025 8.842438369958531 5.318037482535018 -0.42781999607374704 0.06624781538464074 -0.08565270227381376
Ni 4.713958850518031 0.45921086634406616 7.47814162253053 -0.3808598252741247 -0.48929070178471856 0.6698047694148077
Ni 7.349034743541233 3.8956614211547036 8.385123155561516 0.7804539937329591 -1.9235494899598031 -0.20143513405347244
Ni 6.472201349732276 0.5174669482292765 13.36397059485762 -0.4214200060846742 -0.9026531276722389 -1.144510631406816
Ni 0.39450643757340137 4.949115441249436 3.1829828316970494 -0.09674469842191726 0.5755586690450282 0.21570835614303496
Ni 2.892356095356188 4.436221442617541 7.446961416366955 0.5691759054471359 1.001517186430004 0.5984016350814726
Ni 2.7123658303495723 2.3693992138776303 6.517854430401754 0.6320211229081308 -1.0724714061513787 0.7386483705510827
Ni 4.977315450544335 3.0315056025331697 7.030802748346364 0.7737195032226029 1.4385694997352967 1.4687167127426384
P 0.8439186523038338 5.95419765304009 9.728932315433545 -0.3874588186478811 0.5766627007424843 0.4525336967703432
Ni 6.770073729989261 1.4990657242678898 8.444668170290763 0.49529037101157924 0.05304622909270219 0.11161313089331745
P 4.847289746570502 6.128691540133205 9.599586983868102 1.552467570008049 -1.808805526746988 -0.32440688449271876
Ni 5.2441797892390545 8.45980944854293 5.001310776768721 1.6372964908289869 0.8935907603596545 1.183434562165523
P 9.106678809649317 3.550650925458646 12.895974730515125 1.0586239587453252 0.46721598137286635 -1.2981893240116158
P 1.5059799283098319 8.660174059148506 12.31893975089867 -0.21934492445435771 0.5098829241137736 -0.16480591286621296
P 3.0562070798228245 1.9440789953348865 4.163873615337759 -0.049314529964411845 0.8565954140822281 0.11525201319748538
Ni 4.776039380284763 8.86047422311188 1.4281357498605254 -0.9458103797860034 1.2320068146472716 -0.03087200698850812
Ni 5.079104318570582 4.084361189521743 0.6833019686094132 2.282645698304591 0.2964579646882765 -1.1517570285565841
Ni 0.582267126296927 3.5264834346329494 7.635757854697296 0.06541297818817123 -0.9835413186778739 0.11973884532424539
Ni 1.2972004275653288 8.219340613161458 4.235573266786277 0.23928228680823305 0.1360707497150495 -1.6995912351031501
Ni 1.984615933279855 2.8741637289289206 9.65294788294492 0.31757494917254986 0.26585900885549696 -2.092255766321687
Ni 5.0235236930030664 4.974755998182604 11.67021800916214 -0.7506945030823393 0.8528614009610924 0.1622728620317141
Ni -0.1038253819198266 0.6723644527614409 3.1611133239990084 -0.02173353502234967 0.07833559978711024 -1.0601141701376064
Ni 7.321212207436374 5.608432210963953 3.9451628870299507 -0.6995848288907178 -0.2865754154672419 -0.3893709480689294
Ni 2.5532102441004993 5.237532578429091 1.9504490855833818 -0.6876641661937317 -0.2601197923788746 -1.1520208237409322
Ni 4.693114965097315 6.915824414660347 0.18013480961841158 1.001286558476437 -0.9592695906147028 -0.10761018038151143
Ni 1.5438561405981805 2.8579507950835676 2.577731270791989 -2.5764276588226016 -0.46780296422458795 2.0544806044554424
Ni 1.5060443749520338 4.224670736258357 5.498614211985671 -0.943946329994071 -0.35158858711383323 -0.6155408658649206
Ni 7.609224251436474 5.996235277082044 9.889552681793235 1.0977276096150062 -0.07199165984695342 -0.14919057492645918
Ni 6.737831995561988 3.9517207932071483 10.624122874940543 0.04960120796689522 -2.520223857937524 -0.5415635430465061
Ni 2.960448576174036 5.142768394402846 9.856593748304887 -0.9207220693588078 0.37952156607867543 0.04645983412443611
Ni 4.014906122554484 4.083210356625281 4.828993344849395 -0.8895356164536744 -0.9094161574276853 -0.3545962635919054
Ni 1.0480773288024634 1.5231411484618693 5.217542150684393 0.20059386909909968 -0.6879493015343184 -0.4953945006896114
Ni 0.5128746646392356 1.117992728928307 8.01682716737161 0.18688937502881361 0.34054107105042 -0.9570319595334355
Ni 8.913237609748856 1.6676489336047768 9.985939079870333 -1.0934436375276717 0.41184573213267783 0.38846283443236324
Ni 5.224238156809165 6.125616514633858 5.288622193701456 -1.175118843210976 -0.551750767992153 -0.11692271603168895
Ni 7.135937317769205 1.4748337867999914 4.323604618035064 -1.4260672535032277 -0.8414482740281444 -0.630935860263752
Ni 7.1467459403327736 1.5464524196125984 1.8223696702040448 1.068716824204953 0.608295497156417 0.8266459189079892
Ni 0.40466046638546255 5.716757809842103 0.6050987302964108 -0.6051402393568869 0.19333333088194446 0.07982401140717867
Ni 8.62981969067143 3.674259585201809 1.492127582901701 -0.9652021540490537 -0.6909081270523263 0.71629674232876
Ni 0.28437357071464725 1.515241831460556 0.4841848608636031 0.23980062120554826 -0.017069553887777054 0.6297708934213735
P 5.8157570589273275 7.217664866744332 3.335194752582031 1.285035046017845 0.37581866330579144 -0.19470629997007113
Ni 1.3122072885351899 5.256148451362257 11.864862519939141 0.22075080366294886 -1.1130398144920444 0.10479482241990339
P 5.147924125778995 1.9337767392457612 0.9233159948302048 -0.20077718875449937 -0.3577620629143968 -0.3300872227069476
Ni 8.875462670755397 5.583270400515714 7.849118591036033 0.25145054673965084 -0.085615164167659 0.08131062325503416
P 6.943094550974904 1.4457959711564687 10.97800030793726 -0.2868430673063318 0.8402331706741206 -0.48830005573667523
P 6.977730017826817 -0.16210171846401475 6.94360644144725 -0.3542887596538156 0.40291474819163514 -0.034268434264566786
P 8.395114226435439 4.806089928877172 5.691965186587049 0.7693388576564041 -0.631667339113138 0.16437268198353627
Ni 3.2022799977049203 1.4139869498982662 13.450007782863416 -0.48592384219501467 -0.4948324575385542 0.03523876859763608
Ni 6.356418353685053 3.828397540022308 5.182076242814394 0.6608838127760941 -0.6644555892877524 0.6855252654738581
Ni 2.3852715011856307 6.022446647131857 4.06504837218648 0.43192656204295293 0.07287251979000998 1.716553573989102
Ni 8.761769587248148 7.839188284139045 7.932528197372629 0.4033850029598343 1.2738384059710772 -0.0266476844945154
Ni 7.3497896899213115 5.135596403792097 12.498491778738314 0.9472337424960913 2.0229413961965808 0.1631470371065513
Ni 6.292883171137193 3.667142834570089 2.7118741945362035 0.2688792837390595 -0.3964944464875881 0.33427863508047595
Ni 5.87892397494832 5.340205286119822 7.744971896571515 -1.1258739901422352 -0.9476407481265229 -0.6065831424510005
Ni 6.1418018284896965 7.217250566901605 11.26533842419319 -0.7378700976241616 0.15658172518420774 -1.1755693004848335
Ni 1.2313451658982024 8.803015438257336 6.519700366367679 0.23981553360388377 -0.5535322853726079 1.351383391536092
Ni 4.9418145573542835 1.5851019916073692 5.484721357259585 0.14537145829068512 -0.07732952712009906 -2.2130485068317434
Ni 3.1391314950102718 6.807075309276299 11.743736897253383 -0.6231161071090172 -0.140384546599055 0.9473815809278652
Ni 7.008738059389081 5.628990689826344 1.3861340318049407 0.1017030708684571 0.9794738334767196 0.21169974920427412
Ni 6.433100651242092 7.419097450277823 8.383088483000572 0.3662675292822466 1.9058093923675632 0.9466285048119246
Ni 3.962308455854596 7.945055703950352 9.87128113806269 -1.7871820349399414 -0.0940578956183735 -1.4832524444649682
Ni 4.67982054347739 3.627802762837441 9.223799533855388 0.12191862658438359 0.23060275675636413 0.8085057576638528
Ni 7.789389443043352 8.669187382393595 9.924776454421819 -0.08550872049678178 0.2095035128839037 0.3740278899539558
Ni 8.036892169088 2.020761292891925 6.4109586263141685 -0.1088265692871158 0.18372768947138035 0.6288578946888008
Ni 2.5144686054740117 0.7117708124689252 2.3422846701706748 -0.09538638462180993 -0.37865304743079303 0.5586171560946831
Ni 4.370504280897989 7.122762582770512 7.507799967271826 -0.21077389495589507 0.10526327741588967 -0.6175944059598395
Ni 0.684474897497487 6.59913361488042 5.937531751366689 -0.1368305106992095 -0.703658227629143 -0.580849228020006
Ni 3.720348141039308 7.838497784401167 3.3392512083754795 -0.5750272220215903 0.1723392451287806 -0.9047195232829645
Ni 7.312162057538598 6.741505454167494 6.203121887878447 0.2066562732430957 0.14763839994799088 -0.19896070437105087
Ni 1.8750566415366976 3.486360796530708 0.4418922122517927 0.23587274690605184 0.4511530143727327 -1.8851099550366825
Ni 5.025843772122334 2.0719135134738567 11.977688335775616 0.8885765949745149 -0.5281948350490838 -0.3009975044298429
Ni 4.41404259103693 8.765710039085633 12.0270737976949 -0.1350615917242448 0.8636163254847514 1.595414248772904
P 3.4717037887613706 5.091579347168228 13.408854919152263 -2.0791081731961354 0.7040012127908585 -1.8322611866667669
Ni 1.1701760957854679 8.797887326870704 9.842768102219955 -0.3681382639423983 -1.0776529503523182 0.6047070084742102
P 1.3632950624749194 7.043180186314389 2.104614660393396 -1.0546850287022351 0.45359993325132847 1.520361947722756
Ni 4.7072563997290375 5.643205777763441 2.5202209286236856 0.5260191675540038 -0.6604071302499916 0.48633341892860754
P 6.900200707257983 7.457351135756212 13.144760865405907 1.3582366670124995 -0.3870335581850044 1.938144357054843
P 2.9346883326196367 7.089793521952675 5.988143540820442 -0.6007284834424363 -0.44395084019733866 -1.0959959716358803
P 2.6650343749838936 0.6908081610932952 8.480026360201654 0.02860095156614429 -0.03150835502092638 -0.7339517364063618
Ni 8.821207804684605 2.924874029678611 4.301128391234007 -0.6842787946612666 2.344808030765949 -0.8326985528599723
