# total energy = -340859.8618421493 ev
CRYSTAL
PRIMVEC
9.37952697915653 0.00000000000000 0.00000000000000

0.00000000000000 9.37952697915653 0.00000000000000

0.00000000000000 0.00000000000000 13.72788583111599

PRIMCOORD
 96 1
Ni 7.1676280649463076 5.174853791572182 11.829208822867118 0.6686775977889 1.35103552127837 1.0606229914532248
Ni 3.527161690332611 1.809911018014519 9.842358658647953 0.5062934069903022 -0.6289131734067684 0.9694385607279047
Ni 2.358632097469161 7.767748951508593 1.5235071658189108 0.6138863609806331 0.42764387550719896 0.5166842633063231
Ni 5.144257775005551 6.511680234605791 9.226003687023276 0.9849243150683296 -1.12963859939099 0.7254850936962473
Ni 7.4992224774785265 6.202990626627743 1.9483031227464838 -1.1797002919340716 -1.9476870064379554 -0.417874454825261
Ni 5.274839547734134 6.73797069925525 3.3840882637525755 -0.2188708130314166 -0.7978156249398582 -0.33062149794386286
Ni 5.5284807126620406 6.924144927590951 11.6398877632751 0.004908235934894773 -0.4707170525475894 1.4932650915059638
Ni 4.4215746111666965 2.8653141376069287 12.080127111152077 1.446950010489508 -1.4449918583218726 1.0123487298278695
Ni 3.216577417931983 6.883409642505458 12.989284648185656 -0.9357784494712982 1.9611706427466868 0.08807879521680315
Ni 1.911172389827317 6.816664929480275 9.052510578981286 -0.7234513510956703 -0.2965055300967603 -1.6431349518876346
Ni -0.18201722203823592 8.489897482317312 4.372496236953055 -1.4132932416670112 1.3309282090055337 1.9108145588916383
Ni 5.152746246799787 8.66180545032259 6.29588264663723 -0.5157514670794086 0.37336274556613114 -0.31828868741012284
Ni 0.2584866284957553 6.439626709386643 13.519866660675794 -0.6767081814028604 0.42666917029875556 0.28129359824301237
Ni 1.9275302846440565 3.7035905902769173 2.3840665604132845 -0.5338016397129001 -0.08381384929286209 0.7813060573206093
Ni 3.3490632346099907 5.488364476348281 1.3009422492320712 -0.03854726414557877 1.2852047388264898 1.5299580760516232
Ni 4.219352012400123 5.093167492283773 12.77846477511345 1.7000859153513816 -2.6724974426646817 0.2086571057232084
Ni 6.361523389352819 2.2053143516696054 8.21148592494587 -0.880203026198839 0.13002402930033735 -0.17730790198796562
Ni 4.99267524167222 7.2782595840767215 1.0688918171474284 -0.43772645655418163 0.4636855996221046 -0.9118535632245843
Ni 0.10113756205845109 2.970571187855467 12.610436179411044 0.6483545699608319 0.6814305265791942 -2.3359001867533573
Ni 1.7198300422003183 4.564884401823212 13.577510418803797 1.3090797456718744 -0.24093344925841084 -1.6452393998251473
Ni 1.5963391917661485 0.25572529579274605 3.262857879287921 -1.0489013321409226 0.2582387733060778 -0.4281035887524369
Ni 3.8759769141512606 1.4502155430562949 7.527027146856246 -0.5445293105430493 -1.0901215151329744 -1.8931719061092105
Ni 5.795225076591659 2.148174274133151 2.5481566927937025 -1.0270929780165794 0.027986972131229217 0.17645095330430902
Ni 9.074767258230507 8.887983360649915 13.013596381766499 1.2329529806106252 0.4044574100884067 1.4925528959302876
P 2.6586737816966144 5.859812498442615 3.6916073067804343 1.323459154321998 1.4842724010890502 -0.351914088774052
P 9.164885752152085 0.639950109354604 1.6002598339871332 -1.1752898215712018 -1.4881385689126758 0.5165659925609039
P 3.305364019041648 5.442517349132557 7.751588026755587 0.9315785524573376 1.146771659526851 0.5933833559312749
P 1.9670743698203028 7.814168229861829 10.909784455749593 0.5421978341963952 1.5148034797983718 1.2193922112070548
P 6.294459772414926 8.448496250825864 4.3462213684036675 -0.5494005225924216 0.26420424686089333 0.023703771374843047
P 2.315017297642418 2.2724623843490996 12.946961409205395 0.21408136206257322 0.7030352493331634 1.14430648581581
P 5.314646259662024 3.109341287519263 5.903622392427722 1.2110260986305466 -0.46443893284836146 -0.4259178939550278
P 9.543199587896563 4.537815087350098 1.1807089084709828 -1.4825767585541823 -0.2648508793059568 -0.9284137815761108
Ni 4.178335341509296 3.4797575616607066 8.411679732055985 1.4587585730886616 2.2758998949403253 1.5019597910664841
Ni 0.9195631841148226 0.29852595268938925 7.066113445908709 -0.04126954817274828 1.0903349166953609 0.719610122972709
Ni 6.835536537491331 6.473608735144125 5.227702735577296 1.8148964701360744 0.3293125493244522 -0.02467359148728009
Ni 1.6197880088773 4.395274417894829 4.812886595212229 -0.8113100598818671 0.4890922126206673 0.07359834221244099
Ni 5.516324845871619 4.58933682830672 2.1742774973412846 -0.33485070553386204 0.10142719149925114 -1.6268351862863466
Ni 8.808585665911554 6.730814120272926 9.204162520813265 1.730792343296303 -0.734578057136451 1.229542412267179
Ni 0.9642716367716291 6.769035692164104 5.192860607208177 1.146295748331697 -0.630795735141462 0.7022274087198874
Ni 4.647911973450378 6.508416159263918 5.6081710486379475 -2.1394182829401025 -1.5412732439541261 1.0536457888044435
Ni 0.801764768522556 5.97103492776423 11.033033314391176 -0.9523065290333083 -1.1469853181995535 1.0630331435566143
Ni 8.252829941323569 2.604760261394654 5.414580428426331 0.2776395464301928 -1.3706126720793492 0.2555586553707534
Ni 7.301952268885829 0.855560106786276 0.24140088239588564 1.2328784186189479 -0.539639843661232 -0.7697443206249388
Ni 7.062793093405769 0.09725068613410656 2.569503557939011 0.7701297289888156 -0.165821755725237 0.28958977681353354
Ni 8.321638150254532 1.0822567049481007 11.677777299915984 -0.9853374913463483 1.218075035057528 -0.13618902046046868
Ni 3.49604042026269 3.259798277631258 0.9195106587644938 2.120344554138103 -2.40955355057345 -1.263828844253875
Ni 4.275610414413198 8.737488852430543 10.777859534776884 -2.3087459949360687 -0.6259841726854316 -0.42172776713308013
Ni 1.9521609221376106 9.52641023484498 9.179534697177763 1.3217984787901236 -1.6861862745511542 0.45055163334330794
Ni 8.69135095988264 2.6455330645875255 0.8517154387327317 -0.5857641488231202 -0.42085667738203647 1.9769510455093953
Ni 3.7617248976588846 3.9759532907863675 4.089701626687196 1.9980670015524038 -0.5810004088858898 -1.6388489229177712
Ni 6.641314675123083 3.2663170487881583 13.403619618823601 0.0833291963469597 0.8939478865887572 -0.597502777416287
Ni 9.088639578433463 3.6227672074581987 3.155189352687672 -2.0414224857199037 0.9052468565413442 0.1648475647374258
Ni 6.599932202685322 4.052799754223034 4.094410149163115 -0.05695507722880514 -0.03573242040460298 1.468024314661304
Ni 6.937839036783863 9.236723548253808 7.953895979216445 0.9252564668940516 -0.1252032108729263 -0.4922760096652877
Ni 3.629670539215722 9.548733508734795 0.6158287801687043 3.0052629835347404 0.3523558042971609 -0.29771831945793886
Ni 3.1955391392198575 8.253045670440992 4.405758853001567 -0.27463469816559793 -2.59715512117794 0.17251433725406418
P 6.027893619495352 5.598461362448561 0.16128752975929328 0.9315397287996021 -0.7422448296530894 0.4274374159233478
P 1.2338673768619637 2.0874887354494898 8.954892215394874 0.32450407219221533 0.27426111687626314 -0.5161366183329692
P 5.106054962168062 4.454665581873954 10.708519506673838 -0.7392242976592107 1.1259647500838286 -0.5550798323653859
P 8.065708380776577 7.447982122327238 11.929834262759861 -0.5629129552565596 -1.4282300654825015 -1.2271317459431574
P 8.614448219284908 6.05983090840074 3.8207174317471204 -0.33974222929820846 1.317310618222099 -0.9526132616404498
P 5.202204491850629 8.853691810506568 12.879296564596771 0.5018878217234388 -0.18724984369202594 -0.042502649248900994
P 2.4542188555410593 8.490741639733315 6.437527571278853 1.123710149721697 -0.4489367234477043 -1.0792591184971736
P 4.9867848988139 0.17259173551223733 8.815197294384216 -0.5463650782002074 -0.18681327037523957 0.47763126316891935
Ni 6.985984148076481 4.814614304056978 9.327027756806908 -0.3189916270144184 3.8241842801049626 -1.8604685023389185
Ni 3.187960481529533 5.7955346009775255 10.75958727853119 0.9886544715347232 -0.2412538087123071 -0.46928083432169504
Ni 6.596480536806561 8.607254122195206 10.402745055639052 2.387473430844959 -1.668116304423321 -1.326508225560967
Ni 9.082495988350342 9.080329317649271 9.810139045984547 0.756120302083601 -1.3799285501636365 0.16659360089425504
Ni 1.5036225689086542 1.0312320789142342 11.491572119141697 -0.6240923549793574 -0.6691277979524413 -1.079214124191851
Ni 7.201169252942099 7.875763582649403 0.23994517982962532 -0.737711203448794 -0.7895698399912983 -0.3138604764354401
Ni 2.4563104900273744 3.4049183169687542 11.194994294177903 -1.9109449138219154 1.461946226788024 -1.1730961563539926
Ni 8.691416616570551 7.791329081995568 6.901968912272593 0.4630307396469251 -0.34040505969318796 -0.24753321396311567
Ni 3.8138375488067084 7.640778296615128 7.863388234930821 -0.6794844585964169 0.8609084396352851 -0.18351557346057426
Ni 3.349991807767592 3.849310919332459 6.310832674474615 0.35853287964215025 0.34754012807607243 0.28472833495617417
Ni 1.7799434297464671 4.179610957160143 8.644120352457358 -1.0761799653512176 0.6443752735981095 0.22960722561231425
Ni 0.9822897078398383 6.095566905678135 2.2525262000411983 0.2998106832105934 -0.5998028863043735 1.2013716062599178
Ni 8.268428094465907 3.5050822841407503 7.969367508746383 2.1540684287531096 0.2542131970864525 -0.6213006511668332
Ni 8.738961438145123 4.776833569927491 5.367218507625227 -0.26138271825169823 0.3872261338117847 2.505555200181756
Ni 4.647396099473933 8.965608324814673 2.7129043300059177 0.3632364557654067 0.7937275709134137 0.18035568767535393
Ni 1.7416749602210673 1.2010765510137291 1.046019840937211 -0.6665993751036325 1.3929195631066655 -0.16813266324660078
Ni 6.899551808204775 3.225272239316798 10.636764250408346 -0.7139536960178801 -5.314431153609893 2.1922541957942117
Ni 1.340793982888816 2.7867230821771924 6.558031042413062 -1.1084069437057236 -1.3224186288726256 0.5212662262500506
Ni 5.777235144103982 1.0988209493554184 11.149321626161484 -0.30082189808392706 1.5366673697509987 1.004079804950858
Ni 3.075818858577161 1.0496253310562218 5.033919835065368 -0.6761430529280097 1.4046314522269552 2.9356909888728735
Ni 8.93826700406307 7.83155787263146 2.3546758130461667 0.6487523196198827 1.9962736570974073 -2.276521073464092
Ni 1.9367316004784725 8.671513260606606 13.12777148613875 -0.9275624893194091 0.4286738594336101 -1.326153927545342
Ni 6.195402589410575 4.851353910706732 6.9658725666165875 -0.17067471294216416 -0.31104280448098687 -0.029273037932504423
Ni 6.393348123936074 1.023916047975555 5.484757110323902 0.379814671839062 1.1316538300488057 -0.27432668000687593
P 3.4485331167954962 1.3964989928180682 3.071202255464317 0.9553360598882515 1.2583228268339812 -2.442533862154213
P 8.793315796208773 4.1204261427715965 10.562262668682795 1.4372330403120603 1.0876473425608688 0.2858544781408174
P 7.873831400119444 1.3322679929872012 9.633804879261369 -1.550917966132742 1.4247503344640173 -1.1166110767830704
P 9.520501132932969 5.6485855539053595 7.365807149690234 0.5774240043885411 -0.7186099638429688 -0.19260725134919732
P 0.9424923754387914 2.434484331060314 4.376546316644494 0.46246304006891326 -1.6248497804252018 0.6540827306938606
P 8.50212838532249 0.44095312986984087 6.041628998606379 -1.6435560985854532 0.518003753448695 -0.7095635373699846
P 5.502067965068038 1.6977693950621466 0.4531671497266977 -3.0730547463677333 0.7456764810424577 0.40006802277145936
P 7.156410150840332 6.990983435884578 8.176328644474777 -3.7951354423681227 -0.502022033308458 -1.0722292082335856
