# total energy = -340876.0788443301 ev
CRYSTAL
PRIMVEC
9.17370144669873 0.00000000000000 0.00000000000000
0.00000000000000 9.17370144669873 0.00000000000000
0.00000000000000 0.00000000000000 13.42663935919549
PRIMCOORD
 96 1
Ni 2.1417106418258114 5.76618496450585 8.147405350743947 0.13485487503007745 -0.4161392173017091 -1.5547478814017934
Ni 1.3568087626565402 6.031552620638734 2.1594195547237587 0.8201328003798197 -0.4191597492955878 1.1771749544090564
Ni 1.5397415393338945 7.397755253377898 12.098153366912884 0.6173262399001175 0.5294312785593464 -1.1473419302080239
Ni 1.1610694990306083 7.712147169004477 9.488108763481488 -2.3393212966197647 -1.285215280349451 0.3994787259268927
Ni 3.0658234375027233 3.429404739245544 3.867261830549864 -0.6053199594678608 0.9410571813717342 0.4420137710756259
Ni 7.670471044214085 0.9454783458941303 4.784005392010592 1.0796231867048116 0.11552712123574296 -0.35313253456218535
Ni 8.140971834055524 2.4648634421485878 6.734466379603475 0.37184965135571446 -0.7141267312606346 0.3089136739531261
Ni 3.15526702471521 3.7017994505378904 6.5187275298768315 -1.3382756505095406 0.3596502810760451 0.7255149184929183
Ni 3.7332010299254126 4.003724306162237 1.402855238723654 -1.6171593537594795 -0.1814491778498488 0.2720903344771895
Ni 2.412068791440089 5.515320930053268 10.417622117085783 1.4546592062083077 0.8572520738296203 1.2973125778336172
Ni 2.02164523983227 0.6900403039970208 9.328211150649318 -0.027830906169339163 1.6293142439544583 -0.274166757390244
Ni 9.023417678643295 1.6826953259525803 1.0486889065763383 -1.5487772656406553 -0.1429628488491925 -1.0169373776398165
Ni 5.113430251879746 6.743019021281239 3.775906443996343 0.6023457073308852 0.3553997333298073 1.0503691749357007
Ni 7.354565467880833 4.499278474124425 6.178496049932159 -1.8273362385613239 1.3333005658924522 -1.5656035931693746
Ni 4.203463303534286 4.377148989349057 9.282533457372558 -0.3735167546454922 -0.3322461780314794 -0.15913277374083562
Ni 3.1405340605035943 1.0947528126758317 3.512731302462822 -1.3179441380410397 -1.2960630216972324 0.2680994681502415
Ni 6.544023093710648 1.3379109380762608 11.024438603319554 0.8213093371864243 0.5427035701882202 -0.512061419822331
Ni 8.740876853765615 4.228966193016411 1.8158993028800423 1.923129371703249 0.8816353877699913 -0.24184619088066733
Ni 4.941955428066842 5.904304210564435 0.5312086752503993 -0.8659557722512053 -0.5791834102818089 -0.6090665709944865
Ni 0.18768750603655765 6.870707769015661 3.8459127929949 1.2084580807930543 0.644443922052516 1.4452129731937433
Ni 4.263138230182206 1.9337887029364762 5.422321616235289 -1.6969116313884582 0.7870797265795928 -0.30372544488396724
Ni 8.8847204894058 2.143949024931437 9.520735949356352 -0.07067602635932344 -0.3931003332043746 -0.015606853299321505
Ni 9.062644425199254 6.223292150518549 0.0720181416832441 -0.45847294507291364 -0.45388969657760536 -0.4048865272060253
Ni 1.9636582742148205 1.2853823247040863 6.805735029894385 1.3032091458237103 -0.22531194067107005 0.46535116024998563
P 4.89297703707941 -0.04560705577711586 11.481776966603817 0.07315225581395789 0.16552685019263752 0.04759780438362125
P 8.093846530721109 4.224360994987624 8.153984729282284 -0.012311727487817507 -1.1419289867225688 0.3950242896999648
P 7.601466463392307 6.138591366853636 1.7684630110731656 -0.710610233466944 1.565358309927788 0.42153313462377084
P 2.944941576097704 2.433131609515973 13.599305731927872 0.31883736082474123 -1.5125187975292531 0.14526218640633046
P 4.7225480152092985 0.6121234724083788 2.158049921126751 1.717473771810526 -0.051066222548195914 -1.0462541243260628
P 8.294668024840961 1.090743905228462 12.47328068905218 -0.7788696799649748 -0.34254293197179714 0.7629257550412086
P 6.357191494000955 2.647722829215922 5.2299711178520525 0.07473399847878097 0.46995086380552614 0.09372905152404502
P 3.0484943158366318 2.663767632706654 8.64284851692098 -1.444086572898784 -0.22431769507860075 -1.6569363765471015
Ni 1.0900925724395298 2.1219504893277916 4.8307839294376596 -0.5373183946169069 0.25355859422158916 -0.7992510718348041
Ni 2.877790082928944 0.7895052424578073 11.933100133976774 -0.2132956329364843 0.8461335953189557 -0.07822967033686527
Ni 5.477139985440102 2.88343190919927 0.19991329769584806 -0.5176957352899729 -0.5272576679467952 -0.6362133066126076
Ni 7.219657017260644 0.6883064744602863 2.17284618387701 -1.312381556351598 0.5037945518278485 1.2519354352503989
Ni 8.469142648963452 8.286723599556241 11.636948288550665 -0.7882806888662295 -0.6860328012378959 -0.6843741825885504
Ni 0.29016325324843545 4.999144281675318 9.706143790631648 -1.0596670552978589 0.5947779222859563 -0.7859556402774787
Ni 2.639099550038513 7.645968088168489 4.450662444336468 0.21061397233926307 1.518197078860953 -0.5129877882913423
Ni 6.081035565195058 7.585935387171719 7.759402738896679 -0.7093172256871332 0.9356432094450146 -0.1264720502830209
Ni 3.3619505139354495 7.881869815878141 10.366493410524749 1.5505598114623746 -0.4275101781428121 -0.03947260417332557
Ni 4.14810001647507 0.6952977521848644 8.231335543503643 0.3894514235978776 0.06057827580368923 -0.29086967196722163
Ni 5.513816443047848 0.18232639502456 4.287112781035654 -1.013425764942132 -0.8253878781311722 -1.4089475631038058
Ni 0.570229013528175 4.359416224827854 5.806323576966314 -0.7080676695507483 0.29336492758524957 1.72725476245669
Ni 6.009315568802521 5.324498770298709 8.028149986571005 0.8583059690154315 -0.9234582373430483 -0.2304348637199322
Ni 5.249907405414121 2.935079847251198 7.40375760610745 0.5098705828185993 0.5187023221776164 0.34067373997354233
Ni 7.663829284507228 5.416942157820785 3.9590731500556378 -1.0744390714007108 -0.3248360016103373 -0.2514960552656056
Ni 7.706092526177786 5.327874692359653 11.290232836560682 0.653817649957932 1.07721252038079 -0.2858323666536303
Ni 2.4298565981688083 5.437665548950324 4.80885786607391 0.45183050005573155 -0.21343575805877438 -0.32174450716920716
Ni 1.0868267347936176 3.3798850998842096 -0.09373504465843598 0.4843063611962498 0.8690632075319354 0.15394068801693486
Ni 3.6058241880335786 8.025355677169475 2.413787025684694 -1.7373293730838724 -0.8922118777342569 -0.6749654876801409
Ni 8.074434978870686 9.017931805294262 8.83362756027965 0.6332107723408579 0.21506429480113282 -0.27983321164740194
Ni 6.662235408051172 3.1734493005977895 9.43206662252958 -0.09079053772101138 1.2952765212401949 0.2545335565403487
Ni 2.177809156254646 5.6749066370428505 13.537542870874868 2.2713354154980947 -1.9022815817199623 -0.9294774469539347
Ni 5.048085977857741 2.620348504678274 3.216498728465691 1.4313992072391024 -2.5167461838015686 -0.2716460478509192
Ni 1.5070739891735185 2.557673777720766 2.3149000304028187 0.827017186204479 1.628725461330524 0.48637018570381396
P 0.5351552015292518 0.6880303460525843 2.9088944343958834 -0.4044036740323358 -0.13024540128252407 1.1572255078703233
P 8.038868539114501 6.886633314390111 9.4527166240491 0.44651551560072134 -0.6770377968281373 0.37458813333280006
P 1.2742179302797174 6.796043014521053 6.1106381817669515 -0.030794359673037286 0.1659675372744819 0.264929297952376
P 0.8620866493979588 4.288558556353058 3.814642397535289 -0.5281238726018325 -0.7195646144467542 -2.809866085255548
P 3.589128051753914 5.701060859313907 2.7544615953998655 -0.7246728822075972 -0.4317000478544436 0.08650476586146393
P 3.712835413144723 9.000272430383081 5.830410964345167 -0.07927739487508927 0.44083517738649236 0.8059757921531475
P -0.030405315431494075 0.6673509886890572 7.207755974625695 0.8296759639835647 -0.49480314696251554 -0.9912291742404348
P 1.7190140092114763 7.707615360585711 0.794819567593417 -0.3552986889755687 -0.2760467480217762 0.4396085040682429
Ni 6.641759706855452 7.054007493743118 12.623605544627301 -0.6507688358292792 -0.1551701895486618 0.010514526378078667
Ni 7.102582241875438 4.633416333839398 0.13125915226191875 -0.6821653478626897 0.36968658226612466 -0.21064893934225656
Ni 5.622011075620574 4.5876762593941205 2.5990746914735814 2.0986608985170827 2.323416966684682 -0.5951283636468395
Ni 8.079269519430786 3.0258536211453073 3.6275823726644068 -0.645841573730991 -0.8568856916291371 1.4907119860668068
Ni 8.11614779846609 8.266660714916886 0.6563370429652303 0.465207949803902 0.569996087355586 0.5169675988746968
Ni 8.7660586637039 6.138866577891213 7.40660420560612 0.07851609122903251 1.0968151251030658 0.47171232658132306
Ni 1.0457010320783786 3.57500972552622 8.010816278054289 0.8567918463637502 -1.1266599763786405 -0.26385226283811336
Ni 3.9712035352219015 8.419751441419654 13.497397836823527 -0.4952806008195664 -0.5279449238218069 -0.5417412062749508
Ni 1.6980154070443603 3.189980310254908 10.628460375603307 0.6492464856474819 -0.9249906148271747 0.049774500319965886
Ni 4.953633549761355 4.490471720921965 5.133716057459537 0.8978575060558084 0.1894368240410157 -0.3594325086382842
Ni 3.644188606671796 3.9058409137973915 12.205848950137469 0.5692432683499615 0.26034656367770004 -1.0487447519584003
Ni 8.432833139405808 3.1525791302482093 11.933959709784139 -0.4472521366564297 -0.12807256200092137 -1.0415788303375804
Ni 7.294230034742728 7.813626652260327 3.5774875422345374 -0.2781370548919016 0.28051763930893625 0.18167877736215163
Ni 6.432250717649423 8.095653749867864 10.130922853430315 -2.0411527769982847 -0.023543848758211066 1.197314148361093
Ni 4.3512424570118196 2.193780570135358 10.192148135589918 0.7667330446024408 -0.6063368307681493 1.667631137256786
Ni 7.712972802117208 8.315886795838138 6.192043771941944 0.8025816788699339 -1.0077598249056063 0.0032529597196589138
Ni 4.007384612962009 6.721268175611414 6.085436189685912 1.5542858541637103 -0.3055190464492803 1.4976935595909626
Ni 5.5334114689233225 5.847014446242181 10.69276068242277 -1.2781457750971794 -0.00873660854204947 -0.11385898950470068
Ni 2.738432387201263 7.983835505300376 7.7920556111350505 0.5799696536285303 0.5096381550928191 -0.9027814257199872
Ni 0.7684644412649294 -0.30713551793580185 5.127190803758589 -0.6389790422832028 0.5057966698595417 0.028922596571621155
Ni 5.7680930943663835 7.7307697825471795 1.538249895510228 2.1400662009367464 0.708756982308289 0.5703321305387662
Ni 1.9742080306552678 0.5849271176750311 1.048795321510868 0.7840095722947014 0.023205491582185843 0.24919517504657085
Ni 6.186166181549426 0.34187265509875603 -0.26169634089160787 0.5249804418768443 0.029212874118530335 0.9835415757881899
Ni 5.797687454607151 0.7458953014433745 6.54873562404409 1.8046675933192147 -1.1746377898094997 0.4362645272966744
P 4.254891072756153 6.4383053604761145 8.641290822448294 -0.7353113357580497 1.2851913690900512 -0.06181240532110644
P 6.37009889166331 1.2454308557491753 8.568223209341756 -0.5288214128894893 -0.9913322754772023 1.0387045941135788
P 6.17866209392483 3.702368220015549 11.526018058264427 -0.7398259357989516 -0.24849840608986234 1.01823218519184
P 0.8498883788424262 5.001318448872176 11.79706148336227 -1.3083842622667465 -0.5134107347613739 0.8201893646493681
P 7.0351738850716075 2.930263654093603 1.68806377592558 -0.20211133418489066 -0.7598134346644722 -0.19027037568590457
P 6.328597067196717 6.611211281684418 5.716311220276167 0.16955371196384347 -0.9846929157838138 -0.3168820368705833
P 3.832873294034507 6.157443322927652 12.08985575412994 0.3697536880586342 1.029102038026808 -0.10139890936447697
P 0.9860719739367205 0.17626257849661597 11.07020986834909 0.4090018349259795 0.44813711036454434 -0.27490132156342334
