# total energy = -381163.62439965236 ev
CRYSTAL
PRIMVEC
9.27825334877823 0.00000000000000 0.00000000000000
0.00000000000000 9.27825334877823 0.00000000000000
0.00000000000000 0.00000000000000 13.57966163616287
PRIMCOORD
 96 1
Ni 0.7913264628243832 4.381358282695336 1.2397221837473196 -0.11260711937547059 -0.24214983816401525 -1.384544965889725
Ni 4.199430289253557 2.8445918872569766 11.48631631649515 0.016657406051022925 1.2881296257827686 -1.4782264520052864
Ni 6.027107043034101 1.527117011861276 11.90657944516417 0.8568697507895372 -1.3202542742314551 -0.7012820140874825
Ni 0.22641257955747757 6.545158323828764 8.795832507566947 -2.964802304416533 1.5176093246782831 -1.0222215088568911
Ni 5.760774778053161 7.4217027610189525 6.410645916764222 -0.5408024965107654 1.3632348915580395 0.4838278788979345
Ni 2.083942113779623 6.323129719021451 13.439736600014562 -1.6333804436040322 -0.2192243397160934 -1.1390087277519803
Ni 0.6788833093910437 9.105362464911526 0.15560002148184499 -1.471821576920207 -1.8307992574092598 -0.9171675192383301
Ni 4.512385777768 7.461849763651682 0.8850572347209329 0.2949587544349307 0.26998794342220606 2.003567362545343
Ni 7.494082416100516 1.7128026979460542 9.746598333146443 1.604797746870333 -0.06388214336594158 0.27383894173718
Ni 5.813586596630812 3.5044334371141277 13.108338727138417 -1.237683810427391 0.8679571189519504 -0.4483772513998084
Ni 1.4648692095356488 1.7530795961269376 0.5260036718176611 0.8332657382173521 2.2687028629712542 1.9069748734305736
Ni 3.86504203529386 1.5766721634816627 13.47067122480721 0.5854268200883596 0.7929364424706861 1.729496764413331
Ni 8.328169565551539 3.3421103931900187 2.9170466961914014 -0.38758094604804216 -0.9138711078752455 -0.1638198948038598
Ni 5.821640120616301 1.6169305051556675 1.2881695119070298 0.05004549459316542 0.795497518329643 -3.498704731373355
Ni 8.79747290277505 8.140915854635484 2.104643752853842 0.4162562024955476 0.43240453012063595 0.9399611200940781
Ni 5.805134107747425 2.2514145883626564 3.315012326194606 -1.1720250347770012 1.031976788471442 2.7007263556033876
Ni -0.11413179555932922 1.4679217549172454 11.69394878326573 -0.8739588450613401 -0.5496522335919114 0.9991291458138019
Ni 0.5492308514781135 4.35196477579899 8.730174019276959 1.2455249037383644 -1.5228230076687386 -0.7509798955332421
Ni 9.040099230218061 0.7592571076360843 3.892052886706942 -0.5477560450104632 0.4491971761979425 1.3524979647565094
Ni 6.258933483473528 4.3145641361843525 1.540300482173466 0.29592214678946455 -2.7714633171076333 -1.8667368518461334
Ni 3.389364537957409 5.056295550898558 7.511589552515515 -1.0306459854751606 0.8048362792320656 0.2157191547763124
Ni 1.051745696888328 4.332610339124186 3.443001193265833 0.8573927131725427 0.6782737261177673 1.0325568293446281
Ni 7.401448333760516 8.882888503939117 13.2110823944261 -0.23248608982200605 -0.5637958720821452 -0.6344353887765783
Ni 2.658525792781179 7.962114632602818 3.588792245211435 0.5892443940622368 -0.6027599120501683 0.2741906686496439
P 4.504796166454487 5.007825954930595 5.440773383876758 -0.1687525562187868 -0.11372297814746865 -0.6608727570325005
Ni 0.6939168634390708 1.224775845281624 9.60154026322256 1.0486956438880197 0.8880148089337738 -1.0107240497402528
P 2.753024804062519 4.488141701530579 12.061509576747682 0.15050980795851499 0.47741786160653266 -0.6219349423167224
Ni 4.604333269353478 6.557554070423939 3.3976045548370317 0.20592273751118081 -0.887970843069716 0.7563396171832588
P 8.629814863123228 4.918420704787541 4.9856230944498625 -0.734496038945606 -0.33230865583829866 -0.493514252947763
P 1.5599434725302386 8.987324524654166 11.229932194852045 -0.5997362947324962 0.6791504722957659 1.9168322258406278
P 4.523027934463111 3.0326991974894653 8.870044617702813 -2.011893108802219 0.9651437900072927 0.2015220373403239
Ni 2.3533083676352806 2.335818859901817 3.2759304670567304 0.46281939496706737 2.5011344454062407 -0.9159567867596805
Ni 6.583792971150854 2.2271890686321134 7.444967981518507 0.13779081772994978 -0.9841900080054662 0.4844549709589721
Ni 7.3419747292133 8.835458072356378 7.937325922888497 -0.6647091000594552 1.0246229192095322 -0.4404420557131317
Ni 8.280284499550262 1.6161418536133096 0.5718595837917179 0.9488088002926949 -0.261916222157665 1.377342791714331
Ni 3.1319579527852706 0.5092842591196762 7.388979288963168 0.1987727567299609 1.9881849665520017 -1.0085776928212113
Ni 2.7535165514948132 6.343402702786766 5.238992711550473 1.9033079661019483 -1.3871474365095786 -0.21431327556772123
Ni 2.24966099846259 2.846902172363413 7.778457172719915 0.23032044962925496 -0.5907304916894601 0.12826925139275974
Ni 4.547197784673017 8.296178147692132 8.598519314271783 0.23641036457707673 1.132725722956746 0.49900510085900507
Ni 3.9693852734745136 4.913243439368299 10.14442850064943 -1.8938553053294802 -0.06308741537878813 -1.3637624819267353
Ni 1.5462673269604108 0.3637836165067305 2.838189892383719 -0.165677773948205 -0.45292861821591673 -2.946727449192693
Ni 4.0628543986240695 4.023310482464907 3.258765698193649 -0.31434924314640056 0.06451694873646308 0.6995861144422983
Ni 0.7229949097184738 6.542096500193726 4.286596696841658 -1.8146568433214425 1.1338426101700085 -1.490744381966639
Ni 9.142967226101833 4.6509472146335415 10.844867048431128 -0.6645962286306748 1.244813736603953 -0.7295870316797629
Ni 7.699725625333667 6.783275420100175 11.588693492771974 1.3775199407221437 0.4322260955612427 -1.2962306576233482
Ni 8.195796723730146 4.042711310406908 7.236547791030913 -0.5391626469144972 -0.24030815696958618 -1.5144368404875725
Ni 5.674514855826099 5.694490935481349 11.20544781185054 -0.0003355289625478093 1.4954271321542891 0.545876568599563
Ni 6.324985369709351 4.670477938123696 3.6152862979079363 0.0593253772331946 0.20910190657011082 3.138330427647092
Ni 3.903639569602194 0.8809710919061756 2.42937427280836 0.3740304610571171 -1.0849569402128991 0.2285024225839097
Ni 6.25852524032219 7.076152768171533 8.99416259743908 2.188909961912327 -2.5426667603220725 0.6049924009251129
Ni 4.495647808563137 3.101135594859241 6.6166491222308235 0.14964925973043258 1.0557870035171626 0.7861656994057558
Ni 2.843125923213535 5.567165463531046 1.931815870385528 -0.47874223684491096 0.33420612997132765 1.7874329746084827
Ni 8.242930251202823 5.590268314595409 2.2954111383474367 0.3974382984580962 0.9270333562888164 -0.8364932440157142
Ni 2.8966243325457106 8.576993766292135 13.686398039878412 -1.027135915439373 2.347159304606945 -1.3032734234027428
Ni 7.722615076568921 9.353963987569575 5.608549257347262 -0.8084548498212594 -0.32473367170451817 0.534949123053782
Ni 1.838133345406864 1.2937967726180886 5.1063600786327745 0.22049086513334287 -2.6706814725018653 2.2609954670246677
P 2.250672328087496 6.480080654204088 8.969556669317518 1.9415878355187532 -0.7257617443964016 0.43393382228096883
Ni 6.416134931499031 8.838863191368675 1.8847073941971382 1.0718072902048188 -1.561455632439272 -1.445504022071601
P 5.6432378634815334 0.43006653125319766 6.446319873413768 0.6017427836395637 -0.05406310039299077 0.5120719613452922
Ni 7.2930226640664815 6.789825867028464 4.059694225502574 -0.02521995090905334 1.163119247646939 0.26827147495173154
P 2.9250621793377882 3.436349613375053 1.2836315181497686 -0.19004077617360174 -0.6073922686158573 0.27349801345799346
P 7.6538632185822015 2.781304920546125 12.588251797539128 1.3483610597700004 0.9786392533905661 -1.410537790409061
P 7.523624375051895 1.3508394747641541 2.6850523193647184 0.26000255007471995 -1.248072866971199 -1.0681218709334315
Ni 3.6034509578205065 7.1963061502131005 11.758058731056666 0.5916072378674585 -0.40476337136459967 -0.4379470572054199
Ni 9.252339277646696 1.7993780807900588 7.436399514467125 -0.4419209542515034 -0.05947784365065885 -0.2265465844091195
Ni 4.299570478626115 1.5459147533297095 5.155505131451135 -0.11415800880235823 0.37241735093372635 -2.0930160415264796
Ni 8.07897423467336 4.902647673940386 13.181465281621863 -0.7415094941489616 -1.2100763331227677 0.08275841144515424
Ni 5.688255949170003 4.643756568217928 8.148462785983176 0.7996171969249714 0.557247529440666 0.2638502059555843
Ni 2.9149859961024878 7.541503569429818 7.165987601448836 -0.9310149666443837 -0.5875538937336914 0.33469978177829457
Ni 8.097456515524852 6.726650239358887 6.451331058096443 1.5387283660450854 3.358126837816571 1.3201614574073328
Ni 4.036281480773332 8.61559130060047 5.292917920540867 -1.9835754928044482 -0.9310252510570287 1.448273614396938
Ni 6.048753208308461 8.547498198607954 10.857279495882494 0.23297048565759235 -0.30774922133137966 0.43127735849472826
Ni 4.154699829421712 5.254711000702336 0.0760269365086334 0.852898424846615 -1.4797976531471482 -1.1336284372766734
Ni 8.56760417381136 8.683285437695085 9.876963360923527 -0.02063541686216446 -0.8694856397813348 1.1367335585645584
Ni 6.915620427161248 3.9619533924694714 10.781599566052499 -0.09693547427648466 -1.3865429701563605 -0.35195959730000675
Ni 6.1691571031928945 6.621453401861798 13.259833121473282 1.2993360360215493 0.0060539195035637676 -0.22012242605033058
Ni 8.915659295087444 6.873821895416286 13.75701204333044 0.38363995912242316 0.18900153627580998 -0.3304407493916245
Ni 7.210761669071846 2.8318714017914175 5.269642493962528 -0.45850971184811995 0.002167439964964009 -0.3437307816323113
Ni 2.3672814173151724 8.79058843872294 9.320088156436606 -0.06515998163710068 -1.2480091036127992 -0.043113286249706395
Ni 6.576648716002437 5.428743200467097 5.990341963780069 -2.058141084026165 -3.7353904610990054 -1.1412293895523828
Ni 3.8785882853155353 0.30758616324900345 11.124010725761334 -0.18396757339632833 -0.22717470491142167 0.10923228936596671
Ni 5.594128068026243 8.590224555696867 3.816455533332558 0.7912294870819083 1.0071314472929882 1.1323631974110044
Ni 5.379911752614992 1.2562847939621768 9.354865833803897 -1.021085595480235 -1.693104341827226 0.2614107432761562
Ni 2.2692659479802604 3.726007407502905 5.568517305057182 1.7173886682958872 0.577787815485863 -0.3355626439992221
Ni 0.7931329387690547 5.721583435524699 6.475298642381367 1.3872083716545014 -1.2834831281496928 1.4096731284159205
Ni 0.5978665281826455 8.667920649999267 7.689374805796556 -0.3161726695083845 0.31303335254845444 -1.0968608907393367
Ni 2.239427084918818 1.8181572657516134 11.996029230923734 -1.6568129635953592 -0.6405579567345484 -1.7793553398066708
Ni 0.7733554137374096 3.654954542663189 12.513224128925929 0.924313386254492 -0.6616857398520992 1.162913559394036
P 1.8741329687521364 7.512360575376338 1.707520588262945 -1.7156755422595225 0.6108118358203675 -0.8763386581474262
Ni 2.0662020932032927 3.294874804929508 10.109487526021605 0.08220999514085196 -0.009154412805758428 0.587563149705072
P 6.058328365858029 6.258107718917413 1.802740519836535 0.6780317853102904 2.2039020644457854 1.4459722199572709
Ni 9.519673593999103 2.882855404441488 5.1962979005232555 -1.0444540950028465 0.23644584580070246 0.1694974048046113
P 7.625740832407067 5.141571978261033 8.973630750402803 0.4409061398337439 0.6554505575756647 1.2576527973501501
P 1.1612012527141475 8.298609050093281 5.561754386125128 0.6339746470900759 0.25517761788225085 0.09741318524385158
P 5.103373408850598 9.161236107124216 13.054482177223479 0.7350228579833534 -1.3700634844440984 -0.10977684901552706
Ni 0.9811196317068296 6.814812203541045 10.94083480723194 0.9074253522499018 0.8920990063054766 1.2945843802691768
