# total energy = -340897.0595817126 ev
CRYSTAL
PRIMVEC
9.00672072048635 0.00000000000000 0.00000000000000

0.00000000000000 9.00672072048635 0.00000000000000

0.00000000000000 0.00000000000000 13.18224618771993

PRIMCOORD
 96 1
Ni 6.450207878728642 2.152714266479589 11.40174611206222 -0.5924127644878894 -0.2827357300061776 -0.06146916304907478
Ni 4.756701254026294 0.19342832823002884 5.972902132893596 -0.9888159368132519 0.2436094534286772 -0.029484896832994382
Ni 2.7627664622331998 1.5855790936360217 4.736341562465296 0.062101397316434985 -0.6120007139221461 0.36357378450016736
Ni 3.3910662736039665 4.480915474067107 5.276312466453315 0.3875570347886422 -1.2039933601534811 -1.304448160437134
Ni 5.036891320282019 4.63077829551521 2.7049964566409 -0.9701888086303678 -0.5858721351558942 -0.19860486369352892
Ni 7.138663575937011 6.032214989697751 2.475296263843542 0.7837545188611018 -0.3330709879256199 0.9594634517930637
Ni 4.950868133332634 4.652592572427722 11.38176200074369 0.24657702069743337 -0.638129549798714 -0.12056982586597298
Ni 5.55283229412859 7.785688359108403 12.37097100765079 -0.5082636433427957 0.5930676244630689 0.3892436784624458
Ni 1.8324713144146372 6.315458334183593 0.41567185717277566 0.5960081951486315 0.9838382810930024 -0.3651624691435259
Ni 2.661837152950945 1.5236218637098544 0.27279464810012527 0.21346686840702594 0.03431394279052155 0.6224010833198635
Ni 0.6145762714320399 -0.05361970881224766 4.745173552531527 0.016379469799287918 0.16506250896170926 -0.19755945314815007
Ni 8.370999093805585 2.394283515476497 1.3751055469679534 0.767733203732181 -0.30135591621052615 0.4926989561353192
Ni 6.879819437130772 0.69406958606038 4.669784600408979 -0.5592699591873336 -0.6624681265440784 0.3226572487914637
Ni 0.672813725815322 7.3259223006637075 2.5523073263178406 0.5911416110849497 -0.3131865902968671 -0.1389922942372187
Ni 7.466580253819247 3.685162716223408 3.85599138151831 0.6489340966133856 0.37010258675762064 -0.2700077409165479
Ni 7.617740043011115 3.8690349140636036 12.696770205556918 0.18753832146672217 0.10364193976238278 -1.2016960794788722
Ni 7.895633395553922 8.771717093027144 7.044446975400791 0.32846665638438916 0.25850899624832896 -0.6980668495842945
Ni 6.875658332286188 0.6450027744319785 0.36800468990118856 -1.0651363059425463 0.013444555540680072 -0.030268826186870452
Ni 1.8688674717240776 6.336029683674997 9.260184867506977 0.8305460252933439 0.9423100799422287 -0.053799819429275086
Ni 0.07691108787738338 4.821216392558221 1.1824644061046274 0.027417729891320526 -0.2881422457337296 0.8252945470864174
Ni 6.427114647513248 2.0269174020547047 6.834757013411249 -0.3603701899612052 -0.18859401642474619 0.965850329156014
Ni 3.5995358249735068 4.220945495205515 0.41175393378014846 -1.129876683543725 0.15870597061606218 0.5258962688228943
Ni 5.885882802663235 5.492433226839031 4.7264152558652635 0.5984877670373757 0.6200981462182997 1.0134409344507838
Ni 5.463737815508203 2.8509602688093056 9.295275951024253 -0.03226323090907992 -0.6469504905244536 -0.6676033908881147
P 0.2982512427597152 5.551445259180396 12.120693160657718 0.26398673153344854 -0.4386574530088832 1.7795332601454321
P 3.9609124693008235 6.119796339283745 12.646875676319821 0.10758884022527276 1.1685306484704971 0.48094978601919103
P 2.3501145584249024 8.39007532770348 1.392071506266096 -0.3831308806964886 -0.15125439943402338 -0.6956433277444665
P 6.35701534230677 7.736700806619899 5.826236697202695 0.5927045846966954 -1.1132663286805538 -0.8810082957089537
P 4.759655458331539 1.0604242447764438 12.349813320658559 -0.3595998874540839 -0.22508208404845106 1.4783079559754992
P 3.998200291934103 6.09455950860296 8.375247563838464 -0.5598661980104357 0.1890645283032615 -0.5742798023326046
P 4.697671208244043 0.9447779542906192 3.9473312355450934 0.47412736378071896 0.08056166090415158 -2.3605408681201734
P 0.18562400496632425 5.3935484430972975 3.5647293538222242 -0.19784253160620766 -0.14216940641361966 -0.23359680638768157
Ni 1.5093912454101968 1.021767400635855 2.5965600458695537 -0.3524681615053091 0.3694950350806088 -0.7277124403648693
Ni 1.7976513331826902 6.427222728158561 4.863668668693416 0.32138301006473036 0.018646668566909823 -0.7617713297217913
Ni 6.0229831012438595 5.910615256999221 9.16102808080787 0.009713884853654238 -0.6944922448591587 0.46673724196423483
Ni 8.531030502633632 2.488764012921692 10.142472394021214 0.7749338352456783 0.18129336899827486 0.03440933071780526
Ni 2.316447437409636 5.222276647156609 7.145621267479091 0.7646856751551089 -0.2772173712911096 0.23680014381632766
Ni 0.5242370640464543 9.184963440384667 9.029297588955256 0.22415674402070426 -0.1018665930295149 0.015143026289025531
Ni 1.3375610328020533 0.964178430124456 11.237297807529014 0.26275543022950876 0.9134988121374912 0.16128787241062545
Ni 4.032083574239996 6.727939110303477 1.6951314370702333 0.185842421821538 0.4288463804557323 -0.3801882531283969
Ni 5.634153973006824 7.9991746537645945 7.914962718296261 -0.38634270276556687 0.018156102083736473 0.8696969844611925
Ni 5.129624513961306 2.8413951316990294 4.859872336026766 0.40262729885820336 0.5927395516996888 -0.15479660825932695
Ni 0.9482905752633195 7.523989089921789 6.81769918556459 -0.8633926395097196 -0.46473152438811577 1.1896568889261512
Ni 5.144404542207976 4.6504669864032175 7.134284508457712 0.3115526542378699 -0.8323671376624826 0.2290539242120055
Ni 8.27052012054547 7.198639327365758 9.113624810445257 -0.12865877352169455 0.34337365540320863 0.7312299665998245
Ni 4.716756448862381 0.37747345510272656 10.324782826536625 -0.44152346170276857 -0.039624299259841435 -0.9146385821688893
Ni 8.252371578853186 6.990295870082417 4.758316159001692 -0.9739948126400192 0.2160647110411892 0.1108608261083252
Ni 7.393932046727451 6.225256028948738 7.1683470245004175 -0.32318046828478536 -0.4973901909634014 -1.7870403671557546
Ni 2.206106105264633 5.0868696120192345 2.559754983452009 0.2674677481035136 0.2919526206187552 0.35242599541346403
Ni 2.5145592602699325 5.238353643147045 11.362792946819065 -1.8819706380767525 -0.8105081328058623 -0.297304628959288
Ni 1.0788069612002418 3.1727523767904224 3.7350311259712208 -0.42250269762589177 0.8080270182552212 0.16988846959544288
Ni 3.685378877514036 2.5914136058085258 2.525705076817924 -0.3307935047453529 -0.06521346058285543 0.22926912554660514
Ni 0.9995208011420866 3.2693224333783517 8.142594067407904 -0.01779023410388549 0.6489376961578115 -0.27643215638565294
Ni 3.759990549662367 2.6422745561491374 7.034244162483163 -0.6548373494716981 0.3397180609284923 -0.31036403324640743
Ni 4.1852968956928285 6.621407620905788 6.147817147253407 -0.17580303530766497 1.5720619472002086 0.00861988045852709
Ni 0.7466922509196074 7.496527599291627 11.324933197437664 -0.09057430794514724 -0.18120415171857826 0.07645895158968767
P 0.3801295369613145 5.551130023964897 7.865713970914914 -1.3595525576104455 0.7840892764927012 1.0023731066723962
P 8.379114148924566 1.7976062995804765 7.893331277808737 0.40602783989932006 -0.2819129769945661 0.12501269212867502
P 1.737144185247817 3.3249659522741015 10.234155404096867 -0.3689242501788033 -0.6022243512616725 0.6688094953810739
P 3.784885124966325 6.077888069063298 3.9204002407490135 0.5349185269261627 0.5501697966582783 -0.9968467775375283
P 6.773414041819282 4.2228098863371795 10.425574332996105 1.2697194987066973 -0.6706797158205933 -0.0736955299119376
P 6.2615350988924225 7.776807732751782 10.252240898746054 0.02660731817488321 -0.12931723304129986 -1.4314603994943411
P 2.540201393370644 8.458373288821393 5.717430110221149 -0.30805826793136626 0.4292230470688608 0.3953297367555256
P 6.692236470468134 3.9823574706751805 1.5727733385104183 1.8727558043467036 -0.11902099332161438 0.3207253218760734
Ni 5.344704998135877 2.7593168883035997 0.44748539512090885 -0.35314693273988856 -0.513113258125613 -0.7931670704242534
Ni 1.479651054508001 1.1646770339020998 6.998269519690447 -0.1292113035910549 -0.11392352419404894 -0.7465704536116369
Ni 7.04710125591529 0.7215580968518704 9.16284743833732 -1.2162125279274925 -0.32217670961061934 0.38188363855294877
Ni 2.713977057594437 1.6115905022748893 9.135072513835748 0.2194325990721576 -0.5269262527493054 0.4401983151334419
Ni 6.140601863506662 2.0113447824090667 2.576469655249797 0.4703560696637448 -0.5112867464398356 0.389528042472084
Ni 4.090411095827707 6.8868536857966145 10.476049795701764 -0.026991440987179323 0.7456528268933739 -0.4155530057809359
Ni 8.19760171184039 7.046740987097579 0.42690864159723946 -0.039687805507925195 0.159661392550796 -0.28882975871905736
Ni 7.569968397782392 4.0265624546085474 8.325879927747271 -0.4932373451372925 -0.6082679863525912 -1.2187401794453525
Ni 3.1387249869574436 8.434055143625775 12.357221348222778 -0.35393266186597755 -0.6930868798711999 -0.07560714511235365
Ni -0.045185815789589856 4.96452232152395 10.003505002292794 0.49834664133939977 -0.3863416743243024 0.8893875209115844
Ni 8.588340264811302 2.1401048578596393 5.640339788606954 0.5991310570483294 0.971519097406017 0.5565219641285513
Ni 3.4993360600471206 2.6853987336293654 11.427148666399153 0.3795452202277593 -0.23081487276717025 -0.13132603594121253
Ni 1.155129910232709 3.2417078285006617 12.471419358061398 -0.6354088084334412 0.46947958059606243 -0.08176236608047209
Ni 3.059510880662831 8.479656169227779 7.849974726941085 0.5386954774700916 -0.6669444171478771 0.9425237386149315
Ni 5.5006383491624415 7.725577506873014 3.561763440780403 0.2324506085983803 0.44343636245476536 0.45449750536493344
Ni 3.042091883326415 8.278887363836851 3.6069258390968417 0.28684358152696404 -0.21420683189684397 -0.2623234848984128
Ni 3.5056317576366527 4.051348949267191 9.259539085651229 -0.3465916481198741 1.2893989794134955 -0.5728181301854135
Ni 7.303369472674884 6.189003979166383 11.402022618379817 -0.02426710007748079 -0.4122303691656061 -0.10621098604113967
Ni 0.41622847249614203 9.075351652595533 0.1930527479875632 0.8377520561234798 -0.04558411638770214 0.7606174186230062
Ni 4.44146603852755 0.2977135415492788 1.6084840843941601 0.45292861821591673 -0.2699987420554834 -0.18697576409503283
Ni 6.03144941846011 5.616608881584208 0.2811024470365836 -0.7742396373921311 0.2491807768688676 0.41312099930067564
Ni 7.670807639860218 8.796341466717816 11.403684358301517 1.2015636676660661 -0.06575956289431255 0.2002334004358874
Ni 0.23103228675085177 4.765635920705573 5.8568847655255265 -1.0683455569084632 -0.8280877935608384 -0.7903339718508323
Ni 7.847483468066599 8.806744228829276 2.4726068571193154 0.003043671922330242 -0.09371053958128377 0.12620619821614393
P 8.54350481044694 1.555730822088512 3.5270020032313347 -0.3228716787951149 0.18897351125135198 -0.4259060668804859
P 1.8109812794380657 3.1819752585238716 1.5209414637060708 -0.3435554323967115 -0.31968659619891393 -0.3701100429567884
P 4.715549548323043 1.0737451843113763 8.103508503374236 0.468067016519252 -0.2360493816932322 0.5982975054034405
P 8.42353529414856 1.6570113934680368 12.237711174666984 0.3841436382317191 0.8060259286647925 0.9148751236597276
P 6.246944211775052 7.715147724600227 1.3648234749104289 -0.24945279958333166 -0.059228189533698 0.14651997007283152
P 1.7858885562843656 3.123008259784721 5.953589922920099 0.09343594576365843 0.1703391839796163 0.22449150165230372
P 6.900273699256418 3.9853837287439684 6.02755581321268 0.3175281550950144 0.42616497696882727 -0.4830917720628583
P 2.3067381927722748 8.358029416367922 10.087383689104742 0.8216278968681074 0.6611380948787452 0.09237485148899574
