# total energy = -340889.2671714586 ev
CRYSTAL
PRIMVEC
9.12149105079771 0.00000000000000 0.00000000000000
0.00000000000000 9.12149105079771 0.00000000000000
0.00000000000000 0.00000000000000 13.35022416728618
PRIMCOORD
 96 1
Ni 6.72859556775139 1.8027167605264434 11.29669301035846 -1.2327539772259415 0.23923729250291056 0.8046665864234206
Ni 4.814085813018423 0.3401367523468981 6.268944479031208 -0.77304561708403 -0.6803357508531187 -1.0494541193205993
Ni 3.002211075486158 1.6987135196694931 5.004291704964534 -0.02527831495081453 -0.8194085206192857 -0.4447558525971373
Ni 3.4892348466732437 4.5429768562783535 5.091054415603653 -0.40712518672855685 0.21949250577581553 -0.42048515297523065
Ni 4.798542792283444 4.445203593802853 2.6537710298440413 0.837716317789538 0.3050801591396488 0.06616374031126669
Ni 7.254093788152176 6.015933472666885 2.6027727734301487 1.414962658949634 -0.11370189510154612 -0.33914676180605463
Ni 5.395371072629971 4.428027826171417 11.629434057768785 -0.7920848931036681 0.20135980073084678 0.09033699512336055
Ni 5.645628300848817 8.081723156325701 12.558221673743368 -0.2504228768060848 0.14338142444384983 0.5223892841109004
Ni 1.8649800583767802 6.220856890408707 0.41386485228749126 -0.42032523035859864 1.0631269888220014 -0.4296999867052793
Ni 2.7287031666021333 1.8057907030074811 0.22875240093904062 -0.681344394623291 -2.4709700060077187 0.5789967481922996
Ni 0.6182893244693339 0.2508191120670124 5.401674022939755 -1.7012313418097347 0.2880144619066136 -1.4649261353519547
Ni 8.768489338342947 2.2307244846740204 1.16448968093826 0.23666130424561824 0.32891248567255615 0.9432307919842852
Ni 6.841784150087287 0.47001766328902356 5.022407898322365 0.41154954104849767 1.2235861946837443 -1.1003673612306983
Ni 0.8974352269662058 7.351940022556009 2.7104556237733024 -0.6573544594665969 0.7747561720172335 -0.9744239297576379
Ni 7.472234246413355 3.587546277120201 3.6453053826941693 1.237989771703584 2.143618437064379 1.935328999093235
Ni 7.5725980123446845 3.8229628394142745 12.568181429811752 1.3950191259481715 -0.006624704405369236 -0.11221836857748416
Ni 7.879344634584501 8.67911696911681 7.127150909474568 -0.09165494260383569 0.15647039641732408 -0.34645666520390656
Ni 7.090682276140927 0.8352275702112228 0.23434296279847097 -1.1884659539418436 -1.0383883484247407 0.3479018822908653
Ni 2.1210020689339526 6.541249263246838 9.271223053551074 -0.08556682742822684 -0.06920946911612597 -0.20438316093820286
Ni 0.03745284221703541 4.736361587852481 1.3378791919999755 -0.9372411500597536 0.489535470805673 0.635706542179518
Ni 6.276342920415094 2.1584457896599463 6.830775422549113 1.1206093993091861 -0.9115635427879915 1.6341306915064953
Ni 3.2718605936595635 4.187019789868809 0.6584238850526158 0.7859972921486915 0.8170297359744638 -0.9100033973897231
Ni 5.985613636444424 5.720305948006847 4.408123820569422 -0.4946895042027868 -0.6218462392576581 2.5488250666139844
Ni 5.490909569800266 2.8408062915040735 9.52371595922423 -0.6890029396098134 0.36781276228217946 -0.5105005030931143
P 0.010343770841236765 5.683126750521062 12.49934792196411 2.562687426418374 -1.2131578002615686 0.1686193730750322
P 4.063067848103759 5.940124760619691 12.800608879491476 0.026843859665721514 -0.13400795364874984 0.651446064401962
P 2.249861372879413 8.760289117896498 1.3779435171022367 0.3662657295100337 -0.352659965801141 0.1143528984219837
P 6.279508077806548 7.672076993644975 5.821392136028676 0.484910570439152 -0.2822482488467978 0.13169653190675382
P 4.819394520804667 1.127452778712724 12.651539999994124 0.5144692579328752 -0.747332528588642 0.14284920608946367
P 4.039725952528164 6.098665396414696 8.146574221184554 -0.24340119407261304 0.3984091470117977 0.09892422257173931
P 4.790944590245744 1.1240322195721033 3.793639982162666 0.6256936380282063 -0.4482034448261056 -0.7210118884162422
P 9.197655491852816 5.295946820275932 3.640565855948925 0.2290639515143345 1.7424366124034507 0.2610379333177698
Ni 1.3986985578184186 1.1422752016554134 2.9715464469023227 -0.6561550398418571 0.03556941246417745 -0.696639887329781
Ni 1.6659217593747433 6.8284120442202205 4.926406029407155 0.473581775689894 -0.39232874514567273 -0.21731580983947088
Ni 5.6713326626042 5.675920772598154 9.512435411253016 1.411665219145285 0.19194853471927587 -0.3317975205298351
Ni 8.712328317999477 2.3229518805961944 10.074933135766067 1.0615449890468622 0.573764810369399 0.006442413191234066
Ni 2.3282879528555624 5.508431954091285 6.982914595931085 -0.895123137843781 -0.31487374819130287 0.04306854905470002
Ni 0.6630265894322349 0.029638460841649575 9.037340726050207 -0.1726207809249414 0.10463258581042625 1.5642815319238412
Ni 1.2361444659650849 0.8137802083249794 11.548558357447952 0.7911803790115277 1.2866970071013002 -2.062861629430286
Ni 4.055378431155644 6.5569199848564015 1.5880625361413847 0.4379681402513425 1.1180269832939909 -0.20848664158361516
Ni 5.5405760885220765 7.866528939670975 8.090502591453294 -0.17515871685544673 -1.1017850675138317 -0.14107051692248607
Ni 5.234057503558303 3.057195423485255 4.819230333965916 -0.05640177582849641 -0.7379410600714129 -0.7596707384390208
Ni 0.9498299836585763 7.769649583317558 7.245767691129354 0.0908149632010436 -1.394883885921888 -0.5664975872840243
Ni 5.467768347027587 4.54212855761148 7.257048239100568 -1.055788546179059 -0.4875726906523474 0.23109049502606005
Ni 8.080437026088827 7.350298154168511 9.241038215396028 0.4291795954254351 -0.6326762399936265 -0.010274128232498436
Ni 4.637411653032608 0.6009931531561477 10.370467621217479 -0.32047438220753194 -1.1404282338073264 0.7048548190404054
Ni 8.236706410614461 7.3344632457201975 4.765229282701111 0.10861573882789036 -0.42688848539841323 -0.1924175039358944
Ni 7.049890968202646 6.096804612242199 7.156000361341114 1.2813234014942125 0.8617111380422385 -0.2684571085999764
Ni 2.1255628144547805 5.296594446139888 2.716877153466628 0.5120341661288214 -0.45145383344260315 0.12110075866877854
Ni 2.337154042148051 5.1568532033817345 11.557368805645087 -0.22160081036806997 0.10840722236151006 -0.16832035377737464
Ni 1.4089055062940303 3.428996519834154 4.092350570794784 -1.1630850519748936 -0.07713309483857683 -0.8044984362766725
Ni 3.677119319149253 2.4569830699622726 2.1807186464854595 0.5056097506597163 -0.9522003424727471 2.3740296466352278
Ni 1.3705678794459546 3.6477481179951243 8.308632103925223 0.15475958437380444 0.4146430923721569 0.23300622399153417
Ni 3.7196072244212823 3.082434589197514 7.215502583853142 -0.6446742928957672 -0.07479056274832925 0.17347001629911415
Ni 4.199105765499002 6.908261576798868 5.836917825930676 -0.2824436526870555 0.5474642248016571 0.9872979575068288
Ni 1.010378441193082 7.372344798016192 11.354632721455054 -0.5068153409320434 -0.1787340929115309 0.02020218597948779
P 0.03651424078884911 5.733668932382871 7.953956607007031 1.3806086069497965 1.3983741584633336 0.729653366141324
P 8.28652799468398 1.511476673057441 8.082265885042679 0.9550792066824391 0.1079264260703496 -1.1460075276673167
P 1.8278738328193276 3.2238450648162917 10.53518259429858 -0.9242403669247113 0.5881817571256773 0.20616390698770945
P 3.8536748997515273 6.2892498302390365 3.7867240676548835 0.13908793927481852 -0.3165552496587839 -0.7467519734948236
P 7.067066735834082 4.034262179394212 10.271182015527273 1.2134146534673813 0.13119953766567727 0.3620280372796023
P 6.349479035587083 7.767834406600269 10.462050127723007 -0.9743375406914186 0.7927178987019766 -0.7477513612936154
P 2.4927119503724353 8.645504274628312 5.788483620648593 1.478081698897306 0.23911516510274947 0.710586322207544
P 6.937614534970915 4.0441133897192 1.6623297162025394 -0.5011306318424401 -1.0966006950994147 -1.3152773898421541
Ni 5.481842807704861 2.9352684527314525 0.33593813002042433 -0.3141013888016526 0.0824827891862644 0.2121088117172347
Ni 1.4594932956110491 1.4699100383806192 7.28746020238255 -0.29029117375593233 -0.6026838073965942 -0.48344658429911586
Ni 6.6743135745625 0.49012507814124784 9.084279918950562 0.449178150034549 0.7590019945067702 0.7126421762953081
Ni 2.644156066137033 1.6476514128183082 9.374741031084607 0.4440621689642223 -0.47526970491527826 -0.14977730066786463
Ni 6.640390749378587 1.8588595378878296 2.435027641025009 -1.5818084850640113 -0.7101610617446673 0.0752235365206898
Ni 4.118289354869939 6.87349045294808 10.910270163869788 -0.049670884862566066 0.581818791022127 -0.8869709410502918
Ni 8.310526637614574 7.060271225008049 0.5839031275405029 1.826461292155538 0.4892719327316412 -0.3263331549811541
Ni 8.097229691096514 3.8224337929338588 7.992792267265981 -1.3832141628934436 -0.4811251352547907 0.2581696106310392
Ni 2.977327647924523 8.613050009502103 12.444905390532886 0.9205235801947566 -0.3775163627231885 0.9619458518952853
Ni 0.07227139782124085 4.875227167470636 10.037712891570594 -0.20336474697601753 0.5321237377898449 1.1564747457472275
Ni 8.73141959874966 2.5876210646608553 5.848586037271162 0.23681814153845665 -1.0674359006100003 0.1919765597437339
Ni 3.6134513116785016 2.7193353953023536 11.7142475057723 0.4342004456787941 0.7106642266333308 -1.2301985577939394
Ni 1.1680160493749636 3.496997235549692 12.933109482660763 -1.195241067882148 0.1267607851680333 -1.8437072237201797
Ni 3.284430008314964 8.628337628487918 7.937469511949239 -0.7861132489012654 0.0649874606149784 0.7035700387907109
Ni 5.884118805623928 7.928026032273814 3.445706179273362 -1.6401468157935881 0.41475364980809215 0.0973216539713098
Ni 3.2396526087914794 8.518204745650976 3.3815848336978394 -0.0020782226852673886 -0.2666614501521343 0.855863678122526
Ni 3.564167895580439 4.266048388253708 9.579293204141035 0.05242967855462584 0.5556773567400688 -0.6470165678756986
Ni 7.337327393907278 6.243523795647219 11.673102283981606 -0.6191416958423014 -0.3034223118212516 -1.5624010270716768
Ni 0.470295868765794 0.00023898306529136087 0.16901393180903374 0.23816694225686727 -0.5270625212168536 1.5486682508666167
Ni 4.682991743767758 0.15206985005005544 1.4614626255269425 0.14910032920549804 0.05825862653157708 -0.4516178698242932
Ni 6.268279522334271 5.5852257871709785 0.33671254460986083 -1.546065780246763 0.8227229297044992 0.3737244997809241
Ni 8.043048034309084 8.80626143274644 11.601732089475279 -0.03345930809971012 -0.5976351892290933 -0.7820362506184145
Ni 8.922460107126083 5.057593137866445 5.880373521402226 0.4808991352869137 -0.16830261316556175 -0.8446827218050421
Ni 7.914152244399457 8.84638687183868 2.6570146320584542 1.592761384531089 0.5211767518600379 -0.13227040213235283
P 8.397764577936963 1.6581228845341283 3.8325157769822003 1.370094851902666 -1.772473010864541 -0.47933410479263905
P 1.6081735995900255 3.2104638374581835 1.719415655737633 0.4948756520716638 -0.7034587100238272 0.8702263746021013
P 4.673560122030687 1.4406847810831565 8.142715830473934 -0.5352424859244845 -1.9745128683815476 0.7837426917865599
P 8.657052082287047 1.7760090347564774 12.36010471261683 -0.41224373890204485 0.06971931887300896 0.21582919799161537
P 6.560003048828481 7.747110378953629 1.3508152905952506 -2.455871974024016 0.8821858609568226 -0.2482328111333015
P 1.8682273091876094 3.2403458421106452 6.128046631208971 -0.36160843324368047 1.0233880183611666 0.5473557242482509
P 6.9611297388763 3.86427407234193 5.855421682657779 0.12767944032756076 2.2752211237057463 -0.38591769941300635
P 2.6364757706799598 8.541245632022195 10.183311043726594 -0.8615388741304324 0.341368966268354 0.15714762499000678
