# total energy = -340860.8855051581 ev
CRYSTAL
PRIMVEC
9.37733196304141 0.00000000000000 0.00000000000000

0.00000000000000 9.37733196304141 0.00000000000000

0.00000000000000 0.00000000000000 13.72467320315522

PRIMCOORD
 96 1
Ni 2.5347115449069824 2.8158814621199184 10.76990216387853 0.40308932609628645 -0.5554734682593787 -2.029050594418112
Ni 3.5708973333979173 5.626896089026605 1.9337652353888732 0.17812576990357065 0.6729805960396281 1.89045964938437
Ni 7.4958358295617895 7.66371820108871 8.279271580378785 2.072714096744334 -0.5017916624652068 0.2076039818683457
Ni 3.345447521843975 8.985124914137698 12.995618434870805 -0.4896820236858663 -0.5619907005526064 0.7746903517763045
Ni 6.338401140671866 6.056265358281738 12.605330133697871 1.5038351537123262 -1.0154417669308964 0.3478054659223171
Ni 6.594346035295995 2.83102585300502 1.5797784611474592 0.030645749910314962 -0.5468173352462777 -0.4080723811331746
Ni 8.19890128257139 3.2258302771812146 3.5129669906295624 0.48611204694642085 0.44484018478082743 -0.5138172261711732
Ni 0.8453777161368334 8.806458611020767 1.137298744278419 0.40030070760755576 0.6241478908076412 0.04408413480340795
Ni 5.6573161534422525 6.51807081829326 9.074904426690672 0.1698378188631656 -1.268431376022893 -0.540777556810101
Ni 0.22538885889712906 6.5219717883292985 10.09869713345173 -0.23305584628254702 1.1325395750878688 -1.1723705910418778
Ni 3.466236932983911 3.974010073564329 12.547329460940885 2.346089982802166 -2.466903035027197 -2.0192665184481546
Ni 1.4283176730991705 8.443340191055567 7.419489344837242 -0.3123412115774363 -0.7338198388141878 0.27762309136996055
Ni 7.291906994528782 5.943409169859324 4.623499078968393 -0.356874775213437 0.34222360095916543 -0.45041073689006944
Ni 5.649411062720184 8.825832178555515 1.114680619934849 0.760599163790561 1.1211601296063336 -2.4794050241489494
Ni 1.3731226980219513 3.1112580370362157 4.2816859568923284 -0.8537880265404199 -0.14261369303988988 -2.620439031406545
Ni 4.517295169737243 0.764553555469477 2.5246402905350944 -0.9143354491061737 0.34926122453223724 -0.12704617761893602
Ni 0.5683750851835505 4.157299401267238 2.0494505648205976 -0.1803726569562184 -1.792033449494972 0.004118650154063874
Ni 6.126923553525851 8.679958404804035 4.741353385249483 0.40967083596854603 0.3688188349491906 1.5150708745271455
Ni 8.055540633746972 0.7329547604443828 0.547620236672098 -0.35897588071683983 -0.3809115044476665 0.08067196122977074
Ni 2.1042638824928486 4.758752086703487 0.27591767366200975 -0.5147088847475072 -1.3249262257858279 1.38688569820776
Ni 1.700025862508349 1.778673544460887 13.349838704674474 -1.2895483605071663 0.6843021917000344 -1.2206746774639041
Ni 6.529276729815053 2.892850601677141 8.119694711642536 -0.07935889884530203 -0.48376514398079906 -2.8289979209889924
Ni 1.3526426053327487 4.354232746764466 7.793733969003786 -2.1470626868592375 -1.2079883402454872 -0.7567386523938903
Ni 4.741329004186757 8.082988083976502 11.147316326199356 0.7070577402289953 -1.4067163597804417 -0.3230025479460244
P 5.20392216007094 2.3913602734143815 11.893321519334016 -2.6986180510111333 3.0727613834970304 -0.3327871381366139
P 1.4666990922277905 4.808433190672075 10.043536854502236 0.33969903476509883 -1.3980152324620183 -0.38479001356646636
P 9.252153814969994 7.332923443898091 3.040330712368944 0.02245112991466456 -0.14214935180896163 0.04721933799827997
P 6.462322580638813 8.133841354422266 12.53265768757938 0.06229294450195079 -0.04117647423830973 2.3662970538776604
P 0.3231212865644403 6.5453494765500775 7.754275094449347 0.862463957047863 0.04712729250510594 -0.6427881316166478
P 1.8441648298736117 0.0705372276636681 5.596056857878721 1.0851659708999117 -2.1595873016888096 -2.0994384001130553
P 2.8167816859743886 0.7924379893616992 0.9890393773125905 1.206530267642722 -0.9373164833823793 2.7301693434548526
P 4.5988123152259055 4.721899172661104 0.36518237069820836 1.6674503887045475 -1.1137471249717141 1.1492381187894725
Ni 3.7654300819498903 8.698412993820678 4.619642182391897 -0.12733516961426458 0.03965798071125427 0.36673598427823295
Ni 1.9555300225370598 0.3537532786791607 3.2327507480624567 1.4403283914079323 -0.3641036888617084 0.3620714889230281
Ni 9.188678655898011 7.351631220873805 5.32968812120637 -0.012789952675816682 -0.7006806330580578 1.9519730354078186
Ni 3.107319557672908 2.7295537454089294 7.829253426461735 0.5224461054907649 -0.628034370346241 0.777128786014468
Ni 8.78119607910469 5.470679118280531 12.031734687891573 -0.5578568808898908 0.7308047061369478 0.5509408704963479
Ni 0.8678148579763276 3.6687310362488565 12.023115044485019 -0.5485566865348875 0.09668967681426574 1.122110409334745
Ni 4.892613498396879 3.947387828534729 4.130962227124887 0.6091539885019702 1.3614598019354873 -0.9795324546287969
Ni 7.236308794183413 7.986167132961843 2.854224434188087 1.1441851297465973 0.9566756046352813 -0.34587816699261725
Ni 8.873440892192459 1.9870941214344298 11.51038879723865 -0.4880285472428434 -1.8798934438327495 -0.39749126318321865
Ni 9.20848358069636 9.031430178652021 11.855550564506707 0.5207057257608904 -1.110119812631772 2.7355069536176826
Ni 4.615006967274556 2.29822461380396 0.36596256470541605 -0.5823448387289261 -0.24348269804282582 -0.20082192594950574
Ni 2.81028319502493 5.941111723564061 8.075186143904425 1.5090483224821494 1.2232902607098803 2.1809269437068504
Ni 4.754644815367467 4.613112746247441 6.741120032901947 1.3809109686815637 1.2472855951832134 1.4766056285724118
Ni 7.0579706976800916 4.182271235896976 9.822500953034744 -1.709051866295418 -0.07416835578329807 2.623154887675811
Ni 8.865198217524963 0.8289280006627496 7.715503578317123 0.6266259200344886 0.0468275018765 1.0511844717481447
Ni 6.072244331698589 6.62621958614334 1.2420482293446908 0.14610833645670965 -2.5951884843698725 0.14588619314357454
Ni 2.8530250734486415 3.9760355772368876 5.79145513415744 -0.2506059393511684 0.03076273510415347 0.11734977626677855
Ni 4.922086452298969 5.560551466418498 10.977583807104862 -1.6725051775196358 -1.508247680957725 -0.11791619029320984
Ni 7.243201133069204 3.7261953256258864 5.474264072234324 -4.175424996961073 2.7077151282163947 0.436325719551913
Ni 9.046246362923513 9.356729819397644 4.54130207692297 0.233861630013294 1.8095277496249935 -1.5343582620018479
Ni 2.9401967500231967 7.790058992664547 1.7655555949815254 1.2982029508583706 1.7640287367519298 -0.6321141968425694
Ni 8.05821317331493 4.831398276292889 0.5294385280113403 -0.040301270722208016 -0.33658285773362034 0.7684875653997023
Ni 1.9719591078811454 6.3041832568701714 5.993468180300153 -0.13658805567110024 0.23258147774928978 -0.41995859104779937
Ni 3.805424402151103 1.9866252548435597 4.329049922168837 -2.2480875007137477 -1.1667434746630874 1.147000230597889
P 8.904667407144402 2.6296851615536148 0.22742186443514148 0.6888905824016652 1.863417300554597 -0.7019697841831266
P 2.4949047713421173 4.894948454019412 3.9031868372802303 0.725364251847667 0.9114864096931528 -0.9252400118338195
P 4.182055557265175 8.008485182687256 8.927049222726174 -1.206224306366529 0.6349472954159903 1.7193468204635227
P 8.947109210949955 3.3081257412107212 6.287602258750645 2.51007828486309 0.09156572532413908 1.8972856711672683
P 1.6918675838272106 1.0584006875663565 8.569480307730512 0.12179804184611927 0.5382378211073827 -1.0781255191133627
P 6.489695012213805 6.118033842962956 6.923260637457226 0.4432260462161722 -0.5202436985228072 -1.4317393641873408
P 7.043135758744964 9.150709839369355 6.923685430588553 0.1656330367531986 0.14172332001513657 -2.50820677887199
P 6.8896288368941185 4.729898036701346 2.5186838093646817 -0.023192378956063284 1.0200646104148883 0.9456226892552294
Ni 6.309021960087951 0.9041238867733022 12.468083505218397 1.7050337462749603 -1.9734209208689495 0.9876869654151312
Ni 3.721178453103577 0.660428600702244 11.02519439620817 0.03733216079155506 1.2051830095862082 -0.3853674833364911
Ni 7.284348865083957 3.391762163690116 12.334610315062246 -0.9677192640439526 0.34736117929604693 0.35251546980347676
Ni 0.3914060791255688 1.7334935597646512 2.5949102642419666 -1.146064091936865 -0.04740497164652481 -1.639394768118912
Ni 1.8920923727923455 7.317882203662981 3.810915767663373 -0.41843161288031167 -0.780841716089681 0.11642340779776723
Ni 4.539097466212699 7.164628469771205 6.979613713013894 -0.03613942603503453 0.6616559150554283 -1.356819989170631
Ni 3.9972095924805777 6.522478164247438 13.20393117252845 -0.39613577759658875 0.9608911853785257 -0.28100486335799985
Ni 4.9007811544098345 6.235897526575862 4.63589216069827 -0.6774154918825301 1.0765617741706683 -0.07251513645059124
Ni 0.29387713955869516 5.324749080538145 4.341924061020945 0.10729367758235715 -0.7680016269022193 -0.8503077813013032
Ni 2.3182077079068404 7.69502911202701 10.72596936431401 1.0301785589204386 0.795621959722649 0.08328703025511464
Ni 7.639205855718025 1.551967170443413 5.87093458544218 -0.02878195722869882 -1.1796447561057877 -0.051152354504099
Ni 4.983995596957447 2.2367468264090826 9.777951125036637 -0.5642550711067508 1.2843259357659624 -0.24051153122964386
Ni 8.232425243818597 4.931595066761813 8.046651860917258 -0.04522030529038019 0.7217978746526472 -1.883875054188317
Ni 0.9057555425095299 6.205880687428364 1.309450614981802 -0.8865204837764346 2.8677781270809835 1.448991466399569
Ni 6.145500047856121 1.8585402795496868 4.113655423522693 0.07244545955492039 -0.5374083832275519 -0.9822976760787598
Ni 3.662279431958485 0.16882760657411464 7.642200037767322 -0.9855143832438448 0.9034296008269473 -0.9880062964277629
Ni 8.352436336417687 7.66898826157009 0.23431420332093084 -2.301415779823243 -0.9014943314774473 -0.08660298200222505
Ni 7.281160572266041 8.600991893569704 10.676876219050373 -0.02689810994242464 0.1329915965690935 -1.660101404538644
Ni 1.2083442233265902 1.923872150321516 6.047214357611583 -0.13871667197832885 0.5980560788165957 2.7201592675170185
Ni 2.1415669084624676 5.606988013578264 11.932958563192985 -1.174012497520675 2.7624325743639324 -1.4233791651481034
Ni 3.1131147487360606 3.324986183818407 2.2179068290547432 -0.39309287700520684 -1.0572108804478826 0.2097832489078516
Ni 5.843343662035843 0.3977057706404984 8.465131234732844 -0.01590227305255326 -0.34574601229012714 1.4808816302399466
Ni 0.5176249653877791 8.939841778791472 9.720417443404157 -0.7005734180562322 -0.005226538506261966 -1.9804809130395247
Ni 9.19740895182001 3.341283986517049 9.534269904963306 0.82959060335861 -0.8329044982231913 0.10941792301421158
P 7.450261996929223 6.165351859313558 10.311593510901718 -0.2450222746158038 1.036429682036473 1.1301566766779891
P 4.995107735161066 7.70873877114405 2.883183510306583 -1.0779568547459821 -0.1144958517577512 0.6310099080347971
P 7.221042497984686 1.6876665391730152 9.816777967426585 1.0181949041960012 -0.07394775513205974 0.2930779924724501
P 0.8734600117304027 7.239844048278575 13.161961048513309 0.9167630847110598 -0.11550295286602688 -1.5587487750310702
P 4.242942572755557 4.464407018287104 8.983745508627358 0.5783287755909975 -0.7156825057835287 0.29411568970834506
P 1.5715845486054147 0.7522036094659607 11.08559660364359 0.47227385551174794 0.6619605907800405 1.1445054892004933
P 5.082926447631022 2.680294621372125 5.95251455905402 0.6034955046646122 -0.8868722106888984 0.550836997928632
P 7.605963214425341 1.1388488172278353 2.6290568803218486 0.26177609703537497 -0.6804792184095183 0.9133615152286786
