# total energy = -381163.6637081291 ev
CRYSTAL
PRIMVEC
9.33306369837519 0.00000000000000 0.00000000000000
0.00000000000000 9.33306369837519 0.00000000000000
0.00000000000000 0.00000000000000 13.65988212311680
PRIMCOORD
 96 1
Ni 6.572987296698074 0.08344318751053759 8.233056501174627 -0.6256111056167291 0.5624074763750507 -0.03951554159611904
Ni 1.8331163347126813 3.6310283539107724 1.618067618816343 0.4448378707879823 0.28631393427573915 -1.1766877303599927
Ni 1.9793841058538961 6.110645997132383 4.928963494987344 -1.6143550515414649 -1.6970201319418645 0.7700831920215964
Ni 9.23598097152909 7.20634765180177 6.958972003867284 -0.20806523777548036 -1.2843115375882592 -1.1129441694544446
Ni 9.136453182386036 4.358008668963263 6.794248099658704 0.921294139812194 2.715104992922563 -2.0952976384718043
Ni 1.3211231373374415 7.9018288775483905 -0.1562924146444549 -0.04163927280734119 -0.3756553982550498 0.5227944899691189
Ni 7.671582201051851 3.073797797760553 4.313817546606415 0.1385500644934775 -0.14426922636544187 0.46162614598991464
Ni 4.941773124638398 1.9165912546391124 2.150406894617301 0.08217297125532945 -2.985687375395658 0.15209592149871226
Ni 3.1398758873266455 5.065874869971778 3.192096244210855 -0.9116918408357395 -0.23238864501219333 0.8931878684942812
Ni 7.154735810657632 2.0944607787846756 1.26905490938825 0.7592750456624988 -0.8106202329036942 -0.2117203180295644
Ni 7.0847191682953685 4.533152938567401 0.43672110695723265 -2.3199395496590434 0.718438471262111 -2.342361368997669
Ni 9.058354107034475 8.018548169654824 1.9525431485398954 -0.3248128616818858 2.9533678373273458 -1.692230423862705
Ni 5.719814630088643 3.854573890815722 2.7057223061377225 0.18066293450312756 1.8398019751285024 1.0843722713540227
Ni 2.282997994508494 0.5146932526452218 10.402710039337576 -0.4812886574158486 -0.35879333239238853 0.003599544425800252
Ni 3.7213444093812633 4.612745304078649 12.979674334762748 -0.42946215966286033 -0.5234508926061953 -1.0817304628558015
Ni 4.132083200866314 1.4433769360982105 9.307146514007961 0.8392582083553611 -0.7505271242665397 -1.0419770942172635
Ni 8.824626197853169 8.50116088313825 8.942222797928416 0.5819799991903396 1.963984458046398 1.7461238314470506
Ni 2.4722071908041707 7.4315358078823746 3.047095903092673 0.5804504499196907 0.6488613343939212 -1.6872157442569329
Ni 8.02892653626464 4.093388319603458 2.2777033475860584 0.9894247740418444 1.2784285964449207 3.167477481524693
Ni 0.8358197016475338 2.576373512505747 7.744920480713065 1.228712460166716 -1.7235228062180832 1.3327488071540403
Ni 4.824764507563525 1.6158986148593995 4.578683355536218 -0.4557434619568925 1.0268116993307348 -0.8614493997404197
Ni 3.9304236978642577 2.9970800158067 7.44989487708936 -0.526669399543493 -0.5882324078579546 0.3011448286409846
Ni 8.330468484822674 8.259770528825054 12.761594239842248 -0.10843241917249068 0.7439217031348802 1.2552043358096576
Ni 6.655948898132112 8.277503349471322 10.756856866995937 -0.9138435970714197 1.2199568254612732 0.046184726086178525
P 7.781357693915746 6.11798178504184 12.765515059817774 -0.7724437218339728 -0.5894079162232947 -0.830184271078551
Ni 4.267645948175282 6.604281058606987 4.983411654128534 0.5324731507094637 -1.591953286807497 -0.32621385579447043
P 9.05595550971548 0.9589349421691716 0.48353668676972933 -0.70320417081086 0.20537972052351727 0.25989687773479114
Ni 1.47991587969302 0.7709493104980871 12.733469052990918 -0.45176673669733164 0.21892609174938427 -1.1225760361172539
P 4.19543603589098 8.716381327402951 12.427487366126869 0.34869249651296075 0.6388558864417772 0.664172767940011
P 2.615199056657575 3.0967104686482307 9.660104309376672 -0.22905212443979261 -1.5593594120318757 -0.20944823416593608
P 8.481990770713283 8.006760510456806 4.707044711050101 0.43138405927592155 1.1504336817594703 -0.7047406620600444
Ni 3.0368388663083317 6.913224126518964 11.871611970796565 -0.8203045500709937 -0.635596498964215 0.687648482464448
Ni 6.500684053778791 0.6518146215583617 5.639878807840667 1.292473247463445 -0.1581855793362179 -0.30853829289157836
Ni 6.350319067761939 1.3863052528077222 10.478973301099076 0.2284782542141936 0.4734599054000491 0.6634376895461993
Ni 4.689481752159498 3.8199108929840175 9.765667790683906 -0.5544545400765613 -1.5953486856422912 0.9215887882344772
Ni 9.079316167651063 3.5207488756179828 0.4437358374823563 1.360142882896277 -1.7376476756552397 -1.164749327051194
Ni 4.2813562184538965 8.158096135077454 10.30210521466685 0.5275106644978658 0.919816783935719 -0.9834580149354483
Ni 6.094546462598272 0.5048198047706498 12.967681348167773 -0.8678180222709246 -0.3103069547562268 0.11164912633757547
Ni 1.683591324410652 0.5074237294866017 1.396777883358868 -1.4968957462800154 -0.8778301550912881 1.564362521673422
Ni 7.967701639717526 3.921473289969642 11.023743284173067 0.23275039922698623 0.6184991771622961 0.660425899303069
Ni 8.545800925849353 5.775710347378377 4.872247401416131 1.1270435849703042 -1.7370776620843824 0.16463262051314229
Ni 7.427569255895709 0.6781142611894764 3.364360330419498 0.2628456759504699 -0.42973289682574384 0.3283522422937119
Ni 5.043587514338468 6.47569944279455 2.58315211652437 0.028728221172627945 -0.17731432974586883 -0.056489964666928516
Ni 0.5241075137956903 2.1998403987409962 10.076348675019215 -0.22986639281097185 -0.21886309972193274 0.9818253644280317
Ni 8.466917873163956 0.12127849362522435 6.622092276986638 -2.8679205661961187 -1.3481268322720072 -1.2602544966390554
Ni 1.0466750721142046 4.740234951461816 9.367660231116526 1.2976352512803586 -1.210702653852857 0.8106983944397974
Ni 4.907707442870568 8.611785684780465 4.137578508653958 -0.12784656203304431 0.6888157632996718 -0.21451690693809505
Ni 7.948148871689142 2.0709227926426297 12.402093966961413 0.359156115048446 -1.1003668470100663 0.30401803642372155
Ni 8.114678723684591 2.351549345901566 6.579500841713353 -2.6259514765843424 0.10052704828248493 1.677656125592956
Ni 0.7692749589065396 8.002429968993717 11.123856256397445 0.5286486347570508 0.7121158714781929 -0.814250887677746
Ni 8.034321046966504 6.582600352101051 10.683529787010922 -0.42654061514069125 -1.00390831237 0.6043354840674043
Ni 3.883095732865719 3.9353608884547184 5.245832200421852 -0.608489615445094 0.3443763856361101 -0.55890691942096
Ni 0.5934419092162474 5.863478476513905 12.115276792684229 0.5042447519913897 -0.6570204731659458 0.3422331140408622
Ni 8.365962125305703 3.7155299108219872 8.707532649900463 -0.5149045456980809 -1.5445233754603078 0.5744777772760236
Ni 0.49830439314267116 1.7718354397845792 5.484305972391909 0.3842153720099189 0.14257384094088993 -2.167652080974815
Ni 2.9412962952789408 2.451581120473512 3.194281114375745 -0.817414115897076 -0.5951666730839427 0.9504144542169181
P 5.90023208056917 3.4817180040691977 11.797466381142769 -0.13788671987786577 -0.3840865597415385 -0.5708784899605394
Ni 5.063485605716281 6.3868486782932505 13.26104099995708 1.1115812276686468 0.6386921071704033 1.015181571290974
P 9.234627677321875 6.379027571081896 9.027761258194264 0.5761266257333562 0.7091693872553593 -1.573691769494148
Ni 3.432523426371052 1.3409092319532767 0.3887426274328808 1.6726764129901774 0.10069468420860075 -1.0086044322940888
P 2.252833533282843 4.631215436741261 11.42244802358375 -0.3934880555610965 0.4448337570229242 0.00010747211214175038
P 6.272145327902392 5.058865739284753 4.694586937892923 -0.25133407576644456 -0.6904229598857916 -0.30558615224178987
P 2.9731220418072426 9.096274344026993 8.378889351556833 0.3707875286397872 -0.9080735273568619 -0.10218618115246272
Ni 5.024137410008563 7.255019577944025 7.064945206662081 -1.329375005585801 1.423312059355594 1.8569319499405696
Ni 5.218834447641084 3.1403985388825353 0.20210655674361236 0.2688893110413885 -0.9153402362216041 -0.3353369011416612
Ni 3.9560149579758717 1.9857865874135487 11.65174272760349 0.0745409086313684 0.27759892300024447 0.486122331359066
Ni 6.819221510966748 6.966935906950159 5.614881130567528 -1.2270258164929126 1.5972320187079332 0.5038089500055516
Ni 9.066576535976244 5.82772351025293 0.8035385016205281 1.1487416387690281 0.557103290553318 0.2168635527934007
Ni 3.2797598430352037 5.276400783296968 7.441234727469532 -0.28733800466487935 -0.38835356254800857 -0.4857482358490989
Ni 5.201941602709639 5.778510266427789 11.051145158603298 0.34610750939460394 0.31544787552721804 -0.10942255099990188
Ni 0.8184844695062824 4.090663065062032 3.554943353662086 0.22761770598611122 0.5719051314528409 2.3475688813405373
Ni 6.001010500220959 3.1458677140923847 6.091556149053501 -0.11274827293902516 -1.009300944140481 -1.1151854000801376
Ni 0.3678346985845813 6.299136547538712 3.00140402412534 1.507921407966558 -1.226234945160501 0.537170556185133
Ni 2.5405252156097915 8.337225622795252 5.127195897072921 0.6856363371304257 1.8530475272844988 0.3472177117396472
Ni 1.7336725431411115 3.0759070701111093 13.001981289829402 0.4601382485904785 0.23801216184655782 -1.1856935334030287
Ni 2.1454006393569545 5.864841103784618 0.6335190171831623 0.3778125538073687 0.02104113694101538 0.7193470991193095
Ni 4.56489468752422 0.4502372495150879 6.670612074193876 -1.3836607635125588 -0.45033514645712763 1.649564252452746
Ni 0.12876361055064894 2.177170387504268 2.6611363951949065 -0.567828390280306 -1.734353064064368 -0.47192084304770343
Ni 6.7411504348056805 4.976697448248046 9.310725743859457 -0.05781485412593914 0.5600909124267321 0.601989095322415
Ni 0.9959218728118868 0.0308607077626047 7.375789419608608 4.638128178065251 0.5819733143221204 0.9161635034538479
Ni 2.5001597159807876 6.857879059975612 9.4423658045802 -0.4807878065200301 -0.01799849345994965 -0.5457364434772731
Ni 7.326202853243544 6.741607754917084 2.9390600932648114 0.33415573634936646 -0.34624892006847463 3.1542833514319226
Ni 5.987356228323333 5.138336774970527 7.092989195860977 0.18956075121338967 -0.04999844340531389 -0.42809407567074015
Ni 4.0891137765213585 7.929286750359611 1.0065186331075566 -2.9704970408084646 0.6640488407676369 -1.1312511952937485
Ni 7.002485545814176 6.989484588361413 0.8891450932499103 -1.1098228502166436 1.2038630052232042 -1.8376967558600414
Ni 6.199618091459157 2.5651831693716023 8.423748721260141 0.577064049945961 -0.13431545758683966 -0.7759748749156828
Ni 0.8209334653681669 -0.030240992346335132 3.8117351293597386 -0.7473461554353968 -0.07420897921324639 0.1716195933539367
Ni 7.2044157076576765 7.155603785562949 8.280032609679289 -1.581654218874334 -1.374373167563046 -0.4077383948325236
P 4.803681117121462 5.729035696824702 8.881150030316322 -0.8442633748794363 2.3598872936965747 -0.4322170967001782
Ni 2.2097427791124122 7.201373128957316 6.973164793528747 0.5426266942036977 1.2123977821670926 1.6141781596439684
P 1.8820589196963804 3.652233074178309 6.3193752957342015 1.3011196102845333 0.5804237104468133 -1.419682947243439
Ni 5.827490183665479 8.774526312995713 1.8997208090600628 1.6513653102172268 1.29324663529436 0.6797919625345067
P 4.143096215793996 4.771948701228141 1.471073735334981 0.39241744820473706 -0.08453195840580927 -1.9235772578739454
P 8.439739992257675 0.2698776640282484 11.06397158776865 0.15432738193239226 0.8855941153074233 -1.117247939036121
P 3.388387369088841 9.574136528189918 2.706377487195285 1.05196711555044 -0.10636113846575877 0.21364710273863208
Ni 2.6786638884442175 1.538835509556119 5.5582471679550975 0.704947892974844 0.1866613181784076 0.30855397662086215
