# total energy = -381171.347247541 ev
CRYSTAL
PRIMVEC
9.19353454101641 0.00000000000000 0.00000000000000
0.00000000000000 9.19353454101641 0.00000000000000
0.00000000000000 0.00000000000000 13.45566709748584
PRIMCOORD
 96 1
Ni 0.5508747356596103 1.945020887504461 7.661347216018214 2.9614002207135193 0.09976394486421528 0.8910353409276526
Ni 2.1056503185346833 6.17193214579002 5.7423808046778815 1.8081745780312084 0.10659613729470029 0.9019792415336659
Ni 5.1025586248094 5.653205360818738 8.896819401575295 -1.407918350508343 -0.0006384049149472876 -0.49904983805401143
Ni 8.848142395595687 6.115952715527713 2.865936297494975 -0.6068808761970774 0.975455713456262 -0.8195296195781822
Ni 1.9345402584193847 9.196384280783061 7.234802160617321 -2.6238367442341843 -0.8461937591329298 -0.531812120086697
Ni 3.2560188765675155 0.01219338452240063 1.4219547543505864 0.04010252444784061 0.1468855809423664 0.9353233642117506
Ni 5.7146825245835675 5.049153384146937 6.463847085119108 -0.9425970150550284 0.260214666085526 -0.7127792160938047
Ni -0.14143425079624783 2.0194241604742174 3.3988477865148217 0.7124328884979795 -0.755968349886769 -0.42857512907221673
Ni 7.491461734669699 7.945797005507757 4.768567637117444 0.10244457702017196 -1.4145173438820995 1.2519655171573858
Ni 0.1880601792768382 4.018944319221076 9.01984451931895 -1.3526136643987672 -0.026429912056754486 -0.6829626469530043
Ni 6.960149001262041 6.97589752549251 7.475456710832673 -1.538959251108969 0.5339507636962545 -0.2360632656503031
Ni 2.456475586856185 5.151560162549274 3.434356893337803 -0.7175712381658093 -0.32585081602809685 0.18687240574794914
Ni 0.4578370880472737 7.97009551662342 12.562425859554736 -1.2313234154270019 0.2460645998373891 -0.15922559056495802
Ni 4.707613585453441 0.005506927036807643 11.243797237035004 -0.5738422005745537 1.22502961199849 0.43426600880940697
Ni 0.11552503247382497 0.4482528285549999 5.380127053886504 -0.22965556235174642 0.27106934941184285 -0.30192772955359615
Ni 9.30928088180476 5.052536604763874 13.096588588590791 -0.7261309548103624 2.262485935527265 0.5039477895762611
Ni 1.5811040263608986 7.609350424808237 3.848306806768034 -1.7942379133454585 -1.7534219077703608 -0.9262216590207983
Ni 5.796459012050018 3.957503929593387 12.906944363356622 -0.7783536595605046 -1.3735622416259765 0.011360933538773982
Ni 0.022677691021191007 3.8585447265479824 1.9791803834943815 2.429552105182564 -0.8171744890824442 -0.40184954015191443
Ni 3.441259398879097 1.9839738922706611 0.05895078054326872 -0.6809872683941884 1.3725628538271846 0.3542957016323511
Ni 0.3527522331076703 5.238944705929669 4.788118607128255 -0.0521532849647876 -0.9252204714497936 0.046437208416616804
Ni 2.0062130517064505 1.2948541428583231 11.83559055509098 1.380439942582416 -0.9451442069569144 -1.774864651025169
Ni 3.3054800910216477 4.470484755636447 12.242933994783899 1.0212910266228217 -2.996966547853903 0.8628581071624881
Ni 6.392080517782333 3.4523376076927086 8.099517495522685 1.8750374012920288 1.833934717714448 2.5406715842689147
P 8.263516356868417 -0.05386859479043522 0.6149306857914254 0.049492707413488955 1.2457974406734609 -0.09084684488024355
Ni 4.087987761702587 6.391492131588083 4.280085741237465 1.4376834975859174 0.3494003212132628 0.8524947616502931
P 1.782442427205786 2.3160167700475918 1.721154650247231 -0.21859827609632032 0.04909881440917996 0.7015116135997854
Ni 9.647235202127044 7.542164076252327 6.2612179120605855 -0.38412872583338364 -0.7422175759595798 -0.6889466324505812
P 8.76958364512904 3.0129510236023114 5.520766063967086 1.2423125674486541 0.928480373147988 -0.6735123001733819
P 6.24411058346277 9.059759167771377 7.097877338387942 1.3398705058004858 0.22826151021769722 1.5142373228822568
P 4.406240338051786 8.21114079204589 3.246624003881516 -0.07117996257893548 0.9751872902862236 -1.0330869908164853
Ni 2.5338391778657616 8.206819830931869 11.388822482323032 0.3565186774255989 0.4340428370550073 -0.3600572867064767
Ni 1.588725466283292 2.4239856366924486 4.981650778011617 0.6090691420976478 0.5268977135042151 1.3047482081760562
Ni 5.395106079297307 8.97501316873082 5.178466879341636 -0.2998855023125868 0.26943772734569077 -1.1761285154224133
Ni 1.1155894178320924 6.412526938032518 10.910299022780732 -1.0573813445874756 1.006645508795505 -0.7293507472992407
Ni 3.373558212403218 2.8976273295293313 3.2663496510437438 -0.9322948617980719 -0.25929755358789536 -1.1290788702327779
Ni 5.634634421562725 1.3247239357507907 13.52644331633434 0.21490591484639762 0.33174352736344803 -0.995832477340401
Ni 0.3374174179200324 9.218724569095986 9.97297683150493 0.9161524477102544 0.30835008814017223 0.26565794858828445
Ni 7.948830871821857 1.9501416861012921 9.224882398360183 1.6057883929183765 2.276246736756783 0.6077653356845598
Ni 7.001639421490943 1.5731700062728102 4.483603009707934 0.6434658744099627 -0.30518917391368733 0.718904355154936
Ni 2.2228862677389754 5.749084729878617 8.910692444811593 0.6948941082832677 -0.710700222077589 -0.7939651408455165
Ni 3.060169015690866 8.449464781319955 5.194842402610354 0.2247406415486323 1.1933523354998672 0.2148668340783461
Ni 1.967682949517367 0.6407498074778538 3.611164186649612 0.13167699152272805 0.8556289364039007 -1.6635505394295091
Ni 3.162520632887493 2.6277603241229017 7.46987255810787 -0.5601819294786418 -0.39350811016575454 -1.1762401012996129
Ni 3.7912664426492197 6.888126853672139 1.5323580688741516 -0.374534140166413 -0.5801907685004007 0.21668743222685258
Ni 1.6497613404024338 4.322137886411191 10.707521833820218 -0.21727030131351613 -1.3958403362978864 1.4682472293053876
Ni 8.33267012176135 8.726714194757363 2.8875594901336585 0.8165389123809743 0.7569975624822318 -1.5338916067780743
Ni 3.9765069649608016 8.121788832328471 9.057009381666687 -0.5399072383900055 -1.1185157500049512 -0.07421412141956896
Ni 5.405191386408121 2.3566521915879757 6.657702868409308 -0.46190253957975286 -2.6338861580503865 -0.3930723081799166
Ni 7.6327479695639555 7.166764490786606 0.748563303393291 0.43116577261752836 -0.8052684816734776 -0.4582608290621076
Ni 1.2438668017128556 4.122794482506182 6.936530811683477 0.23978879413100637 0.5370808246848041 -0.46252757475826145
Ni 8.187393892987336 7.295887679821603 10.54112897614663 0.029711925242135926 -0.5816269867262951 -1.9882996377529951
Ni 5.931475256561799 3.8129723770964703 10.554086343368128 -0.42820463310667545 0.16082301695906495 -0.8676750689351573
Ni 4.040181383419783 0.3444697780701745 7.156908102679492 1.9925216462541426 0.5758445757165631 -0.4361871370915198
Ni 8.764858168506471 1.1224110202716773 12.00729911428824 0.9170888434815948 0.13769722957487895 -0.3386690508386877
Ni 5.180859956316062 1.4167236333423334 8.925426002856982 -1.2241037577501113 1.233716341139211 0.27232250509265354
P 1.452541642917296 7.677520481532658 8.783792252366746 -0.3011170607268427 1.741521042567717 0.28240971412532656
Ni 3.632255073653185 6.109250629033835 10.947570530126177 0.5776749440570825 1.3599760183011096 -1.0342167335455543
P 0.8357014600548439 2.31913337817026 10.409545597336928 -0.5929141296043401 -0.32191985640480686 -1.2587131202938644
Ni 5.195073160320911 1.344756646958143 3.09472291430162 -1.4889016723309454 -0.7615067632064949 0.036951380413368616
P 5.105905071289196 2.9750920494160447 1.3717378313782147 0.388162529583125 0.48130896913082266 0.9076909472064625
P 3.622850088079472 4.9392998429736235 7.482669038479377 -0.3694929781980798 -0.6347629473193263 -1.3291495198385561
P 4.376931350750713 7.672675488964382 12.743902548929976 -0.7552268437350541 -0.2721749237711958 -0.07269897032662317
Ni 3.2285485961234737 4.1582631377783095 5.405598659976953 -0.9587659115054069 0.8434509062804699 1.4755890143824393
Ni 7.343133252513013 4.727600328989367 1.4439006400426793 -2.223321092402345 0.3404675375000072 -1.0586728097053897
Ni 7.266330467094831 8.675156854486216 11.968116271164911 -1.6257221557278259 -0.6169192342696859 1.4947139081373482
Ni 7.069101576075408 1.9095522322323344 1.908672411001245 1.3004536945657605 -0.06005891296510947 0.4397416872119975
Ni 3.2529022684448483 4.310057582360498 1.1653733253396334 0.21834502243493362 -0.08224290526131642 0.007223000111000463
Ni -0.20725719821766966 6.299235015036557 8.206826266405868 1.2632143505983278 0.008170451625934315 1.744822596137124
Ni 8.371191030416147 3.5615016337946352 11.222806559555137 -0.3553495968181622 0.07385236720477605 -0.7941428040739613
Ni 6.863672052473627 9.459411296681335 9.655706124617385 -0.20486884232536975 -4.821555305577077 0.08728252456775291
Ni 5.088106388913137 3.3408384238823525 4.798304123762778 3.0680616640285163 0.507880548971764 -2.4724579034071548
Ni 7.657708415148151 2.6348393455224706 13.182449763340138 0.2047310311959248 1.1044093925105558 1.7992569638266043
Ni 5.556112445233221 8.829856455902513 1.3913834947921617 1.216263692880402 -1.8341753729703445 0.29971915193805154
Ni 5.6707466242348135 7.332707784633648 10.419624468973742 1.635615760692454 -0.9023425384103556 0.8111444808382805
Ni 1.330515862350438 7.689968526954758 1.3761645181365165 -0.7925343219362608 -0.5336640856937712 1.0273508596636565
Ni 2.187242935315431 6.412159196661111 12.94830699345896 0.7816459571585312 -0.3434502742774149 1.5183176635992175
Ni 4.223491263531481 7.137676148308376 6.69671011502779 0.7675349716784459 -1.0053686989656105 1.0739387347255247
Ni 2.688299747390645 0.8125677697331093 9.230385647983276 -0.3250411756426079 1.4404888282451966 1.4731765482862047
Ni 5.520735725303945 6.035739128889738 0.08613698077789958 0.13015001335524037 1.0960944448869576 0.3212359429639048
Ni 5.214195711634033 4.775002191763625 2.8065019370483073 -0.10729084936887973 -0.8727375710597294 -0.4455896613523423
Ni 8.584536187037447 8.788375229207896 7.875601613180315 -1.0138327705725636 0.846592280122929 -0.14063394360569972
Ni 8.095394195395794 5.03954614081895 6.562570933686813 -0.593519624398823 -1.144896553991325 -0.5886877502278184
Ni 0.8295491469112185 3.0627156246878537 12.836208391213214 1.420230335106477 -1.3627798062984917 1.2201118629818988
Ni 6.385681817919866 1.6103670459905461 11.409140193093224 0.688884154643762 1.6085780398483716 -0.7204125642693464
Ni 1.2272724723281514 0.6379136021508836 0.4619098237355972 -0.809243921381458 0.7632792817258854 0.1088301688315416
Ni 7.819606553909723 1.8318668675227772 6.844292082200521 -3.7052360490028127 -1.614324969634478 0.2821844854883979
Ni 7.279596737068309 5.552425837984873 11.702473694762512 -0.49286119274479634 0.3455192409913017 0.5756311741541764
P 1.5148646118363596 5.514364606044333 1.6505795649538126 -1.313595374154041 1.246625593001711 -1.8530824942874924
Ni 7.6327663566325255 3.9024438527595953 3.9155584294173686 -0.8423949542121298 0.0862276009406773 -0.8130144441674837
P 4.3288951341107795 2.3728511989984185 11.458079214799959 -0.443755436357081 0.5103284962916244 -0.38282620497187614
Ni 3.396964950693222 3.3650266125865946 9.563548298236139 1.276613397613053 0.23356595314974612 1.1850456154063849
P 3.857367954159482 1.5991877082997978 5.0865241816626625 -0.9851156051435291 -0.6173624924546917 0.21621820589991794
P 6.6952005366981675 5.694787716390493 4.5224089179255715 -0.6160743697708874 1.119787160518207 0.16144059593840582
P 7.131167126034487 5.396678173660067 9.307715222915997 1.6244476598907764 0.1678675825106722 0.6282392872681954
Ni 6.251024121245206 6.895003617317434 2.61364181352119 0.15651847604644012 -0.13116251378015473 1.265830448064936
