# total energy = -381168.8478877834 ev
CRYSTAL
PRIMVEC
9.29567325803760 0.00000000000000 0.00000000000000
0.00000000000000 9.29567325803760 0.00000000000000
0.00000000000000 0.00000000000000 13.60515743418703
PRIMCOORD
 96 1
Ni 7.923232312681694 7.9908676325149 8.192087356855401 -2.346753584528094 0.814860753347603 -0.7867876492604708
Ni 4.031821729875796 3.66319250457266 8.837802015581875 -2.578937569728649 -2.1669236874492226 0.6332632228453481
Ni 4.0788671330747865 1.9190267086759971 0.8386788954990974 -1.4686544920461353 0.8401912616925916 0.6251758178515232
Ni 6.22689275655164 6.086537383522287 1.694277775764605 0.500706142710512 -0.5796068709724728 0.36281916572233
Ni 1.0918512090391308 2.703869711539854 10.968927175206508 -0.3817080322070329 -0.012278560257036917 -0.438464877382103
Ni 6.8012817130955705 4.079099524910387 11.880404207558515 0.5707802738197782 -2.1346915668883946 -0.8249322786509921
Ni 2.564601932301111 3.2565160879449895 12.807908840028226 1.2485366939814948 -0.3678143049440762 -0.5069130428521721
Ni 6.250327149253607 6.014728306321693 12.781909771028571 0.28044282020694283 0.773787637456377 1.039708609898061
Ni 3.4224345628904116 6.676310679582978 12.597151754754677 -0.40880823085793466 -0.23514435338045953 -0.9538144810374026
Ni 7.906407143784209 0.5304194916809493 3.190477764806031 -0.523772280501356 -1.6511141134383693 -0.9326419607248454
Ni 9.025940868280086 0.9696223991866258 8.95732299576596 0.9298841954740502 0.6809461307436079 -0.2332489361299596
Ni 2.8577316980543155 7.6340439124602755 3.865116840958701 -1.651663043963304 -0.7579961789500752 -3.0411586689900854
Ni 7.517215888867129 8.45342963776781 12.423658235536017 -0.8471154996162508 -0.6421749235126811 -0.008573857711940072
Ni 1.4967521520428126 1.0476038035407718 2.4507513129056795 -0.04528175465593492 0.5414951517024158 -0.5573660572964013
Ni 0.01392863705855909 1.3907257009683833 4.584570358688596 -0.09205937713110597 0.31409547526438164 0.36534270347513204
Ni 2.8482501111618106 3.374394522635051 6.449143942013997 -1.0407236814261367 1.1194148647804527 0.014457570186226714
Ni 4.541364068613728 4.966371553233576 11.029469896217183 1.4422207233346387 -0.016132643895804474 0.5647502655756144
Ni 4.559741614973025 0.2432519708619139 9.888160127158185 -1.6363986616050654 -1.3384710543497982 -0.17240223715623212
Ni 0.4993394075877216 5.438443032399262 1.8858653233031304 -0.9671209683383215 -0.3222813535092837 -1.5967188265169403
Ni 2.7679726754719303 2.6871096123563367 4.0579146851770345 -1.4864485828047627 1.5262055509877264 -1.1594389705818742
Ni 6.251182351208619 1.899542977179241 0.35471639088939794 2.1748218592503767 0.6572179338887327 0.8617327353087934
Ni 4.912103411784118 7.459164408334093 0.5538315747666988 0.4114870632416784 0.28614372724646203 -1.5667703597839662
Ni 4.335455606598149 1.6611926149138152 5.367289300175062 1.3540192864970424 -0.5069294979124043 0.5747400297984747
Ni 5.328149867223205 2.378967334023331 10.339743012529977 -0.233313727929624 0.2941203176940354 0.7754796804468194
P 2.8928042738831623 1.8967635708254573 10.044837773152784 1.5567338014835705 2.2271983159695643 -1.1604116189077884
Ni 4.347688712824167 6.258395793785661 6.324887745787712 0.302557392717795 -0.3556522156602456 -0.11373120567758478
P 0.4375863898972386 8.444626635035258 4.236986538017452 0.5373556756127456 -0.188903577245365 -0.9952112988166345
Ni 5.157267502669354 3.782567542683989 4.43174391019357 0.22390606146247893 0.7060344411708034 -1.4374932359519823
P 5.001072302125461 2.8399118921004596 12.391305573751039 -1.0814424993017375 0.8508734239967862 1.3395768858194672
P 8.135619859073818 6.688618151196387 0.9202772463825314 1.1134236801940245 0.3424629706634812 -1.1637419688326023
P 6.7537622305519545 4.9699317961549765 5.9078085410312156 0.4744932317605699 0.413101716026966 -0.5794991417500148
Ni 8.648564414284943 5.65864824014099 12.128004694448187 -0.4716485632229232 -0.03890798991910719 0.4526751074442139
Ni 8.292493643777664 7.14485909852096 3.177933253520309 -0.2511438141325094 0.31415512485772346 0.37984063998099105
Ni 3.3599397504606916 8.996417809485383 12.138358215507866 -0.0313502321765073 0.9213797575474648 0.5611514924807626
Ni 8.902308411740552 8.565154336651167 6.245651425521324 0.5892040277426046 1.9824922870425987 -0.3058396630134926
Ni 4.333457036811984 5.772603900646113 8.746402306640148 1.0016976778719267 1.5078442748717191 0.11538905299598193
Ni 2.3129959397330255 4.69841447111263 10.907445591180007 -1.1725485113806386 1.4686935728141868 -0.9918778635680273
Ni 2.0090367144408314 7.681767899819221 5.855809473464562 -0.9713275502205013 -1.9826156999943403 0.9456813104073067
Ni 8.204259111636818 3.3240119726768347 7.501312850773307 -0.551654608733921 0.38474887591588575 0.6908579905406812
Ni 3.300308005445571 4.961128793422426 4.50144286952691 -0.8743792204282103 1.5315675866305882 -0.06074848283296635
Ni 8.13264524357813 2.6975951319786367 2.447337012057035 -1.3849527428511053 -0.4827320747305944 -0.7497383098166571
Ni 5.845072970659812 1.7434593247164367 3.0631874607741443 -1.1943134138615559 -0.6427963591467639 -0.1147475627572411
Ni 1.049202659369704 5.786259244906007 4.000664491693149 0.1856346766861061 0.22350445514868603 0.9478970871117028
Ni 1.5460935865775374 5.3399367811248695 13.156609071077595 -0.7267187089930323 -0.14246714015969658 -0.03434839557288278
Ni 4.528675474389933 8.327845089809232 5.108586990515076 0.2833633362878475 0.45810322043832075 0.9088991085819508
Ni 6.894266334356092 6.04945694223385 10.390163674749232 -0.30028299486132154 1.1525653833904923 -0.0056399718945967375
Ni 6.016485188598834 6.322350026942954 3.9792639923363584 -0.9621451123902849 -1.106131003187353 0.4594139688299443
Ni 2.1816945526186724 0.5964977862156311 4.957747027430766 0.21630459496613713 -0.8229067635805313 0.32345840453652036
Ni 6.35913300668182 0.4493900360110656 5.090764395859194 0.4534268980085739 -1.0721399909538891 -0.30443121270174023
Ni 1.8711911732359645 0.2127733168392207 10.265976266506286 -1.3002426069962187 -1.5837566099293174 -0.3263681219841476
Ni 3.2205232404471644 7.762928424484382 7.927072355373158 0.22115909484496107 0.05002852531230094 0.5914984802037361
Ni 5.739734399418761 3.8174356136975067 1.9116877745077294 -0.16513372851927688 -0.18971810272686035 0.46092911992289004
Ni 0.8189023502894842 7.393146535676668 8.41406896778846 0.1799653942154707 1.1306618984491819 0.0008127257092824712
Ni 5.569316818536111 1.7511561423115294 8.074565876024822 1.6231052869302691 3.0542314430136432 0.9756251491545908
Ni 8.677148610063819 8.25301491874583 10.235187136991229 0.6282140904572149 -0.2671039370061916 2.165736094899025
Ni 4.20344774830357 4.774425192700883 0.23644381964615802 1.2411404015174239 0.08262034320539319 -0.7564738287682778
P 2.0332984220775367 1.3240664268447 13.507636009184996 0.10052833383406558 -1.68610219947778 0.3918410068759768
Ni 6.796624580710134 7.396994944474214 5.74724065570866 -0.2528736523394226 0.4558087679771892 1.688871791803117
P 1.6243817481546763 5.361056551144253 6.171286038129123 0.47706742024564935 -0.8402588817057336 0.058752792559176224
Ni 0.01252777907355852 0.8505643435390559 11.831018153791355 -0.35696707781692716 -0.4326708964081452 0.7423597579643989
P 0.7099607760292805 3.329905429627667 3.0154606847131724 1.4827685628500142 0.685739181256877 0.7780482125049439
P 8.190027435624636 2.5972483373662865 12.950096390289454 -1.0727616836982878 -1.1118807611869366 -1.0799445745999723
P 5.654753352976324 7.447256650677917 8.567861236752242 0.6249624162891365 0.41139990284451083 0.3280671069531253
Ni 8.924961967874902 6.324655353952111 5.830368144870347 -0.42341003993150955 -1.5929254209127792 0.46527839803052123
Ni 1.9622237030774414 5.4638759948873945 8.410232643366365 0.901567607917544 -0.27918889319518375 -0.5747076338986424
Ni 4.830905704425259 8.03135029027653 2.824498735996084 0.782177404181969 0.7899102540498525 -0.7144581464581244
Ni 2.9441070955103563 7.345320295910058 10.288560105089953 -0.40216064363442994 -1.0209830084640996 0.43676589241312525
Ni 5.146577478231724 3.7121342251501512 6.792171023572683 1.0135615191890481 0.5229361577533058 0.04555120626723768
Ni 5.82164787363127 0.7991462555614037 12.004959724469053 -0.32716439263319785 -1.4201354613998252 -0.46337501036022133
Ni 6.816489434817275 0.4370072694429219 9.514467548540983 0.3660716112213566 -0.0887069157191053 0.9559281849462956
Ni 0.8798243347758594 1.853204045160476 6.721968238739762 0.008236786087495493 -0.7962068856918416 1.1933140260627642
Ni 8.444496495607321 0.6027333239484671 0.4858894977104998 1.3764660455363327 1.3951093716691327 -0.008908358233223368
Ni 7.359152257965008 1.1428658647901802 7.038016487319901 1.703803730522601 -1.0051283008200302 -0.5304013557820995
Ni 0.024226384077694008 3.5140341288107546 5.415369311826147 0.6852606989585618 2.1660880789218053 -0.7289046609007576
Ni 0.37939640383018436 7.665686384795658 12.848492820630177 0.7466653273182883 0.4634727122803502 0.0684543361176563
Ni 7.39574002856197 5.8049249571414485 8.056729337858803 -0.13114374472707735 -0.4880285472428434 -1.6285177161950921
Ni 5.334601064579478 7.647838691821529 11.48480730408494 -0.3531610738072756 0.7350156588945019 -0.7956450996511008
Ni 3.381924018108511 8.925203655383928 1.0242911841606595 -2.104693734974724 1.4116029984487817 0.7127851296310757
Ni 6.932834083392372 2.6645211259359556 5.100301756792243 1.9868330805097978 0.19085915830983904 0.6553279159548713
Ni 4.997409806796395 9.129383122142636 7.290759340747744 2.2739882797399096 -2.5633731396314885 -1.3250954043738405
Ni 2.562166465864016 6.591627094690111 1.2439367923622617 -0.30259930169932403 0.9836770729247899 -0.11142312636969844
Ni 2.4946612854587467 4.058444538562203 1.521723119561771 -0.6501270884802223 -0.7040528919644004 1.7071955298129695
Ni 3.5438918318487227 1.3903445783579984 7.697498967954698 -4.462229754830302 0.557141599990421 0.38096935426879547
Ni 0.5160242118165042 2.850694873272329 0.587398251500853 1.4343042967010395 0.1358331797829467 0.6844628856476147
Ni 0.7752359243801267 8.17153834118425 1.5904432444835608 -0.5067292089761403 -0.29275377636381195 0.6705460184562065
Ni 9.092497889996105 4.910848495871875 9.895697988737727 -0.003115405700530118 -0.42846148631248787 -0.8701240446962821
Ni 6.377891675651503 4.095385544749279 9.191753372548476 -0.34612190757230715 0.09546711726107429 -0.4252697188480676
Ni 7.918723911071042 4.746928590712617 3.6168219672642534 -0.3248311165143309 0.060348419181070256 0.43457351274749667
P 7.82664097013265 2.7136022816148078 9.793196457025688 0.8816467006239008 -0.8673259131258546 -0.34908150442126334
Ni 7.807203717003015 4.346396614218227 0.5777604972948239 -0.3054748234749062 0.9197733322922933 0.5472048004926834
P 1.7886177062103503 9.250728843019859 7.237331528175818 -0.6867120866931077 0.6804257394637636 1.018930239700129
Ni 1.201530859769202 3.3033476906552273 8.59805172489879 0.5468026799582583 -0.7094234122476943 0.19481248653063224
P 3.867669432880938 5.610831296047806 2.4600841690234008 1.9456316665708233 -0.5894667944856881 1.3511003130780344
P 0.8024155439046334 6.67204396548135 10.791338911844564 1.1373650215009703 -0.22891482753097997 -0.13568585557180504
P 3.593698050054649 0.8617535456395548 3.2567614937233835 1.4450620494381758 -1.1896972552457834 -0.9720155774264616
Ni 7.040719669151606 8.558033850808362 1.4608541204139127 -1.5050350875576983 -1.3682801672914306 -0.05496170094786018
