# total energy = -381169.82564695633 ev
CRYSTAL
PRIMVEC
9.26255137871808 0.00000000000000 0.00000000000000

0.00000000000000 9.26255137871808 0.00000000000000

0.00000000000000 0.00000000000000 13.55668021579338

PRIMCOORD
 96 1
Ni 5.891538293500896 7.78414611033067 10.888860635058785 -1.2489894652481974 0.2906976651657316 1.6765035000457513
Ni 2.7302666313641772 6.803844007867588 12.582306929266165 -0.8102911316990496 0.7429626816557204 0.3220067596916584
Ni 3.112078252903655 1.1063468987055114 6.263267628098143 1.430504206228659 0.24567996280446075 -0.6199068561431001
Ni 4.855142181187422 7.61549357873292 8.785853968534216 1.8921046411869609 0.5383730611336663 -2.518523844527282
Ni 6.549429515040513 6.966976058971474 1.6981637115153088 -1.1450076256478925 0.19381515561436943 -1.0087445574163787
Ni 7.44968465034258 6.785133654515905 4.524732161078554 -1.2890678213263218 1.6052152940237259 -0.9766880432014662
Ni 3.116718791036919 6.4988652482351466 4.617120551410748 0.5798302998371885 0.2831357936580737 -1.7776645823678094
Ni 0.18040022523930369 6.813328860259728 13.019401161174056 0.5866640349295703 -0.32949458342827126 -0.6502060213472737
Ni 0.7730682665010908 0.9266811937735288 6.775642318337949 0.5477439608256051 -0.20068977124701565 -0.20219232393447112
Ni 5.652129133559826 8.67086865838184 5.494576843277254 0.2670905672697529 -0.8110431793737258 -1.0175891522912024
Ni 6.42613569649385 3.166736567323598 6.930269494962867 -0.13376421306905995 0.7297857779541302 -0.8104397414617721
Ni 9.072113112263809 3.8342423169716535 2.95265863230638 -0.5555022646147852 0.5265364735100545 0.3060756902836987
Ni 7.040604078175698 4.758737548670431 2.210972815404715 0.09463228006460475 -0.517475905969683 1.246339686330176
Ni 5.5515563530189445 5.26692741829425 4.425388521077162 0.04790993630740136 0.636370143905446 -0.6086225414785325
Ni 7.6730973844230785 2.985394340630895 13.103710754380833 -1.3370718600094262 1.5285457690851287 1.414948774992563
Ni 6.954101112853236 0.14316940083480278 9.170903777960698 -0.04509740655927072 0.02785944541442944 0.16611511859593972
Ni 0.518018362664152 1.7996766409993559 12.810303699917826 0.1799777355106449 -1.3834962129102366 0.24275713273071098
Ni 8.90312712882415 8.529096050262599 7.887045643723996 -0.22204175456023045 -0.7028753267165315 0.565533166488226
Ni 8.418566027220203 8.37756071321629 0.7335180992850743 -0.23287792594378603 0.9671276532065409 0.20242989386657395
Ni 8.070006964360202 8.29128004912177 11.009258053856403 1.58522882359947 -1.0671307106647556 0.7832251287201931
Ni 8.68469764726999 3.102250686118439 11.174296337989881 0.6522970995483476 0.5175982904801603 -2.4220390846349704
Ni 2.0019707584254784 0.11424430605923978 0.1278500674643328 0.016589786037881107 0.5551857618156311 0.3350702777438358
Ni 2.003952944374617 4.505758751273808 3.6710407967340357 1.5320887492413806 -1.575595928495396 2.2184933319963984
Ni 6.031245352710522 3.249747550857156 11.484771495483159 0.1639646479118402 0.025743170402375018 -1.691133077033468
P 6.811763489112979 8.13224204563246 7.25201069343716 -0.40691152805585407 -0.6546375747560661 0.5792682566861314
Ni 1.6819681408047054 2.4530755252243353 8.743990942292498 0.41361105156321665 -0.1981145543206717 -0.6425947846589192
P 3.759104501927665 3.0598652519910607 7.316174237861804 0.19088101268670998 -0.06667230451656905 1.3279233607409389
Ni 3.560357941597431 7.976890537506502 6.508399192148458 1.1849219453443272 1.4171732934477077 -0.7913953232358112
P 3.637950332699932 8.633772140969219 10.261078262333518 -0.5503934826333102 -0.12029908870308959 0.8639708806106927
P 1.6215670446629586 7.569051147195622 1.088236758669268 -0.11489205875490535 -1.8831381760222925 -0.6103323250807875
P 9.286078044156824 5.809120113241847 8.661457906399013 1.4484947292688086 -0.15493056273402997 1.5936329885027651
Ni 5.298438617354858 0.8446224004996503 3.3106497510168857 0.2481921877033532 0.802076199988425 0.9644467639402678
Ni 7.40511325414045 4.451017073893387 8.63054877316408 0.8725830477597359 -0.30432142659675326 0.7903175167906002
Ni 0.7004702429863259 6.492650076403969 3.812992172090746 -0.28690271689967367 -1.1552928096239845 0.6233246235753975
Ni 7.624459728259866 8.881110044706846 3.158597563615616 -0.24857836739817835 -0.0910785012750754 -0.6928027729718778
Ni 8.348365151946732 2.0456066369600236 8.00345738675566 -0.7035366144496142 -0.5003091643824094 1.1761573117778197
Ni 1.3939120621492571 5.307025002284071 1.8245938298861695 0.09206349089616403 1.6319547669010992 -1.315902939241295
Ni 6.341735330285663 2.419341313884319 1.8438849451958483 -1.0315921514385138 1.7735873269746425 0.4204766683347984
Ni 4.05899812097096 5.837296793883343 2.386368484250001 0.3179930105465749 0.3349810604641393 -0.18652736370370457
Ni 6.028253548684485 5.848523005894353 6.820324865154048 1.9686188714946162 0.9915449057086407 -0.36245561173532415
Ni 3.403376224466573 0.4959123580556728 8.394472279131886 1.1350142618806067 0.6208455659072857 0.8643778862411243
Ni 4.110081090641522 6.257992605210132 10.454857316474392 -0.5764138179564718 -0.649076792838837 0.351836184348265
Ni 2.997333769081549 4.812126893580879 0.33972814658005296 -0.10663598939370023 -0.8919946195171283 -0.14324746996914683
Ni 0.2975492673436365 4.001033075785398 7.396605600896134 -0.21278501184865292 1.120585488049786 0.1338084360434341
Ni 1.4243488052748174 2.9385443568423724 1.614139404884387 0.16914593500246353 -1.1497626238343748 -0.9574783030422348
Ni 2.4159512201582225 5.0322421594469215 8.261522250996546 -0.27466143763847534 -1.6562105541246703 1.4057550243084371
Ni 5.612290901002603 0.9984103899890917 7.3387322549670975 -0.5805072712995551 -0.5343672824083829 -0.3624152454156919
Ni 2.550091486118163 1.5044698728451456 11.119866808583694 -0.7785356936643237 -0.5611586915696142 -0.2392447487020783
Ni 1.6693618086702295 5.851329558897106 6.253100125685202 -2.2812143651747037 0.4620053837062043 -0.7233593056024963
Ni 1.857826937208202 2.982235810683903 5.995170494691313 -0.7258422199253499 1.4705920753884802 -0.028983531716543633
Ni 3.882824397827881 8.146098822174103 1.6845125636095108 -0.34345258827026015 0.37969820086585576 0.41942405870056804
Ni 3.549826420923736 9.032710219611303 4.3622957275670995 -0.37959227141561075 -0.4363596581136421 -0.9879754431898277
Ni 4.839043867264043 6.5988081752968615 13.429545074214587 0.9391741054164084 0.06219318569929289 -0.2186898073688621
Ni 1.412918817138195 0.038471080005387265 9.307297622618888 -1.3342814417484825 -0.05997586633299994 0.6846024965492725
Ni 4.254197124205306 -0.01637711671342159 13.02457985352996 0.7039173948278006 -0.2879044186913106 -0.25936568782166947
Ni 7.789036737345366 0.42312445224204187 6.029238157873239 -0.8685471871274655 1.8392998386811032 0.024568176257667364
P 3.236261276362081 2.101228256701043 4.0767108975622595 1.4225152744859115 0.2597482679720688 -0.49621339704648093
Ni 6.055411348697919 0.24348838747378465 1.2436327270408147 -0.39724212328689007 -1.8211193111173345 -1.6701947842189042
P 1.6519760001350265 3.4164827343639157 12.17693508258543 1.4191545855437946 0.2050457342228662 1.3677500058195735
Ni 1.748954910824198 4.302982981187146 10.36981598172564 -0.5257270902348816 0.6361549425708463 -0.19982819457766873
P 6.381869964480139 5.293529465237832 10.511347763514612 -0.6576750760308092 -0.14842207219155085 0.15558876514331915
P 5.5386258315937225 7.869102229608709 3.2834687946255414 -0.8708835485701261 0.17326124272241775 1.3087025648381139
P 8.64083020495634 2.724144085044641 5.874774002148812 -0.4025617357275905 -0.557173224559305 -0.49001703842778194
Ni 8.713624594555787 6.366716430775509 1.8007473919139372 0.0819945366959362 -0.2685956910603697 0.35102063042550513
Ni 0.1933696493794162 4.465401815851389 13.382652482690709 0.22080402549838749 0.22693636364837044 0.189039588602597
Ni 3.963325229995941 3.854629192084057 5.276775362692028 -0.2730205596009427 -0.5078916047153577 -0.07067088415300087
Ni 7.877651564333266 4.7379153336533095 4.999147990392352 0.4932951949584214 -2.5944734605807187 0.5121843185534404
Ni 3.4290705413960634 2.2950193521584303 13.218088441176837 -0.3163487900749326 0.8846844590089603 -0.0010628940468755887
Ni 8.794514453872743 5.714947755555428 10.904898742399597 -0.5266768557426608 -0.49284730878772537 -0.23229197153332898
Ni 9.10464319195248 8.34076985999209 4.852329144398855 -0.162500661771804 0.36630403894713687 0.2106844205658823
Ni 1.6103223075496202 8.541285567594686 3.006830662790202 -0.5833794506410276 0.33986847046342755 -0.7236989483301021
Ni 3.8243313872259597 5.711650287340974 6.63737743834459 1.5015396728099302 -0.48760045856648937 0.5159617833180017
Ni 4.239923532861274 4.494541801813961 11.981339642161256 -0.8080822969731891 0.6343821669411397 0.12796071901340544
Ni 6.016388220643146 2.3939804487967407 9.160858541223124 0.3592623016090071 0.20808606371108676 0.26024963308851956
Ni 5.356922365405616 4.337652710194746 0.7897223334943219 -0.7670567464904468 -0.2657785333265487 -1.1267116555521821
Ni 5.018135294023845 4.6258940398734785 8.590759632128027 -0.2536177295942987 0.6023377369110852 -0.11034943368954545
Ni 8.042802851590947 1.3799256098913155 0.8550548118758885 2.015444830709219 -1.4327282104631711 1.490430450270646
Ni 7.293462462407186 6.781428634050224 9.213173430198523 -0.007176206033465061 0.9410407263115019 -1.3462031328867332
Ni 4.9475917043573 1.1676094121055287 10.956970026279379 -0.7700091442505512 -0.737211638104556 -0.6101939997307104
Ni 8.571611160106276 6.354387975175959 6.7969397022297935 -0.8763828811218002 0.278487753363101 -0.9824660833358242
Ni 2.6593710647533917 7.296565417047194 8.306137181189147 -1.7589217545426672 0.10116031099110964 1.3978180288495474
Ni 3.3044707031352485 1.4926045448038057 1.8796069000157012 0.3210312831522665 -0.9930885960466768 0.7655516226998299
Ni 1.123389992847639 8.562839524153778 11.595692398184683 0.12821011602005017 1.0156104312982766 0.577639977054089
Ni 1.380499888063496 1.2411911185539317 4.39678391057188 -1.600784769056198 -0.30944229276308644 -0.39864157473757794
Ni 7.134378146162056 1.0524759011345257 11.782192013365611 -0.005595491809906492 -0.300837838923527 0.5099664849665153
Ni 1.6761327335712595 6.734300773726775 10.391615395890584 -0.1884883440848173 -0.4916154932631533 -0.7055736994843009
Ni 3.800387692466503 3.2399848219300895 9.876176653725663 -0.18947976146380915 -0.8470314245428766 0.14135179560833075
Ni 4.296202793734952 3.5566343960294224 2.836328399724963 0.27256496012076287 -0.3057491601822154 -0.02500294980224081
P 9.0292182378224 0.9362586716773114 10.660376654215888 0.8628665918029205 0.12404338623687024 -0.6049980573520678
Ni 6.960390385093728 5.163038644436586 12.652842182636665 0.253534425851873 1.698330623223172 0.09483873964845602
P 0.15255051265390432 1.1256500553317037 2.517123287759427 0.45513359628703554 0.09751911469409658 -0.4196606001914062
Ni 7.731275468285417 1.935410065759539 3.699089654169465 2.0197208323767537 -0.5222419598997586 0.5539477756434719
P 6.747184982396178 7.833320994461405 12.966977900350033 -0.2128042951223625 -0.04826886230871687 0.17408528128560985
P 5.602815311161627 2.075765503550658 13.281032107613159 -0.36372265137320586 -0.7724131257063536 0.5251200527785022
P 1.723871922271545 8.287945530702657 5.516023354242842 1.4815637439086355 -0.12282468333842073 0.11679776041805047
Ni 6.034181581429573 2.8033852102543695 4.657207946594288 -1.2267478802411778 0.8565907860965376 -0.009779962204899285
