# total energy = -381170.8311628293 ev
CRYSTAL
PRIMVEC
9.22269067967022 0.00000000000000 0.00000000000000
0.00000000000000 9.22269067967022 0.00000000000000
0.00000000000000 0.00000000000000 13.49834005355354
PRIMCOORD
 96 1
Ni 6.944630904762991 3.045166523765732 1.1640253299615033 0.8306581253911759 0.2731619702748134 -0.6650983650780738
Ni 2.0072264455130018 3.6159588630085167 4.763834338950825 -0.28780671677118175 1.4061365760175717 0.9705487630729477
Ni 3.370330936509033 8.066709592014137 8.534811879531299 0.9562984238015206 0.13765403504176937 0.7987371083128632
Ni 2.19513877241673 6.141721881176008 5.003010993172069 -1.306653395618569 0.6733909441041693 0.6770146568996857
Ni 6.688018753412348 8.952549052092817 2.034955387945824 0.8468632743961286 0.9469198108000982 0.8059863336761087
Ni 8.858108697369175 0.48134514936752104 6.881831757948126 -1.3402939664911497 0.87716192537967 -1.1154234842328727
Ni 4.331335327349203 4.470551846348554 10.588232939179044 1.9716473739082947 0.09950040679018349 1.1697110419318435
Ni 4.1394572433623535 1.2842135931145835 0.9925192478837404 -0.1674880876840664 -0.8258771590627647 -0.3412874622981412
Ni 4.470478064821426 0.11881869355576942 3.0995425869898643 -0.22166714482963118 -1.6180013900448005 0.5684526541278662
Ni 5.309447809792144 3.2099667872966635 12.29960652813846 0.4719054164287357 0.012064901584334061 0.1935439042308538
Ni 0.5989814939510668 2.6355314851519416 3.3182024430550325 0.27016689220223145 -0.7136359076671451 0.05848745471293153
Ni 8.845685732739025 0.28218943999859847 4.161295653123107 0.040999068120181004 -0.019331867559392514 -1.4563070262243758
Ni 3.7175191350999945 9.370161718327305 6.216201566004299 0.18887452377964245 -0.3625558847586143 0.7861762409287171
Ni 3.0338041685880444 3.743628573012361 8.732171008714658 -2.3182711608176847 -0.11118067134158917 1.268431376022893
Ni 2.2418978152340014 3.8359938222855305 10.928782644866677 -1.3317823294757127 0.5582546305489418 1.5632759734774626
Ni 5.5996397786768455 0.8781099228429489 12.601267835415186 0.6366503941500261 0.09699718075235554 -0.4385882903338446
Ni 1.6083911779325488 1.1478284402187633 5.402764840765262 -1.6385082517489007 0.09066275389389547 -0.15276775075475627
Ni 7.602955803252072 3.298061930687309 3.6491282707979282 0.040053159267143916 -0.20025371215086157 -0.17300670350945047
Ni 3.152822994536148 2.3743356564284817 6.448427078101011 -0.18502455390593295 0.668221484088088 0.2046623827415185
Ni 9.314641119163603 3.5258347276218553 0.12401844668010424 -0.12692970664572978 -0.6701783507041424 0.1421382960653681
Ni 1.133441042428834 6.424157567021395 0.5199614783971456 -1.0754860246079865 0.2472617054692839 0.8479881320291912
Ni 2.233542057286773 4.259278443417973 13.301048729459223 1.405993108461172 0.4329709441470672 -1.0201314590970818
Ni 5.482668390106539 7.14035485085138 9.49417924273832 -0.0716450751408121 0.6673982168558442 0.45085039553064926
Ni 7.162821325861808 3.3108261348804264 8.032984055963999 0.8796127009130077 -0.49471701500661247 -0.09787058449624435
P 2.2536475234291107 7.765911528604807 6.827730530912545 -1.1083092417855944 -0.7039657315672327 -1.7003250279453814
Ni 3.520291890396376 6.190380798316822 1.1419701869648125 0.6025696504162332 -4.5685325292543 -1.199272300528728
P 1.3708607740353453 2.5039697995921038 7.685563445562584 -0.8687783293016651 -0.26520029222557556 0.0986138904201721
Ni 8.881036306924154 4.6536407059163 7.221166835245418 -2.0991568643168943 0.7866328688501614 -0.31373423527022093
P 0.3144144442407735 7.441337368078528 9.93840951715327 0.34290725728975135 0.4253540510317577 0.35681821094388866
P 3.204506954289203 6.959562441315488 3.2306385266597073 0.649966651642958 1.724335789037682 1.180498362355335
P 3.2710947825220824 9.0478655624511 12.754041710024278 -0.5041743037647705 0.23111517761640843 0.44973633653086414
Ni 3.7022371362936397 1.3123059095685101 11.092881983889894 1.0636931457381165 0.4562947064746722 -0.08260594502769
Ni 7.693965316964267 8.28608974023789 8.658672618197167 -0.6499499394724098 0.5143401885541786 0.038249530399501866
Ni 6.3828214664480205 8.555595213454124 4.5718068473715405 0.7299670407270009 -0.22630104405721674 0.3190019114270635
Ni 6.372731842613288 5.807427004450638 0.8338068826099456 -1.269109375926524 -0.9439450444424905 0.6674951474450246
Ni 7.9484931401735475 6.87558984075311 3.227263944062697 -0.6780821789322515 0.9033591526003281 0.8563946109253316
Ni 0.9151279595411664 8.66315945731563 12.835153431872273 0.7779204286778281 -0.9141654991872127 1.0253579976033438
Ni 0.992186308742576 1.224312215777665 1.2947855636829144 -0.36932534227196395 -0.18413006711612162 0.11994941867315471
Ni 0.25137735200092165 5.241697922507 11.540095798808075 1.2631217908845214 1.7045280102831353 1.7198692686258963
Ni 6.104895676448322 6.07796541904666 11.735632524271377 -1.8097632626745672 0.5356908863158129 0.6876993903070414
Ni 2.8087151747027734 5.975150860994009 9.939394500540425 -0.6399527190503818 1.8218623599309463 -1.2352839427366467
Ni 3.987310511733848 5.586718788738582 6.326280837671776 0.9373308815600825 -0.6409857883005864 1.0377553428264321
Ni 0.10596041791556438 0.34954920745905294 10.851842346108674 -0.6578887347035122 -1.1910730525473874 -0.684319418091215
Ni 0.31871867407959414 6.816002034906486 7.831223858687463 0.06316917645931702 1.4790669456287107 -1.282449544678856
Ni -0.06456344758230917 8.4361890344886 1.8010568797214885 -0.5306348119491442 -0.4803905710816114 -0.43659774226637715
Ni 4.655715811366771 8.05085578637254 11.44155780252157 -0.5617096789770778 0.386320848388696 -0.7804671063590818
Ni 4.53578393902046 3.664765343203586 1.269027510293495 -0.1467534262398763 0.9815104042907743 0.1763897610490704
Ni 3.501911067450652 4.932534878459552 3.314827860458023 1.2137599526219418 -1.0784913870932136 0.07992042777572687
Ni 7.262315715193706 1.3942402954439812 5.229392086051164 -1.4832365036253683 0.7245237582242425 0.6230304893737464
Ni 4.407035174182372 7.4384137750660875 5.044964091766049 -1.979718066731571 0.1293658268910482 -2.4511131191827915
Ni 3.177788818778032 8.147509586910017 1.5050647605354486 -2.054246119847133 5.1174653681816835 -0.6487039828804506
Ni 0.31269902373505115 7.838687782425534 5.596533576384763 0.055529400525872116 -1.0962589954892796 -0.14134356807821463
Ni 0.6163136969424865 5.155207527331385 9.268729641639213 1.0379450902397351 -1.4043923396329554 0.692165396498195
Ni 7.751505685433095 6.097047166500099 10.144434286697793 1.3385139917725914 2.197299471527603 -0.8304969172229633
Ni 6.530430634158164 3.6125095766152904 5.7462436730798725 1.0358684102163642 0.516553908376046 0.6155663197862172
Ni 6.743290339921995 4.232587975979476 10.088699721105419 0.5171851142021415 -0.8022428074732764 1.2426470679699373
P 5.657410714417948 0.5000266320362913 9.428793131128536 -0.6010383013733712 -2.9740580186868457 -0.3908740149770171
Ni 1.1236004312481576 6.595238483049084 2.8809915586772097 -0.8296903621612678 0.41827271870494415 0.41392498325920973
P 7.301521374171265 6.926139409526575 6.656517730405116 2.428435732189934 1.919425954709733 -1.3855222422013298
Ni 7.334630834469884 8.147721708800509 11.318453324508763 -0.3458989929282236 0.7175851221228803 -0.2801970227447239
P 4.540939423228518 5.167584378507081 13.056053479554862 0.06099787983961107 -0.24694366000823278 -0.9524268566612565
P 4.554007976221038 5.359370235585021 8.580571182655987 -1.4353000849554054 1.5401478721004316 0.3989171969964678
P 5.02620974983924 1.274981679532712 4.874345232551999 0.4969489896609248 0.29184669116851025 0.44356980270883606
Ni 8.525289451186362 1.3486248662971914 12.701250105095214 -0.8895178758418617 0.49332861929951805 1.2757502782818095
Ni 1.8633801356863786 4.767670056092384 6.992194166225956 0.1303554444978271 -0.23065932102591244 -0.20477011196397638
Ni 1.588903632079907 4.501927440759671 2.0405978302329255 -0.275828461363383 -1.017478337744951 0.31903173622373443
Ni 3.1329757637387576 2.0562266022167814 3.445964379967786 -0.7087749800304181 -0.01721584965765422 -1.0168129362468101
Ni 1.9065054382926037 8.718265035389237 3.8089482812477304 0.6871661435113907 0.027878728688139086 -0.49003092238485285
Ni 5.479126876804402 7.042299201298475 2.8157806781943533 -0.6535703098338163 -0.7836349625641019 -0.4903448540808458
Ni 8.910133896685197 2.9341806615836723 5.8539600913410785 1.1689104004074191 -1.3503405520938745 -0.23135788975483382
Ni 5.884178238045377 1.4994066396738321 7.49855770917344 -0.19615923036651378 -1.539960952900606 -1.3511918443505764
Ni 8.80896097761114 1.6541726155153762 9.051271502197139 -0.48781437434950825 1.1596510865926801 -1.7028056282753898
Ni 5.4716657198736 2.5173980375293716 9.662058040488661 -1.7390085605585082 0.9726328992954861 0.14243551559081274
Ni 2.1608026942296097 8.699293960226491 10.64336065171079 0.9243529812431758 -1.5304208746206547 0.08823743228185447
Ni 8.096535774355567 6.834871660469432 13.152634420834298 0.9249276227997232 0.08739462466558498 0.29783324776924835
Ni 1.6238391851749414 1.9213447479361914 10.077294019280544 0.16325733743217044 -0.25015573918762724 -0.9050519669217186
Ni 8.582968160018554 5.356612651008618 1.6697580408520445 -0.3585621902181889 -1.0256068803893563 -0.3655558479272027
Ni 5.582522464383186 2.1415641610310243 2.8935445632489234 0.3410144111424127 0.34359579871634377 0.45118618160351326
Ni 7.462401994073529 4.449321211917518 12.49460372618464 -0.16076208181414248 -1.0783129525338204 0.6183999325802705
Ni 7.202589568983716 1.2924771241529018 10.632453897463117 -0.09671153119113667 0.615937587082707 0.9940748712193461
Ni 3.5831260834366265 1.4725317184175148 8.628382534503919 -0.1838978965006575 -1.6942824212957273 -0.11431073233013862
Ni 1.8688030779302751 1.689845983881689 12.596205500385127 0.1691970999553731 0.32849879517390523 -0.010530724327994767
Ni 5.262375195484579 7.609088892694574 7.0257103471928675 1.3896750880274389 0.3235111121513267 1.6825360793930764
Ni 6.546090763291049 5.649968002868927 8.030216326427617 1.1690343275797932 -1.6154871082633788 0.041052289955619624
Ni 4.466622980028997 3.504723988172401 4.895591545557551 0.1083696842553553 -0.1743544757865965 -0.1428170672999476
Ni 4.747011228496587 3.6049469700846863 7.456685770259298 3.05511358850828 -0.15770606859663808 -1.3119632378672568
Ni 5.244658406283005 7.936531310087946 0.26667226257452376 -1.1298401738788348 -0.8849575101646887 0.49701429568122135
Ni 2.3076279332140195 6.327485321102137 12.218455148719633 1.9357131219055308 1.111217159461009 -1.2911601850789765
P 8.227138300062743 1.5384647355971346 2.2988885113257265 -0.5143106208678239 -0.49624193629157115 -0.2703095884276828
Ni 8.898872991107309 5.008363842965193 4.594578593450461 0.8352804546545357 0.7178861983030669 0.07907376350471543
P 6.30568287983586 4.807927101831513 2.9454055986670853 -0.32415645904480944 0.5861832386384098 -1.0143544474039885
Ni 1.2482082078761954 -0.007007400538967004 8.343742625535588 0.6755810097769527 -0.18071589922825007 0.7999938635380996
P 2.527210980637375 2.680648888990618 1.166663941825413 -0.14442632076859643 3.933787836767419e-05 0.6748235627856378
P 8.833115205054618 3.363589149467726 11.11352144383482 -0.5818676419821914 -2.325625544300227 -0.21950510418130584
P 7.102283582853412 8.792267907098466 13.446965533390873 2.125153545490972 0.3914573982843129 -0.6452666750641274
Ni 6.322136160385369 6.00150008886954 4.904433339314734 0.18082671377450146 -0.7799024921048633 0.3233344773641464
