# total energy = -340870.0432203386 ev
CRYSTAL
PRIMVEC
9.23925952486951 0.00000000000000 0.00000000000000
0.00000000000000 9.23925952486951 0.00000000000000
0.00000000000000 0.00000000000000 13.52259023330755
PRIMCOORD
 96 1
Ni 1.934100372648022 8.790388488516793 9.726582320124523 0.3662091652404854 -0.49701686678438284 0.7041716769304518
Ni 3.5828462178198253 6.196983802248067 5.859406208699197 0.7249045386024289 -1.0956786975057775 0.49296326554029946
Ni 6.702121833030237 6.26794131466566 6.507326830776971 -0.6651616142158415 -1.0272721839069212 1.049997907639211
Ni 3.777425021402444 0.08226174632943208 11.31897607418469 -1.0949934985132947 -0.5552549244906696 0.23702305846041116
Ni 3.636452401029054 2.4521271703341676 4.57261019952501 0.7781873091859693 -0.7672364666014205 -0.5019700970246
Ni 4.405676184081022 6.17068886991207 2.01773230115083 1.6993734626653896 -0.02877398680889883 0.9707966174176957
Ni 7.265836768594637 8.137533177977792 7.871702129601784 0.3280619647468027 -0.5671750729670232 -0.1567053952462656
Ni 0.6311116373979125 3.2719820950591054 12.602919000047088 1.4243674972033018 0.9072124649081473 0.28159133198908926
Ni 4.771172047847631 1.591508633006831 0.16313021233691455 -1.626340248927799 0.7457343308635866 0.9609765460034805
Ni 2.0901145073724328 7.150798749439501 2.2219106952805676 0.5081983373224989 -0.0861772073187161 -0.5960979266489606
Ni 6.076550055586177 4.300505693996457 10.110177893113278 1.0607836854008053 -1.0199630518400176 -1.7066355435444416
Ni 7.717691990247605 3.9612123699715522 6.309343360094628 1.2594955069858438 -0.12653144276604658 -0.1876283100773672
Ni 4.912782177121647 8.144296315880094 6.967297817912701 1.1438691411680753 -0.6443194806595096 -0.14029172977493257
Ni -0.01686072453266475 8.148860510038206 2.9256124222372435 -0.8506379109472124 0.01485737672780667 1.3351918693778941
Ni 2.686952187991139 1.8385941479265822 10.06648635919771 2.7506510083479725 -0.2668360280567856 -2.3529049488414704
Ni 4.323003290706983 5.530445148494163 10.79208143529823 -0.18269616288307247 0.8638268988336607 1.0509204194534805
Ni 0.5327892864023995 9.290444926612809 5.208509621159224 -0.3130516073808996 0.07871689438592894 0.5429215997362972
Ni 4.9820304265448065 1.4326580456376028 6.369343110828984 -0.028591181374131407 -0.8475582435806241 0.4561491820357435
Ni 5.138247824976663 0.43765540383596346 4.0629837365120505 -0.0053023860495199 -0.9334922245402826 1.2854183974991926
Ni 1.8975313838265593 3.8634979622464924 10.354869515914878 -0.7816786101686796 1.5217292603839276 -0.559818632601952
Ni 7.003959199328458 4.976440674590035 4.2678513793952195 0.9843553299387371 -0.0019825776476675534 -1.062628709029344
Ni 4.535118208686552 8.477306943493025 1.8614114230133643 0.3330943849643876 1.4221900299360088 0.48798098183435956
Ni 3.434620778794377 6.663529446393741 13.624820821751406 -0.7097113758017584 -0.11612618827232259 -1.7123865870956059
Ni 3.4354707906618795 0.3502723360048294 8.047117785201937 0.5407392473729978 1.510711054896553 0.19501406101847704
P 0.2209319432530217 4.908726142232153 5.308360145664356 0.34424603070583293 0.5994889546083805 -0.504205414113022
P 5.803834835009342 9.158563737517921 13.267838011623022 1.9889588686035484 -0.9393761941248854 2.0392892414269848
P 8.947335788443572 2.1574409908342815 4.908119122887642 -1.7195638215703353 -0.4347861429789351 -0.2551377657832509
P 6.265372800544294 3.9673841952703746 2.4025724023847195 -0.47146447223657517 -1.2245164198074976 -0.1346435303502197
P 0.6176842216692032 2.012523206684549 9.455900660548096 0.5280534243752132 -0.7162450631552181 0.6645638327308425
P 0.7269855846446415 7.514141865759065 6.863593598299579 -0.06004682878025142 1.19467773917951 -0.5555498300232691
P 1.093226132721258 9.02853040030891 1.3799665491118824 0.950470504265834 -1.3513911048455758 -0.591772045580097
P 3.766439541940918 1.3870068647970655 2.706289034050876 0.03261752892470512 0.15459323399926925 -1.6585466584570145
Ni 5.372028806318116 7.666404861155149 11.964463075328766 -0.5967245044893659 -1.3471027618828673 -1.029023362270073
Ni 1.421552455803495 2.2509238177406883 3.6380637278735364 -0.13095116910029705 0.19538892785939252 -1.1065333808320943
Ni 1.3887623240886466 6.93778762329528 4.643873531429715 1.5354728352222653 -0.27440972663898544 0.6933784429696898
Ni 2.7230130175439857 7.28956318680927 7.924548845685918 -0.8211820675799406 -0.4203041473126762 -0.2611191801776664
Ni 8.184256112912136 3.0365565255392246 2.8472080667195754 0.3165231108692678 -0.131752839065986 0.963628638914347
Ni 8.980532447573312 7.015138703238001 0.7893367269037724 0.9924612468753229 0.5041259670253383 0.8577704082269357
Ni 5.739076865668859 8.861854160203002 9.5572525647105 -4.437841041573292 -0.6731551739442794 -0.0808658224081317
Ni 6.064372711658262 3.0498333413392356 7.741831403358732 -0.33758044576019924 0.7477598459340477 -0.25378356574820166
Ni 6.11089238288516 1.4944317341823978 2.171444012425441 -1.9150913318901213 1.144385161572545 0.7856957017478727
Ni 7.520877285883079 9.07992840051452 1.4098250638097907 -0.01589507396370166 0.363269108775555 0.9881857594284208
Ni 8.363451549544848 6.853045135809062 4.88135760795046 -0.9794422089078358 1.0000907383961228 0.6049502348332678
Ni 7.95201808789539 4.87052180449169 1.196804698406142 -0.4418245378829552 -0.0476422844683115 -0.4831228824111099
Ni 0.1756272346410859 -0.004730500827839526 8.384073576591211 -0.31593509957628174 0.1201185972611673 -0.469440756938327
Ni 8.573478394893378 4.485161532951927 10.141536863542516 0.5324160722192831 0.00925957092505502 1.3734342006885445
Ni 3.9167992498945514 3.82058160219705 8.73525505572389 0.8734299691410634 -1.4297842973434989 1.4418198883517943
Ni 5.405853735089053 3.412418838385591 12.072427517464773 -0.057185962292688616 0.48844660861686845 0.031149429019610868
Ni 0.6750572509477875 2.328967842140611 6.8272038511110456 1.2934284122878628 -0.217741841633296 -0.42731297453034145
Ni 9.035801697479828 6.708469204258217 9.63064000235802 -0.18997032794698251 1.6117988607785143 0.2485040625168172
Ni 7.164666877842991 1.1272081289024958 9.01963484133031 0.9558168561794119 1.3874323147398493 0.4137807443718615
Ni 9.377386357843218 5.513130776323516 7.638708333163715 0.6236326417341195 -0.7329425784155571 -0.9574651904161122
Ni 2.9679827420544105 8.95090214258331 0.24133499985090845 -1.0943124132858701 0.9772896813412073 -0.6811585038647301
Ni 6.525236211254869 6.697520681834408 10.059549523218134 0.6775155077955042 -1.2390074143348209 -0.5704264900247854
Ni 2.8075522413227585 4.248156050069623 12.607461943908511 0.6130854623458925 1.8183201511056426 0.11356022731735926
Ni 8.420771915044684 2.9731474880754303 8.342978274575296 -1.1566974032809951 0.9263319593464175 0.7973733951961172
P 0.8551646024861769 3.6785557062487118 1.7459964420735092 -1.0862347784840582 0.1735368649813076 0.7832259000511415
P 5.35808676383919 5.754109140760451 13.005161246416202 -0.7647499527341409 -1.3053431614475777 -0.9937606824130368
P 3.6305854712914014 6.999219459241189 3.8714769866897 -2.3730369437046552 0.9920082184983045 -0.8412227882808997
P 5.2486939321954 4.389378130447605 6.002813373932228 0.17753775861058457 0.8710501560549773 -0.00048336739432174817
P 2.433778001107431 5.128971608509571 8.236271295647628 -1.467704212317724 0.6813253684598976 0.04713037782889947
P 8.855183414894995 1.4945241267766918 12.653763568612876 -0.6121056149311265 -2.022702797823213 0.7663772039249188
P 7.66537006409906 8.544568752138868 10.243510569864517 2.480702145693818 -0.4640679226621879 0.7995038112755586
P 4.989662054833469 1.9425820128041873 9.246151916908387 -0.3121314095594753 -1.2679102134121003 0.5992364722779421
Ni 4.433578747557731 4.469519466737997 3.5720871002143193 1.0599149096426068 0.0786184211348517 0.2512582282231866
Ni 0.26345471085077293 5.531710927035987 3.007748514638436 -0.06572459589131907 -0.7949115639191858 -0.11822138023845447
Ni 7.070278603512505 2.5196291997251743 0.42806412862233023 0.6150901514807471 0.7084880449176185 -1.5418882518303059
Ni 4.837731672776842 4.003417307044933 0.6715592673278263 -0.31743739515342106 0.4022133512492363 1.8191411043450414
Ni 7.535539990597496 0.7090318557214816 3.716250960794615 1.237330283742714 -0.3939521396817086 2.1878167288481483
Ni 3.1127804158315606 3.9031990600145128 6.413791340091817 0.12876830251636534 -1.1316576867035477 1.8170096598243355
Ni 0.13016545861885076 1.6083795207248683 1.2767298360258854 -0.5071596116453394 0.8390062402455549 -0.1275763390907932
Ni 8.678436382011068 6.000751171227591 12.26228505947898 -1.9037825917455216 0.6082972969286298 -1.7259622688975114
Ni 6.361516534166361 7.1243929459903494 0.7735800938729178 0.7653204805256304 -0.18953195485798327 -0.08645488646013498
Ni 0.8477149876082725 7.857186329112294 11.539664100988775 -0.5350936190514461 0.796461424904809 1.1590497055632554
Ni 7.830022906389935 0.9586563191324247 6.777441199824437 0.3047736836428235 1.565094257633124 -1.322181316050839
Ni 2.594892207036856 2.4790041760142167 1.0700993424435918 0.5059715048745093 -0.7646954453471217 -0.22734619749227944
Ni 6.154058202939196 2.874730896633738 4.791892011043945 0.013015181312745327 -1.2882574096098847 -0.9767158111156082
Ni 8.18155824915876 8.744838939529979 12.838076631043515 -0.6572667848487971 -0.4228608522962588 -2.3620387928219384
Ni 2.596869408554742 4.85487973827776 1.5708921495161259 -0.727281780585354 -0.43161108768506307 0.25486934261321265
Ni 2.3289308851028934 4.3644321299882956 4.429175316513692 -2.6762242566969654 1.483128260182278 -1.2068663108259023
Ni 1.5125961182205472 1.0587082594931163 11.669130147668824 -1.7236914705854636 -0.9484478174088504 1.3297467871029227
Ni 2.293054840738634 -0.051434033317382534 3.4920732657040543 0.5374919440802937 0.025268544758801643 -0.4757242759541936
Ni 5.550309556267317 6.734071192137012 4.466092625415642 1.367877275426057 1.6169541797272087 -0.2627960536594571
Ni 7.713959329438137 2.339777775672979 11.105887338261265 0.3897545566605933 1.1135915732304562 -0.6240301342828544
Ni 5.725679939496267 1.1677222815003012 11.480043159891023 0.9939545435913979 0.410426483187648 -0.9000802247387402
Ni 2.079895886443545 6.232684300683169 10.429514416770733 -0.21340953280652925 0.13888199391159953 -0.8104477118815719
Ni 4.770026379678389 5.989737973987777 8.257339578924428 0.36497195039927466 0.3957295432971055 0.09834289614697257
Ni 2.9504096706197407 8.45980778613379 5.703747785462818 -0.533509819504094 1.5869319223335057 0.25186912233430814
P 7.223909009304137 6.872512255426753 2.8625969772251407 0.7653042825757141 0.2366926717041859 -0.8440240051751206
P 7.307930834554865 5.1729874404311085 8.480394703994321 -0.43405954922555573 0.13165333737364424 -0.340249250841614
P 1.349754170777829 6.179715626374567 12.850166202006852 2.6176329294163176 -0.18054774908150195 0.5644700153310344
P 2.6645377446154774 1.5942342145384967 6.244001469558209 -0.1035259830098088 -1.2652516927433306 0.7862978541082458
P 3.8576864680654164 7.667522811546104 9.833573868242619 0.4488428781823174 -0.8506515377939673 0.5512607157296119
P 6.583203324914762 8.868783604775034 5.7576348421587 -0.7630473682207375 -0.8926101416139401 -0.8830332965587824
P 7.953413216069226 4.096160993196991 12.469951274043307 -2.387279312556282 -0.5411724782556744 -0.2911319244896728
P 3.2628629460023135 2.228675681034755 12.275293012829597 0.2296560765723787 -0.24537734396237743 -0.17539628678754954
