# total energy = -340897.0262449102 ev
CRYSTAL
PRIMVEC
9.05162684740580 0.00000000000000 0.00000000000000

0.00000000000000 9.05162684740580 0.00000000000000

0.00000000000000 0.00000000000000 13.24797084364838

PRIMCOORD
 96 1
Ni 6.218024184860291 1.9523182619429358 11.452857934934435 0.7267976418600838 0.3443784425186392 -0.2487282627124813
Ni 4.578493943798078 0.254895625234555 6.141189449496071 -0.11335813860888219 0.6215888718312134 -0.7208190556791457
Ni 2.664409754091516 1.6852862152939558 4.896450443667191 0.5549893295341087 -1.3065999166728142 -0.3793282191209467
Ni 3.4377807606909143 4.328777659504254 4.883785407238892 0.2936963427827394 -0.20337503138866264 -0.01173117239399915
Ni 5.274708882276534 4.551827850803674 2.738580595644381 -0.3793698709921595 -0.4637647895994723 -0.400023285576453
Ni 7.261269448970938 6.133816899345379 2.696823630199105 1.0964284311876085 0.1697365173986109 -0.688402329911337
Ni 4.763038514052624 4.627798155794179 11.416214233553157 1.6620649560229184 0.6355455911216216 0.24214212485453135
Ni 5.593923558291684 7.864976760021424 12.38653506514194 -0.08734243127141086 -0.3798732929911393 1.253477582926538
Ni 1.8145253448846186 6.64705319903162 0.3349029558447152 -0.045938157293011206 0.07298899076321623 -0.03541103250944225
Ni 2.9024494396199687 1.6347962401674174 0.4092602609127481 -1.0178755731833695 -0.7021801004217197 0.17184585043212985
Ni 0.5846536363209474 -0.08679967147336459 4.5828179059920435 0.4033955444827956 0.19064884207124586 0.39429589617437255
Ni 8.692395031138672 2.255122338297918 1.3745302846634873 -0.12114703852568168 0.6733549486599113 0.21501467251012005
Ni 7.147752995392251 0.5425554245396607 4.794705630936847 -0.9742830333043996 0.30625875282878223 0.4020688552515721
Ni 0.8395746061109621 7.58661207643117 2.481239220807963 -0.07997133561832034 -0.4777343644056869 0.17338131324004977
Ni 7.605240324694063 3.8909142574298246 3.819469765914269 0.3140170566179624 -0.12284113839865295 -0.567942547260667
Ni 7.816097974491968 3.6579072764855156 12.507383336550046 -0.8167597701425289 0.6636179238778055 0.08282654567892832
Ni 7.971903629180585 8.870920269471537 6.942652180334482 -0.6407785573857868 -0.24419437939786978 0.35895274078838824
Ni 6.772789348992672 0.7905365119471874 0.3725513878174314 0.506231186293799 -0.746098913291857 -0.027442926702301126
Ni 1.6010789297790426 6.458308673872319 9.178882868025266 1.7033640718820213 0.5035181582380103 -0.08933529333172358
Ni 0.07536022533408183 4.857003453419529 1.3150013548647792 0.00024014103526410257 -0.27659773542923977 0.48776758027197287
Ni 6.573110458477893 2.0232106042145475 6.947951002750954 -0.2878226576107817 -0.0029444273403046064 0.7178939116125507
Ni 3.414174117605577 4.049634535996309 0.33665716114760563 -0.17834868454765412 1.1318991132903924 0.16252071637646204
Ni 6.0689348373684995 5.690984154075454 4.756047942559217 -0.9168543588732855 0.6629329819956389 0.2753880313918548
Ni 5.271133489631324 3.0119741257137504 9.19239604189877 -0.30136337240969385 -0.9332667387930378 -0.23881820268762097
P 0.3602058738204637 5.471328322882247 12.418157829054106 -0.2728434105931301 -0.28406293345803335 -0.5264732243722868
P 3.8591792533434774 6.153467981453609 12.93951886909058 0.9355961582571629 -0.506874733415069 -1.2425532227045504
P 2.4378927896702853 8.59007544009701 1.322037184492936 0.3262871322345671 0.6162921422086483 0.4332226551465571
P 6.204003214714898 7.728867445575788 5.86259847523207 1.060086916444097 -0.12754779984570294 -0.004943974268836646
P 4.672350263641583 0.9055338116948786 12.578908387545454 0.7898169230050979 0.6663708040325943 0.14879513926025342
P 3.941322767913814 6.189294320921311 8.160935996076892 -0.2374128376996621 -0.17446734721537696 0.4912213431485282
P 4.566880706421356 0.9909630668480284 3.782149907999834 1.5435206452274064 0.6558935586503543 0.5266274905619639
P 0.28544396102777025 5.7955938067354404 3.58472849324636 -0.73635134698679 -1.0714722754629031 -0.7385303569159797
Ni 1.600047044306754 1.2524102596689206 2.6837874770658603 -0.55588381632392 0.08189503500359444 -0.5510473141672252
Ni 1.9481454619190324 6.463106036155766 4.752921510610722 0.5157666365880601 0.5031905996952625 -0.23427737739447396
Ni 5.823119804290084 5.49536039243423 9.225410040873138 0.1163475602545093 1.2846743202443165 0.5609429760143824
Ni 8.478034401711156 2.391964834526496 10.205508439893203 0.5764762957632911 0.29332173305214004 0.3402428230837108
Ni 2.247337939121005 5.458022431265895 6.938889419011409 -0.1363643696960684 -1.3104108057784722 0.3760109818222557
Ni 0.3297842608045471 9.185138447410342 9.31610553258574 0.9387976959135961 -0.34783271961582674 -0.06730659566645827
Ni 1.440457809553079 1.1081182744605753 11.445399394327715 -0.00576364195665459 -0.6560599090248895 -0.029361226770936527
Ni 4.239854476348444 7.06429699491418 1.7104325401234712 -0.22002035325482752 -0.7291010931822798 -0.5622987187113284
Ni 5.588483530494794 7.869149560045328 7.981544517044922 -0.07359191445453778 -0.2499603353473695 0.9524299419850502
Ni 5.364338092334437 2.714474302751409 5.009839269305885 -0.40043774740605226 -0.05413689105371967 -0.8411335710012031
Ni 0.741213291534491 7.446583407516228 6.901199349554723 0.43219215699951374 -0.2793665564236285 0.11995893175485148
Ni 5.1486197188644365 4.621190468120752 7.028777505600079 -0.2377959320706937 -0.18650396666493688 -0.192546573314591
Ni 8.178461756177287 7.136827681663723 9.10289264945547 -0.8134597592350185 0.5376228132312031 0.42605493375352427
Ni 4.658981010636581 0.2726929341434471 10.376632162869134 -0.5601960705460288 -0.37589939594505584 -0.25785619315567854
Ni 8.19785034110397 7.106939209475155 5.016742040017878 -0.5640732941132479 0.7341031743825615 -0.5536032478198595
Ni 7.214436331132159 6.073026172749854 7.153228324534245 -0.23205388738059393 0.21603488624451828 -1.0100105686129959
Ni 2.3557402234729987 5.364410505350036 2.3188584643029393 -0.1750219341672663 -0.6483967360526769 1.0440671439770728
Ni 2.4788604532455296 5.218760776099206 11.41214643240187 -1.7233181464064449 -0.32461000164246034 0.04668557698199701
Ni 0.977412781304029 3.446343599785519 3.946345515708313 0.9666957078754448 0.42246515951973695 -0.8190187413800347
Ni 3.762218225456156 2.649999563987276 2.6522172125900014 -0.0799700500667397 0.5481949323200946 -0.05405590130413916
Ni 1.1114492731781382 3.23857255477753 8.141779132800126 -0.5610370783900854 0.5851673957793857 0.36936545148127997
Ni 3.8200762249199127 2.677625129438369 7.021928139487091 -0.33245777982165325 -0.8518784682225328 0.46786955579646516
Ni 4.143273616793017 6.78642109917922 5.99889334803018 -0.12355230553306465 0.6040002122151727 -0.438353034394587
Ni 0.6902743557112376 7.370423018359775 11.267942247974942 -0.025981254555110096 -0.3722083202467138 0.9805053600650274
P 0.15248280243530907 5.481176493003738 7.930248947119843 0.25475518563285154 0.1078814317650271 -0.06054896522765056
P 8.559833954457396 1.6406526428040022 7.967661131629168 -0.7913536713645983 0.7066041976313444 0.5219653091996043
P 1.8655222111203513 2.9954096483954347 10.393880943184861 -0.3550099540905563 1.1007293725558074 -0.13301139406343546
P 3.9665949103579328 6.092107002360242 3.6942758084075167 0.2150154438410684 0.44258609863932813 0.5939718814448932
P 6.729088094078557 3.9223777127076747 10.459140458005551 1.1033907214380545 0.43997771448220363 0.7776283513587059
P 6.317655442697833 7.659142763180713 10.394954466141119 -0.4792091491790005 -0.5313508641795623 -2.090514101040232
P 2.4330501692520894 8.476033992155228 5.7572900369715505 -0.19429029547857507 -0.026843859665721514 0.6595015877165868
P 7.03002753528186 4.003226844624176 1.475864153530305 0.3638460643249476 -0.5812312939497731 0.678170881991316
Ni 5.401078646124079 2.831013999731363 0.6073641683382448 -0.09936696653611274 -0.08796129580233238 -0.3752586770372634
Ni 1.4376065470638606 0.8946311270337247 7.1420341774853044 -0.31951613205932067 0.43523891424563754 -1.4191998369594332
Ni 6.894443215199319 0.624609328003193 9.25170773265068 -0.34492351638883173 0.08786230833062288 -0.5455035015308605
Ni 2.6106521416360637 1.4101258076439664 9.0904394210978 1.2491912968463583 0.17806894852370622 0.9821099855479861
Ni 6.455031984916456 1.9891131254942767 2.732672598734182 -0.21437009694758566 -0.06492189748436561 -0.06152881264241662
Ni 4.023783089427397 6.8491217190611735 10.38464737853327 0.20499919725564694 0.4436798459241391 -0.2773778081283739
Ni 8.119064980132048 7.040844229486991 0.21255664017640089 0.37668743906399 1.0868644416482574 0.8946282004852334
Ni 7.605810577191907 3.95784198709738 8.33509382440643 0.20095022399725393 -0.8183142591138423 -0.4861781242976659
Ni 3.1404257637597714 8.360634800170962 12.362383514114219 -0.2737741499375156 -0.16091377690065833 0.034861844874191576
Ni -0.016700251722564258 5.030351161137052 10.1209200808837 0.3367242684074911 -1.7004157878869748 0.73071291775409
Ni 8.724446842168264 2.5020869279989713 5.836128802542479 0.2613989162016143 -0.2495271044646928 0.284180175762188
Ni 3.7291526322081734 2.6183279212895787 11.544282082616503 -0.7275946838400824 -0.6223028671791024 -0.6008117871848621
Ni 1.147529058200437 3.3041515920295508 12.615287781419795 0.400721082974426 0.1870906924063423 -0.02679295182312805
Ni 2.9889286834993065 8.307356923943853 8.102366538734874 0.9264725986893398 -0.8776108399916304 -0.3646934999269074
Ni 5.723271307405744 7.910126275247522 3.6709597225472708 -1.0912036924535593 0.4935659321213048 -0.20974776768422584
Ni 3.053294802740041 8.514630129469598 3.566301191101755 0.200964365064641 -0.8688806592074843 0.11975504327416149
Ni 3.2402833122710613 4.293268126979799 9.10150141439327 -0.09666190890012384 0.1361378555075591 0.23140622649426595
Ni 7.383077192835734 6.044178637660526 11.464728238516532 -1.063610099106007 -0.5361413435896701 -0.509094366774207
Ni 0.5305547775294841 9.093717015216358 0.46943909752645885 -0.23930902628111045 0.009750394518544498 -0.5932190624392687
Ni 4.657424130801199 0.3820908974599303 1.5954397661892552 0.08818498177736425 -0.04763225716598248 0.23563029187794257
Ni 6.11293479597196 5.630772731604723 0.3944943418693774 -1.1524363140117957 0.10528436046181223 -0.18768564567786386
Ni 7.893036803566113 8.810989447436253 11.255847464044484 0.27969488629732475 0.47217383959877396 1.3397517208344347
Ni 0.03704649878054796 5.002752750566809 5.7000321603745725 0.19299703058844828 -0.6238257315815321 0.520883131879019
Ni 7.937082020304322 8.971510999765767 2.486194081400338 0.121887516236132 -0.12573440078604797 -0.17002011007730075
P 8.604313649289201 1.6918667480865326 3.6834129509049425 -0.07103109570589702 0.4053403269139923 -0.2767376034412137
P 1.818517112369524 3.2487194285883674 1.70737218505171 -0.1767977951207665 0.09597850967985405 -0.5028992937070887
P 4.956227388044326 1.005373256952268 8.252438892913425 -0.9667018785230319 0.5317002770991811 -0.4718905040304002
P 8.529167042351137 1.5626638250036697 12.414117182783672 -0.14671177436866348 -0.12258325675157598 0.12686568617701374
P 6.3789168538947525 7.769382527803538 1.4870583005792457 0.1841056416360894 0.24746148018491573 -0.7203752832735077
P 1.9055937636275555 3.1932691618932836 6.117197207102668 -0.57356683542598 1.268107674134887 -0.10769631233741453
P 6.93837981241413 4.151058015969931 5.892552119134677 0.5104765918337144 -1.441117205857815 1.1270960354747943
P 2.2887219775359444 8.340866046912382 10.239145190801723 0.4709656782232857 1.189788529408009 -0.3585578193428148
