# total energy = -381166.836476983 ev
CRYSTAL
PRIMVEC
9.26574604310050 0.00000000000000 0.00000000000000

0.00000000000000 9.26574604310050 0.00000000000000

0.00000000000000 0.00000000000000 13.56135593004566

PRIMCOORD
 96 1
Ni 0.3934180075180155 7.514353066057816 3.45460638342485 -1.3637871645170836 0.9574801028144478 0.015113972823303
Ni 0.8996900192416291 3.197052933249553 8.379927535812628 -0.1402171677832553 -0.9382863034948165 1.0624829274800993
Ni 4.620799636716764 3.8777516832154846 5.418331102137822 -0.7066641043350024 -1.0600606911918518 0.17938663889386525
Ni 8.24692146105137 5.406053062368958 10.080074216426588 1.6919568584863438 -0.28701173167371213 0.8198697765264202
Ni 8.732344618134638 4.235390939874325 6.787770342855588 -0.12504174559439757 -0.49509342450942473 0.13509115941059957
Ni 5.131203244495722 7.54826569571146 2.063509388457788 -0.5039051092637838 -0.6928629367858519 -0.28328363208984764
Ni 8.01827065177187 6.8456441911661505 7.488132858573149 -0.17692686449946304 -0.9988383540462605 0.03841999453909513
Ni 1.4868556981587329 1.3496948629776144 1.1585536458740369 0.5738974792925213 0.09356938601772918 0.8711614848218611
Ni 5.79380599290057 4.685984158469055 10.095967750209345 -0.0682825864264824 0.08365212690401723 0.12296455135039466
Ni 7.120920233346509 1.3297457122551293 12.118264954466728 0.5665443813615597 -2.020930793524455 -2.1282224142242834
Ni 1.212348712880356 5.437797507503763 3.476548596070422 0.833791528813835 0.6503713432805444 1.2616470061112077
Ni 7.1532020917381205 8.464638690278605 3.025836775929362 0.2580487687824588 -0.11052581136640967 -0.562919640124779
Ni 0.935432633692157 3.049180895915535 3.073233845455943 0.0010778064452110468 -0.6540693609574219 -1.593896783687113
Ni 8.381302572490387 5.498830975134515 4.940442849544812 1.2771723554403165 2.040499202574686 0.3671373334817096
Ni 2.4914293270627734 8.815764127635118 9.265090718778032 1.2230390639310227 -0.21938657632557054 -1.0935102290995489
Ni 1.3413278945138876 0.7343909671937929 4.01283235846293 0.25382881716384026 -0.5805142132780906 0.07259818308270079
Ni 9.296044795795499 1.5759180468556804 10.316557360636752 -1.5954980667359617 -0.8889512047051142 -0.2617946089781363
Ni 3.8019300852767497 6.0212337237335465 5.832671163688058 -0.05806399402226774 -0.010341234025007997 -1.9602093072746822
Ni 4.708435060559433 8.730843567313903 3.9009512575670677 0.24572932798515743 0.7047910556820056 0.9378990953587266
Ni 2.2791696221158664 7.762554598990101 2.0159501683795846 -0.0900217778757869 -1.234466589041674 0.6404872513976131
Ni 4.312287364326672 6.262133848969911 11.413100929271977 -0.02593266070536179 0.08354336924029483 0.004151046053896077
Ni 8.539644902586323 1.0387734966777014 3.1666853779416697 -0.9628732488055611 0.7402146865969381 -1.1168275636692506
Ni 3.15663575003939 4.964642197868971 1.9276244464742942 -0.7176208604568222 1.078878595229303 -1.5615623332204656
Ni 6.370765452811256 6.4735781682858 4.077424799058154 -0.32185660726703924 -0.18939440083885448 -0.2431772509872651
P 7.2275319046019275 2.9645568394601436 2.5019885709844374 0.9716803055742299 -0.34840761828269023 -1.333506254145355
Ni 3.7032684239237437 2.527825176592695 1.49687567567443 -0.49021192804740743 -0.22632675508882955 0.4758240347568514
P 4.238819265822917 6.0314909043419025 3.6771751571566322 -0.24389818831368962 0.05647736626143821 -0.2725243366908145
Ni 2.2160698931701512 1.8086087213070368 9.858102156724776 0.2489982285444163 0.23945377938909085 1.616396764561842
P 4.9147924854272755 0.648299216602572 5.813264985669864 0.692211419244782 0.8505582067492126 0.05183652505531718
P 0.7649688549314955 7.107206929552139 13.484259190893448 0.4952772583854568 1.6962490581037948 -4.091186915646599
P 3.5769855743200507 5.2669464205683685 9.33735982977436 -0.058841752728556726 0.7267210229858775 -0.20286158208735386
Ni 7.096467930161818 9.147375904322077 0.4483388626398856 -0.8118484488838406 1.2785406965427528 0.4774168331652681
Ni 2.259535506750819 2.300036081673245 5.542228022196212 -0.2897162750890688 0.1920974015923143 1.2357313146867106
Ni 3.02950971756726 3.9379975624526415 3.782492403722811 -0.15408312713207012 -0.1772045436408819 1.948577893683341
Ni 1.737234681355665 6.513179965864947 10.42620078392022 0.4579990907602886 0.063589037605555 -0.6960901854738979
Ni 9.168362818574947 5.064174839327836 12.725392756150448 1.364533812875121 1.3168940995099705 -0.5913398431386848
Ni 9.202886987451855 0.9371375309206461 12.928935247442123 -0.1791711804489495 -0.5130381819133035 -0.015614823719121493
Ni 1.2606417800264742 8.867337268796918 11.140110746582206 -0.6532556068068749 0.04509457834579331 1.0390694336521653
Ni 6.776910888769775 2.5483673350468288 9.541851133436673 0.8637927031616156 0.7238226183921598 0.2366350789933731
Ni 1.0615301683797096 7.130371294069656 6.0026225467055925 -0.1390833112891282 0.17204074005175532 0.5731965965707547
Ni 3.301589077444201 2.1092914384902075 8.017026262109988 -1.3559728106789872 -1.1543268461662892 -1.8093094629666002
Ni 7.009786878137271 5.932764382768248 12.046498046893142 -1.2705641060951798 -0.458469602638804 1.4387649035755545
Ni 5.512562810420499 1.4280460095216623 7.845190226395308 0.1244799595536566 -0.8228070047778733 -0.6293705726591612
Ni 6.723132500105909 2.22839333509347 0.5098402504338918 -0.9174619105502974 0.9756670581361198 1.3403831837708464
Ni 5.299422859621926 4.148283663542656 2.418897995460106 0.3894359969789099 0.09238307901911187 0.24781037888390225
Ni 7.664013392332587 3.5189820055681897 12.19869718751903 1.53201110192591 0.46301916968269935 -1.059545185008014
Ni 6.494324173147688 3.108741109962973 6.453672566568608 1.5796544148354859 -1.4085035335878517 0.8333403002090294
Ni 5.2948177839558435 6.451182860670266 8.38266741684776 0.7737369867240997 -1.473916768886339 -1.0268070713450446
Ni 0.12708526319057953 8.81743196188038 8.047823748023315 0.46790529413040705 -0.5012306477554143 0.5495799855930793
Ni 5.644794268832289 2.96010928147278 11.895275515875309 -1.8498195072655044 0.7786069132218912 -0.8875196144649102
Ni 0.2562154764807654 8.6436899622532 1.1645356113670404 -1.3432669330765448 1.2537449776553118 1.3780848120866782
Ni 3.2068653580591726 6.87489615067887 7.725903941450486 -2.0786638865698652 0.7125185062332503 1.8227604462651834
Ni 5.414030869508791 0.7738611911824795 2.127952650545519 -0.1738734223851199 0.537322765492281 -1.143117350603715
Ni 8.143367485912265 8.17204496918495 5.197321753425359 0.555747804966688 -3.897990624563152 -0.23311266766241145
Ni 4.035677054750105 1.8993296385034382 3.918160527254421 -0.2814954298411733 -1.209443070414143 0.2497806152363956
Ni 7.763990789590188 0.8355395547213996 5.659167293728118 -0.5625242044585731 1.5780801283698305 0.6250796585932912
P 2.9224625562589126 0.3100161029345685 2.5843601246341454 1.8823133661281517 2.205075515928596 0.25822386090774235
Ni 2.3482920858361354 4.755857147599691 12.030169949632034 0.1087383804486837 -0.8688994282605617 0.192844564170984
P 0.26250321158540013 3.511476751464514 10.930059068861109 0.3025550787249499 1.7447817155968597 0.0936866283218838
Ni 8.287616616635743 4.9976097214503 2.644858032157253 -0.6301228774441535 -0.2597423544347978 -0.23865750874004057
P 0.8023496532407022 0.3684153190323889 6.166131456663515 0.26954571367846486 -0.23483582100110525 -0.37908730675473423
P 7.371530860188617 4.5571161657852075 8.366474599475435 -1.64417727710922 -0.2562618520853651 -0.5897092495137973
P 3.579320542263416 2.9587842798223787 11.215255018502448 -0.8535797671843558 0.3933340464817355 0.9814235010039225
Ni 1.6462821205140883 2.3497560736736425 12.339368813786425 0.5701164149835342 0.23205491582185842 -0.23891384772522078
Ni 0.6704841917882878 5.535393608088963 8.308513653154286 -0.006566854584240304 1.6694177968435637 0.8037826411565705
Ni 2.619315150691078 7.824505375455747 4.31453152796113 0.01983014735204972 -0.8216368957291721 0.5575779161968913
Ni 3.1145599983297734 8.989367141075194 6.5584069977235275 -0.9550139006621423 0.25492153600738676 0.17054487223251918
Ni 4.161125987231167 1.5366776133630073 12.973565565270732 -0.10498842648794822 -0.3614701078936033 -0.1108320297529188
Ni 5.42616899651597 7.757569627745931 5.909183986263996 -0.49238888109406803 -0.6906589871559975 0.27087805933664316
Ni 8.78443664106163 2.6500218322954976 4.966235906147776 -1.1994306804834634 -1.1264306339766537 -0.06011804833781904
Ni 4.414312491407622 4.328446825014092 13.431532464378677 0.30794848182637935 0.8432889267813091 0.27123055758005543
Ni 5.000565494362736 8.566154201340169 9.148314524372328 -0.7502666715163013 0.6119474920867074 -0.1632820200225188
Ni 2.4612971216983874 8.80055903876582 13.355371740143408 -1.521118366272806 1.0987979598610496 -0.7880703726276364
Ni 6.102299733799048 5.367785532186021 6.340665677557195 1.2580484901266722 0.9827586748755784 0.47250396924468313
Ni 9.046193960109566 3.192253276921523 0.714620645365383 -1.5797667720436341 -0.3933947245163418 0.7523384664436655
Ni 4.800045489353306 3.645626219258356 8.035727316872268 0.4821250372742148 2.3921518101572348 0.3921109727079118
Ni 6.831856761405325 3.981046217471994 4.2980412801484 -0.21795858562979237 3.0504125834881854 0.6726409533120221
Ni 7.380027549093641 0.24200645528572085 9.51943451460578 0.04504367050319984 -1.1080691007503305 0.6825944649803084
Ni 2.8870488757845334 6.548019170099291 0.3013591166270822 1.5363608942541733 -0.8885603970245987 -2.741841380476142
Ni 2.301008984982981 4.617260121818488 7.081454642230726 0.858276915549709 -0.9622484707373686 -1.083106517267722
Ni 4.691228570595821 8.457837632856261 13.377097134337095 1.3159479335466175 -0.9680342241812104 0.1711727356245052
Ni 6.548500988881257 7.000150502497985 10.14983416345838 0.9518843538942251 1.056708486890167 -1.0180334389174726
Ni 6.348842698231878 1.9338260101429237 4.247904329586687 -1.0529343645597156 -3.0678726879461613 -0.26978354072088373
Ni 8.220060063956858 1.5218060913427618 7.760404019388295 0.3873883704212619 1.6634929467186965 0.3156782463704692
Ni 5.985393818952045 8.808397859718548 11.319501144853339 -1.6820956494215484 0.5035035029499909 0.9738474884288778
Ni 7.83585591406933 7.122337892454981 0.5007310957310237 -0.12429895389110206 -2.61017133093195 1.4196420667031744
Ni 6.729312752559183 8.822620779532304 7.301758867687275 0.5963995170497793 -0.1843334413761793 0.8052214304856261
Ni 8.220940309808524 8.102227574529156 12.027946170638353 0.5393958459712259 0.3962625329824401 -1.1487637502562151
P 0.9436513502229719 4.012225452112571 5.012236627781242 2.481355720117417 2.1524388635694867 1.336261448292989
Ni 4.69145094849519 1.4972981936832293 10.123945669673601 0.1973959309870923 -0.43796865447197475 0.08522898447283386
P 5.715343657406837 6.383051831751347 0.4639451583026268 -0.9074086400793533 -0.36487347714819746 -1.8167885449524646
Ni 0.7889106155222197 5.75929108976947 1.3007439278791988 -0.011790564877024855 -2.7455797644726525 1.5045517201633767
P 3.588280518458792 8.317841479458199 11.39667832140364 -0.3817278297013748 0.38739994038548764 -0.6105413557678002
P 8.873776962132787 7.682859919304038 9.918558368391752 0.3588707225975432 -0.3839544050390484 -0.06285935852838208
P 1.80479123403455 3.5202236155063282 0.7390229135227155 1.7768186894277462 0.7897888979806398 0.15041056337648934
Ni 7.020618534985663 4.768680939796589 0.6338743035302241 0.13716886787523472 -1.3070238915841104 0.1146226071436026
