# total energy = -340857.3979297091 ev
CRYSTAL
PRIMVEC
9.36529127346861 0.00000000000000 0.00000000000000
0.00000000000000 9.36529127346861 0.00000000000000
0.00000000000000 0.00000000000000 13.70705043687191
PRIMCOORD
 96 1
Ni 0.9782608835318563 0.950342949724239 11.573027793253829 1.089681599382078 0.18028781055189597 -1.4744302181876479
Ni 6.334317889316936 -0.2269678382514603 11.997973210078294 -0.11283569044650892 0.268466364571357 -1.5382653103657378
Ni 7.92885241131791 6.8385358156062015 4.4241421400438155 -0.6401861752174265 1.4961737805123265 3.835045648299499
Ni 4.416053337819851 4.464809045100111 5.579221599179354 -0.13995980035681058 1.150412855823864 -0.32615266353923184
Ni 8.924982270933274 8.088202845312075 11.593656720727173 -0.5801167207293557 0.7082034237976642 0.5580348012286519
Ni 2.698758575513526 5.111885127142948 7.258185160116607 1.7861559076682723 -0.7657241437219522 -0.37154214741762465
Ni 0.3495145499117866 7.370493735165566 6.433815682193657 2.173398753650605 0.1485495989083506 -1.001896938366926
Ni 3.250046456622344 0.17401273428574718 13.081268646791154 0.050763860816428696 1.142504913830697 -1.6643648078006885
Ni 0.10950835290589335 8.719020781400527 3.4020348350089393 0.7261553802903945 0.805461057300258 2.2998535775424456
Ni 5.807520245345628 0.7075664995079153 9.112995179405203 2.0495242888914316 0.645105724006231 2.6647314255660173
Ni 8.199921406999787 0.7256171622455208 1.784712685855769 0.017884079369272426 0.584211973844652 -0.6285799584370658
Ni 4.044326189650799 9.483481426457345 5.269305374569602 0.5717778618463573 0.4294161369162733 -0.3601683583630442
Ni 4.16401461436108 5.306701919852124 2.74731761167337 0.24791862232699236 -0.53623698862727 1.1562857696648734
Ni 5.613958401690534 3.1704133834367796 2.0501091245073617 0.4840302247167277 0.5097345714613672 -0.1884186671891465
Ni 1.4813549748473174 1.2806755096914564 0.8424847611715501 -1.1045418043233621 -1.311544405162283 -0.9570203895692099
Ni 0.48940109868878634 8.254043426279969 1.2590697823200463 0.10313517532929334 -0.7514288101452027 -0.3802504738248999
Ni 8.76781394984658 4.3909824526125405 2.13093908194003 -0.9929435858283802 0.194672104298026 2.2274749666697184
Ni 8.73582211425892 7.331693332694933 9.356104097467943 0.3639471086791861 -0.7949961532131922 -1.0239384915479979
Ni 7.6348665474618524 2.1226339414836075 3.465608306418824 -0.5680559329100797 1.0495291955329087 1.1138921351900106
Ni 7.522305109543788 9.364542225062934 4.852364472346068 -1.3624481339906858 -1.4319815621051337 -0.9089806125521634
Ni 3.0454429343496128 6.44849952265557 4.834532020899209 1.7103567011497705 1.9125330842446415 0.8295227262351521
Ni 2.926644212326928 9.281678126327677 2.6477083718284136 -0.059388369260646105 0.01908581298685745 0.47333057891103647
Ni 4.849479026050822 7.630230728194904 9.221952853173931 0.0509266116465381 0.7126627451205985 0.06695281187146533
Ni 0.8139402893660362 6.230765861772212 4.370877044931161 -1.1139453570254492 -0.6931023064901677 1.1950739461766644
P 4.784783592725421 7.9910192159522495 2.243117479437856 -0.7632875092560016 -0.7609141239278185 0.37135419977653467
P 7.044544131596191 8.450545971449852 10.056726233366886 0.1285333036874238 0.7519749124566598 0.02001398122808166
P 6.089462344399072 1.6904163758494772 0.4117890553977815 -0.43528056611685034 -0.9827368204987074 -0.2274007048792987
P 5.564425375220059 6.415505600882932 6.383003356911333 -1.1314429995895803 -0.25730726263074394 -0.6974533843700117
P 2.0248228375967394 2.353291704565729 2.496794192370948 2.163249066811113 -0.6641874232280303 0.7245119311497006
P 4.102999740574893 4.129231921921802 0.16634443364781465 0.5255075180249078 -2.4214269049722685 3.9528186281466247
P 0.772569114392823 1.2424182941248287 9.33148555583759 -0.12098685879873355 0.9235801076328932 1.0153101264490385
P 8.12642259971291 2.92512703511229 0.6486681815890611 -0.5709653932473909 -0.07387062203722117 0.10848872633172282
Ni 7.138065931999702 1.4174743218779253 6.766033475329432 -1.8596066685592554 1.0976880146263226 -0.2845527286102583
Ni 3.096380754537345 4.206926379777552 9.719929749241999 0.8683666956855431 1.5897745339886233 -0.45866063560368747
Ni 1.614182903459674 6.880745184164046 12.251773544858503 -0.7321573635101003 1.7820858513639566 -0.4513257925051712
Ni 3.5933780411199114 7.513511100873759 6.867328467635098 -0.7211203889696484 0.2373884122196299 0.7617008814951721
Ni 8.02585810014022 0.9242999472645873 8.865966886871314 1.4059578843478624 -0.28337310647986036 0.4537266886371798
Ni 1.299434188462559 5.780744877094714 10.279561168502177 0.6082597588224751 0.6136392779668335 -1.298989451315408
Ni 0.46386101237991245 3.197319865767972 3.472297934100401 0.704833735994483 -0.844808448749629 2.940321802776665
Ni 0.3755397583176865 2.7278471707521907 12.87749957198647 -2.818683426436862 -1.473838864460552 2.2927984704678774
Ni 4.517638654160415 1.8119591282665375 11.716540582879642 1.0223204963286008 -0.09143768438670705 -0.5885116296612702
Ni 8.295409918607458 1.9723210137371276 11.069224749375726 -1.441725528865775 1.0567951330667027 -1.4965730728332742
Ni 6.603307790297272 4.103608484519037 12.634459957080448 0.47662107673685006 -1.4499029224702449 -0.551710915893153
Ni 4.785289318463633 6.052076100937144 0.6953419845803465 0.8856056852716491 1.2945717818636866 -0.45410618346378573
Ni 5.7077424302546005 8.502579530737044 7.162085094977359 1.3343032961253536 0.9420413996618743 -1.0607836854008053
Ni 1.3864377460179982 4.217677734360291 1.2043127962796651 1.4240713061191217 -3.475950725506291 2.0316353244261527
Ni -0.28993912142121453 1.4500842667011804 5.450677354875485 2.1066534298042554 1.3235182896947078 0.08294815885845715
Ni 2.7846008369293664 7.709854436089021 0.532814843726891 0.6137187250545173 -0.18689760255892973 0.40651737794122894
Ni 7.620556382128729 6.953934936833126 6.861297219942342 -1.145994415041194 -1.2828946026360744 0.9260432244614051
Ni 8.195229395984148 0.8909192389551308 13.068000838396234 0.3764925494443645 0.20855477581738924 0.6027593978295361
Ni 4.026344830069912 0.3943771055369556 8.190757469317548 -4.01096515458037 0.3096616078627441 -1.3593743801613685
Ni 5.4249761855536995 8.793502944289484 0.2965791130581151 -1.3508887112878605 0.47283538444217277 1.5534913832868729
Ni 7.1063456898640425 3.31673669702625 8.466228151980163 1.8078120524854673 -0.7936265265591752 4.428744478588663
Ni 6.642464073842944 6.2985050148183355 10.448459517127965 -1.3905220094087665 0.0278689584961262 -0.005824062880944808
Ni 5.405627493421348 7.677562911175011 4.550822691349456 0.3172265646941956 -0.5578352836233361 -0.4915278186453535
Ni 7.630296285235043 8.247937256255625 0.32414959455299747 0.46429983616733583 -2.194795988379459 -1.327375715767585
P 6.1251628354002925 2.9289574393146776 10.64122250142251 0.8319130808441995 -0.27539394492912567 -0.08126022963307296
P 3.573729659661213 2.9235349355660656 7.878717196607305 -0.33708859372544525 0.02754422816685579 -0.42466756648769444
P 1.0531832151188867 8.955072952356915 13.090411980832203 0.12254314754225992 -1.7760604711054833 -0.075129948365619
P 6.16838365543456 4.003624633016145 4.114733514230567 -2.2132814487781562 0.05193576963734282 -1.6546660924556857
P 0.9820912877342433 4.341758480759862 12.023536709615787 1.4201380325029864 3.629799882250684 -1.5782701328934496
P 5.3292441763683716 1.870988560265669 5.459175420335744 0.329610025960213 -1.410825753963125 -0.18169960329775806
P 1.9880453380789556 6.801009092772548 8.350486261086228 -0.9190439103254365 0.9737474725159034 -0.21473467937585597
P 8.11781589687185 9.05342724314779 6.993597882646155 1.1100149116227918 -1.6634458955308449 -0.6212196614172527
Ni 4.420820271167075 7.1166943369145015 12.252842124612764 0.1920035563269274 0.603810979022502 -0.6709008306924639
Ni 4.294435663071203 4.4233863610239315 11.95697571023387 0.633670999806728 0.3547145343373246 -3.401199757746645
Ni 1.3006797722251935 3.054620919969024 7.655100259636074 0.8316042913545291 -2.1561317390400414 -1.3420726556581273
Ni 6.955320999967486 8.22860729470617 2.494573681768537 0.4791423004968071 -0.038566804529604544 0.6776270936727039
Ni 7.05373148250705 5.053071096847128 1.1594408753630479 -1.8749954923105 -0.48289868221544574 -4.840780986575909
Ni 3.680718749167492 2.038833313603514 1.0779796972867592 1.0791009956527544 0.3189600024455345 0.2752589620131582
Ni 9.253956863640477 5.548485649174919 0.3016279416779361 -0.33350884679398696 2.169821063601676 -2.2201681485956604
Ni 1.6122911145871013 8.305477606914463 9.969987713559437 0.8398765586656504 -0.02298283404841848 0.8911227584351363
Ni 2.727051120979078 2.014286884717313 9.838263016279699 0.340913109677858 -1.8127254306266847 0.350930384704544
Ni 6.141589556600748 3.4198204599985558 6.700061552779618 -1.913769527754904 1.0892293423360078 -3.16186450621329
Ni 2.244513844392809 0.6575567797027174 6.61573553204927 -0.33768226144538616 1.0576489964265656 -0.4499875333097218
Ni 2.028128785478017 6.627488972816986 2.421638665026853 -0.18298361221650422 -0.46925280929723706 -0.3590573846870526
Ni 2.5649191954247446 2.842365954582967 12.7174701543623 1.2114688425949203 0.19716530303352495 -0.23546008484866546
Ni 5.612553607973278 0.5730200399147812 3.2443907571166686 -0.805502966281787 1.0097740271221576 0.16389882767091127
Ni 5.435006412694913 5.214669200788904 8.21466331226868 -0.46737770376171117 0.23134554845965963 0.46852210177879955
Ni 8.643414783537764 5.605370429432372 11.40411539669087 0.23004508448068123 -0.2814360373581476 0.6392757475880151
Ni 7.963822409586157 4.338443167587136 5.020453659790715 -0.9389622465159184 0.7779787927195891 -0.48491237021136485
Ni 0.48709817352163 5.17425796818915 7.541893553137216 -2.8307388149394987 1.3562574317989415 0.9207868611584723
Ni 0.7105914886457417 9.059458490840544 7.928487164951424 -0.4302322050596655 -0.24497445209700391 0.18910386618162917
Ni 2.21683940816285 3.023050522496539 5.350533356888826 0.7027316020498156 -0.21901685169097765 0.08278257981487033
Ni 10.115825905051882 3.542711814384182 9.719710601422106 -1.309650273463364 -0.4247925221013329 2.1368546359779845
Ni 2.4800602896109845 5.408821057805246 13.585167216642027 1.0136486795862154 0.8350549689072909 -1.0899801044591033
Ni 4.107045546480593 2.773755829432144 3.9212447198487705 -0.2291364566234828 -0.5144833990002623 -1.1855289828007067
Ni 6.6657930148408555 5.99808519573724 2.919711087067693 -2.511040391666043 -0.7419129002349674 1.6264634047692248
P 0.41512497221169403 4.0187776745796215 5.653897623601291 2.0545407682694163 -0.844950630754448 1.9747504383136505
P 2.3520648513859914 4.81540809576162 3.8596042445938306 0.4257119485918087 -2.1408920392721518 -0.8577421260921615
P 6.971803912916633 6.19466266323871 12.766609838591942 0.22407086917511734 1.2908228563442157 1.0919518834734936
P 7.67288963074227 5.403229978810563 8.643131951736024 0.5526491114367064 0.05906132493853055 -0.004813876448875581
P 4.209642314297582 -0.23827268155879835 10.778128077931491 -0.4562836507310787 0.995276347726615 0.37524093642545053
P 4.3015532845719715 5.983288035248801 10.382584057080068 -0.22058419617809752 -1.4749452101508533 -0.3217627620016523
P 2.0564494268179145 8.536612999860454 5.00491008557384 -0.6933367910984769 -0.4237540535344895 -0.4934147512554212
P 8.907984266954466 6.709360350658714 2.6957654283666246 0.8883601080883345 -0.11867620838768594 -3.428479419398205
