# total energy = -381176.13687410235 ev
CRYSTAL
PRIMVEC
9.15869764969721 0.00000000000000 0.00000000000000

0.00000000000000 9.15869764969721 0.00000000000000

0.00000000000000 0.00000000000000 13.40467978568700

PRIMCOORD
 96 1
Ni 5.144028239405519 3.9145372120978035 3.479385513418132 2.2558830854987666 -1.1917726497175734 -0.066786204386614
Ni 7.149224309425736 6.503554453692928 -0.07739740488866692 0.1987601583244706 0.21220085721040874 1.0295100720985044
Ni 1.1602054807869822 -0.06206391354894286 0.25856559996158635 -0.11873971463576971 0.25386584104936283 -0.34004279125776277
Ni 0.47061692297474567 1.3866268001637938 10.398948156294678 0.1002758515036273 1.7352223540431986 2.241839977142139
Ni 4.549518867858411 4.997507396941712 0.5759547662997382 0.9626806731787808 1.5088292644928079 0.024227247978480856
Ni 8.086259808445273 1.2176579901491187 5.829749079267233 0.05937268553136226 1.2541165020621177 0.9167198901779503
Ni 5.742677342218638 2.9532952756090927 1.054373067797466 -0.11502961277403416 -0.04735869178962166 -0.002985564990885181
Ni 4.226674781294515 5.835317567341867 7.824472178706292 -0.5979537489107767 0.3947882624297588 -2.135984574668205
Ni 0.835983010250665 5.2046771341920754 8.491797774656982 -0.57215555690075 -0.11349903506212065 -0.49665279857674466
Ni 4.326394679578422 0.7591836683081717 0.2340166272062427 0.4019855515091464 1.2906799030084481 0.4877529249839535
Ni 2.8409546921823483 5.661980058623901 12.400401066650252 -0.6574290214582742 -0.1392298641693215 -0.3927522058363365
Ni 8.864474334270357 5.704247447545671 2.257857057709243 -0.5119143527215054 -0.17965917582896154 -0.6028396162481682
Ni 2.6044679642627355 7.809813683371667 4.235114521032633 -1.3357122606577383 0.27477096663314615 -0.36748340396721874
Ni 6.4439679678153485 8.223750175182781 9.402470878817923 -0.7446441831232015 0.22945578763611452 -0.13462373285587784
Ni 5.87301476621554 1.6404326250392167 4.3251271158456435 -0.982351669245147 -1.149607329203433 0.7070482271472984
Ni 0.5482799300906567 8.068125587412748 2.458230125551406 -0.29393442693547445 0.16834220815424555 -0.9154245684052944
Ni 2.644931089778744 1.3101699935074707 11.823892199152297 0.3479761871722265 0.4775338183591066 0.7454725925617678
Ni -0.0016568083761534366 6.794196559877855 4.297379010056632 0.07488595067561296 0.002558761866111722 1.4505472409224631
Ni 6.382284140212289 5.4498737834257955 1.8513336156474847 -0.31026478866438184 -1.3862352091079546 -0.2974354981101974
Ni 2.429481889996359 2.6443907266267646 9.388208955084664 -0.31504909742690257 0.9665620105110581 0.5658031323201611
Ni 6.321497864963365 3.5966021873891774 9.843123291210793 1.7838149182399214 -0.7640459846885809 1.4558084893214027
Ni 0.431592628834601 8.62288621184816 9.455647192321429 -1.2596996525768498 -3.1267116124612406 -0.6376757500907468
Ni 2.6206971762170967 3.657828080117678 6.9261981192089035 -0.6005099396737271 -0.29888097230747235 0.6507798915728729
Ni 2.1927753533369585 2.161443449219651 1.1608932989685692 2.191977802204373 -1.0439056786985441 0.2999623782971092
P 1.457606705720395 8.642183587462064 11.525933209541673 -0.2276462452312015 -0.8734363968989667 -0.5925603458093472
Ni 7.3840349957044635 1.489030196812614 13.4028562259795 0.41722113751197826 1.0278987617473265 -0.5953463931949166
P 7.902600447654754 6.739683992410385 8.803040539108805 1.3510905428860216 -0.3587054006642726 -1.1932967996715835
Ni 0.830437418919759 1.1826351309428678 7.820598049667525 0.9392802919769694 -0.06189210951910631 -0.6763487411809127
P 2.9778680609779133 6.339769466458257 1.1530195667354064 -0.4025337107031326 0.5939667392385707 0.5457860657682858
P 0.9051275128300348 9.221251395039051 5.213387971375932 -1.5001469062274615 -2.8337313219089197 -0.5457215310789375
P 3.3994337477991765 1.598256823092359 7.80499529262156 0.5276055382045172 -0.6138220834016009 -1.0904776129208122
Ni 2.637686560063225 0.3616174323927817 9.680363162225383 0.8634988260702805 -1.0845437639348805 -0.9124557155849576
Ni 1.2091587188773087 4.048006910636687 10.940631076582443 1.1389058836255288 -2.312329084301637 1.0051676386983979
Ni 0.816024376677898 3.4201415628267218 2.8391110463773748 0.5264611401874287 0.01001958901953113 1.5393019791603684
Ni 0.26964029696791436 6.960188793207898 12.91256733666346 1.004569857213399 -0.7810186079871775 0.8216003860642818
Ni 5.844375519160638 6.02025914578115 9.367404973733462 -0.6179209360613229 -0.4363930824547388 2.0383009093717863
Ni 3.4875862111517297 3.3918686636714668 12.911842883691909 -0.6182911749165482 -1.4389569649817024 -0.622062211923206
Ni 6.186022411673914 0.6535335133987303 1.9957159022471025 0.8589785696024238 -0.23071485685419618 -0.3716527048535599
Ni 1.0931088629666388 6.211437797211923 10.776423873393428 -0.007803555204818819 2.85938116126654 -0.21980669458212468
Ni 5.450624796620071 1.2663089912222365 9.02362776818374 -1.383520638390269 0.5736917910396183 0.23727271257737198
Ni 4.385678928438793 7.4650711511063745 5.847711116786924 -0.5392824603218132 -0.39193356658978307 -0.45351868639143184
Ni 1.8313823090327106 5.592685353405677 3.5008196131567275 0.10662467653979057 0.07886781814149643 -0.3494941664786497
Ni 4.491809914966521 3.597536374533277 8.686835901210536 -0.8029969120304816 -0.1731522279483792 -0.9209609248424913
Ni 8.345826454042644 4.942747544641981 10.200371109030536 -0.7211083047847904 -1.7196455826508643 -1.2285216843121487
Ni 1.3405951865731516 4.5818490700022565 0.7817140641364607 0.391053735087991 0.7040264096018392 -0.6998280552497753
Ni 9.228395179082167 3.112729881535455 9.024110431541525 -1.476943471527805 -0.375803750907456 -0.7581023655106363
Ni 2.3819574087146553 8.340212172480555 6.538749496412013 -0.8805203003289416 0.9023703063244977 0.5733128104336449
Ni 8.122143585215694 8.88050205487991 4.143574255478095 -0.351850068305336 0.44034512512395135 -0.6933059378605415
Ni 1.6681468436475104 1.8457248293038897 5.455061269684796 -0.34217397866815263 2.4854129209059264 1.6809841615249244
Ni 3.0428307022828127 5.262450197966404 9.666127798714852 -1.3407639641490328 -1.7095524600809204 -0.1155669733347429
Ni 8.405779287819872 8.772859883266138 11.905178386995718 2.233150934008573 -0.31440914985005847 1.184309508571309
Ni 8.34266670340819 5.808088759700605 6.221178987863536 0.4346223637075612 -1.1802757048215675 0.05927472650091726
Ni 7.623690632956023 2.3443426381184023 3.1870563751553314 0.889372608513249 0.3338536317279153 0.23333429675491427
Ni 6.877989483224608 4.799184961467823 7.781268770900924 0.34948773872074645 -0.8728111046101419 -0.7140961351330154
Ni 7.653493034592303 0.6412727650672951 8.215044833217421 1.1662709059020429 0.3855508029918909 0.06438736513713428
Ni 3.1399586891767166 3.991012336149109 2.148193561559169 0.5855278644425981 -0.271303576909836 -0.12895393616461018
P 1.0433954529845446 4.168517052225559 4.9500131393617295 0.5349077282928852 -0.032017947667493246 0.4581201897191852
Ni 3.9552934159335296 0.9949551019537235 5.5631027605091825 -1.8986547836006524 -0.5186701833881003 -0.23618230772667065
P 4.070070212892926 3.9225419137050896 10.883138268951345 0.8453380960008537 -0.9310432487791578 0.7482270153784534
Ni 9.408638345708479 1.3261885554195345 1.951547167726165 -1.4801758624221732 -0.7790985081463292 0.24770316388207658
P 7.41067764670629 4.499869568758755 3.422335070875858 0.21605571218012468 -0.09397176366247043 0.34565936611359177
P 7.983773983519033 8.91799776240878 1.0537768365907907 1.01462929833193 -1.6539603246379126 0.17233615980498707
P 6.2104211817904025 8.213913734077261 5.007505946992827 0.33474966117962346 1.143738786237798 -0.7194861958003351
Ni 6.23824530476859 8.598469124336688 12.567543632385188 -1.699518729994002 0.07641524283594582 0.46184468975862397
Ni 4.896312948361727 3.0513482909496052 6.373469809746783 0.8460145532425881 -1.1258863314374092 0.49867831364720566
Ni 5.73442535577909 0.4751477306236296 6.820340977736161 1.0312825906178948 -0.2991103147094591 -0.711657958005168
Ni 6.899118598336748 3.652882383472444 5.415960042485725 1.2416201693673197 -0.05905695406315635 -0.12189548665593199
Ni 6.378107774156313 4.243618371653188 12.455856064089565 0.5636367207964615 1.562538838201122 0.04275230336586186
Ni 7.19838819755836 0.8266612879441478 10.647364087696547 -0.5516450956522241 2.5103415658268053 -0.25443842572338116
Ni 3.1929051193731954 3.3387299008276727 4.460072280550355 -0.7648646239351344 0.4464772061636182 0.6437111576515495
Ni 4.512948188776152 8.891291000524514 3.236452894204231 1.0321372253087062 -0.2755608095242932 2.1851121854327915
Ni 8.699462081571868 4.695902329859851 12.542490931267828 0.21875742738200388 0.07240792144876562 0.5208489362069739
Ni 5.566335780723567 2.2775665747102507 11.85328887048972 -1.48974216595437 -1.6816099680343815 -0.5587742504978377
Ni 7.574810664445625 6.723637954405847 11.024571454958805 -0.6892189122753614 1.8075166327322354 1.12890274966623
Ni 5.016484218143425 7.597689090778578 1.1524233355287312 -0.1302474581650531 -0.58494396691467 -0.19902395350881852
Ni 4.236868411602193 8.22623218220289 8.286437796030874 0.21634187596197577 0.36880597943338417 -0.17541891249536887
Ni 2.820402575012153 8.684267802434011 1.852218345825132 -0.5770787052339803 -1.7292113719624282 -1.7952054194650502
Ni 5.121635224039598 6.477635339792904 12.03094104159578 0.4256656687349056 -0.28065082245269085 -0.27602283676237627
Ni 8.289106640479803 3.5353671359631864 1.2794031810253685 -0.9648499129159577 0.2855829696469856 -1.0774457194375187
Ni 8.723247218956448 7.996761016561518 6.807808216089238 1.4539266989176574 0.840049851018721 0.19182794998101158
Ni 0.6117414608767527 2.2438442505477463 13.059938106254448 -1.21240061038057 0.9360666701356782 -1.981635852579574
Ni 2.2956092087678637 1.131950899026709 3.3710353744882924 0.3666148853193364 0.26544788946000736 0.0179108188421498
Ni 3.2596903414788385 8.025729976726101 12.753412986880328 -0.4690918582393405 -0.19141245971014775 0.0532945976580824
Ni 6.071117392949641 5.956139104645438 4.982787538333897 0.7018617978503525 -0.7112334688732396 -1.1046310216030588
Ni 4.1731513531560935 5.884875279466611 3.2161709586100256 -0.1327483702100359 2.4125604557205738 -0.32674530281790826
Ni 2.004893833003008 7.1185793076202675 8.443916104173121 0.35574040449867766 0.815008334669061 0.5114998908919063
Ni 6.986886396394671 7.418856363565909 2.636459294599408 0.39030040186173426 1.5185930287477911 0.21423048604592781
Ni 1.793108112217093 5.8584249611120995 6.364273561595895 0.09169350915125499 0.3964569083814333 -1.2493301364170677
P 4.985234742303539 -0.023347351644501607 10.873540869850345 -0.8862124656177125 0.03441087337970203 -0.125260546473423
Ni -0.04076078318447136 3.410323439116183 6.64183063667518 -0.13714007151982832 0.23404289278616466 0.16908294297501206
P 4.360666525590396 1.9493554914165272 2.4096917764574295 -0.8349001884969814 -0.13072259802925876 0.5490765635940995
Ni 6.486537593754327 7.244264113291652 7.004159699863026 -0.23738429845457182 -0.04734172250875717 1.3553192362553883
P 4.241942330012304 4.951127752846405 5.787550380576647 -0.6184642101593026 1.1419415851280592 -0.7575344088223083
P 8.124167657361244 2.8379689568002253 11.450169716285432 -0.2621926157475033 -0.03403420676657364 -0.3111572185716641
P 7.023887534259015 2.6195065455432442 7.698521770807662 0.004381674007463422 0.1209511204647917 -0.4206494464672368
Ni 3.471118873062598 7.209058080135578 10.415140733459074 0.6184284718253608 2.481207624575327 0.6006161262342882
