# total energy = -340897.80177724164 ev
CRYSTAL
PRIMVEC
9.00270393394280 0.00000000000000 0.00000000000000

0.00000000000000 9.00270393394280 0.00000000000000

0.00000000000000 0.00000000000000 13.17636721458823

PRIMCOORD
 96 1
Ni 6.436213134965006 1.9097435969341 11.559034388934018 0.22069963871003928 0.17780489622904216 -0.6587351418642075
Ni 4.655874405151684 0.19537668194344898 6.017067043241353 -0.8260144559715773 0.5556493317156107 -0.15943616391386736
Ni 2.6358656897748896 1.5131744862710768 4.778541648607986 0.6974083900646892 -0.4149153721969371 -0.394602628781514
Ni 3.509353044192139 4.253849655872048 4.652034751900883 -1.3214722057989563 0.6141136465000907 0.059055925621891846
Ni 4.773944867951809 4.622852486924398 2.519531848574012 0.5113944756622936 -0.18172120056431285 -0.3359038293887247
Ni 7.04204109712068 5.863857226236008 2.597509669434826 -0.059596628616710265 0.6621490526417628 -0.9924820728109295
Ni 5.171567294981407 4.418644152368907 11.459052158986198 0.034568996224121115 1.015895052418231 -0.013932550920692132
Ni 5.56558864041588 7.843893935906927 12.345334156310924 0.7216379520360152 0.7934272660641755 0.20437390496682223
Ni 1.7290953387147079 6.525636993675921 0.45025853643512465 0.4256281306287509 -0.06840985603296607 -0.8855856306669908
Ni 2.7604000940382627 1.8188522974731716 0.384287621882853 -0.035622891409932196 -1.05565433459404 0.5366738190543725
Ni 0.49360655613642895 -0.21173009373730556 4.55532050350064 0.1299180998500924 0.43597579241166207 0.4856304793243119
Ni 8.446165829987416 2.4445042138100037 1.6723711014283154 0.46853110063986403 -0.2590594694351603 -0.8453938889394538
Ni 6.797113532428326 0.48016461881223005 4.683130991745177 -0.6151492868534566 0.6545882095753695 -0.5426228375489558
Ni 0.8890890404281234 7.546030471766251 2.492046593299229 -0.47963312409029657 0.24826803524661117 0.09349919490142608
Ni 7.670888973373184 3.9055170331757103 3.790564206766563 -0.022207646445290784 -0.8540965589197743 0.4198513760459737
Ni 7.544707074280042 3.9202364541957793 12.556761759194238 0.36860183384237805 -0.5754771650748154 0.1339768433004983
Ni 7.983858974805406 8.918303637924115 6.599330427708936 0.0840439630257972 -0.105797809763121 1.1411473713615379
Ni 6.7159091424582815 0.8024596210350246 0.5673549066637695 -0.20930579505080085 0.18725035791265815 -1.4929365045219514
Ni 1.9111300133482225 6.49657626520327 9.198646039563716 0.5104483096989403 0.33672066886306523 -0.822054699992881
Ni 0.07719368534347541 4.768885348310661 1.3782878726921208 -0.39433909070748213 0.4710212140515694 -0.14034469450005504
Ni 6.32557890565881 1.7909619205189369 6.9512983422755505 0.3819656567437938 0.458265714158114 0.11843915267621537
Ni 3.214064353391976 4.448100999817021 0.37083938266586264 0.1356560307751341 0.14734195175349463 0.013992457624350094
Ni 5.705769744210067 5.373533956243932 4.742609156181441 0.9020689730339949 0.42303748708343913 0.9283777861318527
Ni 5.233280830817843 2.8431079355742717 9.494284035278607 0.21678847658109118 -1.0285963020349833 -0.8759218823249817
P 0.1552012151274488 5.549221724566042 12.34140717683144 1.0685656433390696 -0.5435780023733735 -0.3092970254344738
P 4.044734847643202 6.272525971058647 12.454974487096864 -0.2831928721482542 -1.0765460904413848 0.43571713943363666
P 2.5246462847094873 8.51701711037148 1.466041729813297 -0.491023111094793 0.5820882426334298 -0.561230168237498
P 6.1428330174102594 7.599146425294328 5.787060560138395 0.9114671264194432 -0.5614307142840783 0.23977593861519997
P 4.675842402596646 1.1413988223904818 12.620535113703085 0.29512330503725304 -0.6938661812393857 0.395688405646525
P 4.130062476039663 6.072134782993989 8.138488518229629 -0.5088426557747171 -0.11643317798978013 0.5419409809905829
P 4.663841798180896 1.0279557494400902 3.937243462299151 0.0036584226881936992 -1.1587578853544496 -1.0560135177056718
P 0.13788181319570028 5.770850291337944 3.3784465260461936 0.3629904011928716 -1.5009246649337507 0.5213351318147731
Ni 1.4119840934480943 1.1608896765240901 2.6257205426510266 0.08644923003318015 -0.3063106891126402 -0.6633885814758188
Ni 1.7645479870187029 6.421412689609046 4.788660687890284 0.6120742474725588 0.6327384606901296 0.10207613793715968
Ni 6.068245614871254 5.623160932417925 9.198764875256355 0.18814972979847597 -0.40051462339057475 0.017332834851492732
Ni 8.668316553590612 2.250838045624239 10.27905514351838 -0.574650555408462 0.7464604103963338 -0.5205553162259551
Ni 2.4212142185935397 5.1405079662234625 6.9764780050590565 -0.10411887939880132 0.030976907997488583 0.040103552889105124
Ni 0.6954606835991072 9.01701828715045 8.908792281160993 0.22717753312489908 0.17248425534707712 0.38228190243263194
Ni 1.4186010808791343 1.0474015900537594 11.34440452424224 0.2534050993628604 0.10965317895346921 0.2725965846896467
Ni 4.0867234590423465 6.801605881718244 1.498337129828767 0.020671412306422464 0.43548728281101773 0.10690081301931266
Ni 5.651465433755598 7.8257084738515506 7.962518065002303 -0.22122800040968352 0.0020563683083964584 0.14739465936830098
Ni 5.172098454516688 2.8093567983239724 4.939898912722299 1.1764175074177416 -0.1767242615703537 0.540589609169011
Ni 0.6489608172316705 7.314760009023403 6.865862681431235 0.344654064777529 -0.37299430648311893 0.32004063710422304
Ni 5.227996243576999 4.242857354302933 7.3576308854133545 -0.19718227231438945 0.5282732536955032 -0.730524970113
Ni 8.338133382133698 7.118194970153564 9.139102155388342 0.04010278155815673 -0.43479514183999957 -0.3105589228660329
Ni 4.642685443809543 0.514565751290449 10.437303773945704 -0.21373657712864483 -0.8208054009668123 0.17607043003643869
Ni 7.8742870645697725 6.915580114203916 4.6040206307226965 -0.07945197277974059 1.117330214337282 0.911434987629927
Ni 7.369316395189531 6.035772861587224 6.956989851736645 -0.9002149505443916 -0.0030135900153431972 -0.00695560538222673
Ni 2.220606965633173 5.296785904747853 2.6559210134485336 0.27897394897090017 0.02981219826542608 -0.6420234855364814
Ni 2.4996457757353387 5.311784409591545 11.214775489792164 -0.759601575763982 -0.34491606018966403 1.1026034496500687
Ni 1.1167854296878097 3.3035872418467567 3.7842263031591443 -0.6259864866782767 0.3389073921017389 0.004392729751056951
Ni 3.609445107128608 2.540932176223435 2.7272710436335217 -0.34936921086501116 0.3167025738699255 -0.49217239420788783
Ni 1.1343677105760024 3.353984378770517 8.033855491401708 -0.2694904349604971 -0.27735363975865784 0.4726168406734635
Ni 3.686256177552602 2.526671893106744 7.031423308037458 -0.43615834073611337 0.11290845266597328 -0.0261288358765679
Ni 3.9568234432022384 6.825084933718451 6.09940667418426 0.346453579880113 0.4032286798876281 -0.47636473775166993
Ni 0.8124499216502971 7.408685219728223 11.252499520312282 0.5515818465144564 -0.4531386773441938 0.28581565448308194
P 0.2788614568336059 5.407681212469695 7.9233581031961275 0.3058594605078345 0.6383799752466232 0.11668771720274743
P 8.504215265300815 1.63022764352058 7.994984516393541 0.11688646347711482 -0.39352893610136097 -0.1821929979944088
P 1.6988732614276303 3.266361060857163 10.464315486990728 1.126802929714408 -0.4086778759276575 -0.7516998044184022
P 3.887610654943957 6.27559589311849 3.8927070856714554 -0.5750030536518743 -1.0427224570237204 -1.1199380842737745
P 6.954606835991071 3.7903724491716226 10.31140365948738 0.4586745195607585 0.8770673087833347 0.3130801466259898
P 6.47803969769237 7.645924475214989 10.065862110383057 -0.8679715171296536 1.0178462626073308 0.6062897795802977
P 2.2696446942547737 8.415844722956473 5.883564145265323 0.2589915923117023 0.019157032544425072 -0.5836877259100657
P 6.805378014689135 3.8990260836004995 1.58271857403611 -0.5240291337071684 0.8512225798060888 0.04895997483847052
Ni 5.136618798100729 3.048657673023946 0.42618260516052475 0.2277696581829432 -0.1546431134005982 0.14120395717655682
Ni 1.511977126640698 1.2097293456579583 6.796765127783997 -0.5409765601947845 -0.42763770485961194 1.4230356657657557
Ni 6.838426941028385 0.7446919703564453 9.196985940948363 -0.01591101480330163 -0.2643891091781898 -0.20010458816750698
Ni 2.693365960145031 1.6777529178722281 9.28835078263905 0.18350837437172268 -0.21937834879545445 -0.6220917796095609
Ni 6.118822805874769 2.059512580475304 2.616589099996191 0.6514054409720136 0.22277066230645504 0.6132595260299116
Ni 4.270045520346118 6.984594842974466 10.341352954843625 -0.15518355928510047 -0.05738419434642375 -0.7125925540042954
Ni 8.109446695435354 7.004679875571269 0.2895431651151422 -0.068289785515334 1.3647775534548108 0.9762488987815187
Ni 7.558976360100721 3.704900777511356 8.087443186618748 0.7681803185719287 0.0481369647165429 0.8149499706272996
Ni 3.0863790027328695 8.39756023115723 12.456819141143965 0.4934260641093308 0.0036082861765486243 -0.16833063819001975
Ni 0.21068397953392204 4.822730520861752 10.05392362462482 -0.8140354292328303 -0.08620703211538702 0.6595650939646706
Ni 8.678390579352971 2.4675241279068336 5.902630071770707 -0.5539668018068653 -0.025285771149982258 -0.8415277211158281
Ni 3.6548727514510966 2.673298932956203 11.409350931080697 -0.8372640607434677 0.14203442349765216 -0.10208385124664354
Ni 0.9916748523692165 3.3285247318929905 12.564272715131267 -0.13083572656835532 0.3691960157829512 0.11809025397722887
Ni 3.085370699886235 8.46386514602745 8.003918799831045 0.18291650642399468 -0.39275580538076227 -0.06334555413618123
Ni 5.586258848771891 7.671537168060308 3.5239140176220225 -0.47650486287396 0.276414158663524 0.30040177982737293
Ni 3.0393398743965627 8.307074053375754 3.6484574245893837 0.6428215559577445 0.29160809279514294 0.23180140505015562
Ni 3.4827050403882214 4.2983320162758165 9.249032373242692 -0.6743713057395677 0.09098876977474653 -0.24360096878824497
Ni 7.26113090136802 6.085989944431227 11.347685109575396 0.09160197787871321 -0.3733547751463312 -0.3154787287651535
Ni 0.6960008458383756 8.908733763585074 0.20315861927051182 -0.21796578471864397 0.41691440490483683 0.5853933957472628
Ni 4.647168790395472 0.25995667872960404 1.6393644877978084 -1.0982081487958506 0.17058960942752555 0.12420973661140546
Ni 6.008575692840051 5.625177538111194 0.30564720200853646 -0.6008963764788684 0.1964939879981132 0.5783046072212814
Ni 7.965943593869665 8.820363221240733 11.20589432230819 -0.09792920564832167 0.35950038576174215 0.588043174665284
Ni 0.1269012151417686 4.9432497191465625 5.692888675344308 -0.08262214297760609 -0.7928611091480603 -0.2007036552040866
Ni 8.009210589235078 9.005314771966296 2.2799464884280245 0.456398321932072 -0.629845969633683 1.0185476595497298
P 8.38054512062027 1.6126813734483385 3.7171849671027224 0.5768485915010452 0.3540347346614806 0.42307553941022624
P 1.7261604572146816 3.327948558837771 1.653304274652533 0.5793693010403699 -0.7744957192669952 -0.4379347159102458
P 4.714563032448217 0.9693121356634968 8.230170255100687 0.3805230107599963 0.689935992947044 -0.19270315349711328
P 8.423163921298562 1.626203434838029 12.580465878794142 0.31433535918932964 -0.2875341798360854 -0.16914953454688933
P 6.368134687409188 7.806253630533893 1.4677423405965944 -0.27612362400629864 -1.0863659047452838 -0.6407705869659869
P 1.9161625248774081 3.3074043883375888 5.802542510186231 -0.540431743434908 -0.23918149956431065 1.3498232461378237
P 6.899042146978308 3.8682368359621897 5.980212673926456 -0.18286251325760766 0.3385788051177266 -0.7870367891567993
P 2.5661757582052536 8.516693013027918 10.198797838007854 -1.0846232110225644 -0.037791359816160726 0.1074397162419182
