# total energy = -340867.3899406126 ev
CRYSTAL
PRIMVEC
9.30262393976607 0.00000000000000 0.00000000000000
0.00000000000000 9.30262393976607 0.00000000000000
0.00000000000000 0.00000000000000 13.61533045948607
PRIMCOORD
 96 1
Ni 6.652668965483478 0.40541950126972315 2.36145612617636 0.86613677791376 0.9478150689208578 1.0765712872523652
Ni 8.145647033062568 2.965053139844765 2.8714454894926273 -0.36173236041605444 -1.437720264361124 -0.798080962786103
Ni 4.258908548463606 5.949576670962775 3.181004244965215 -1.0105939519202918 0.5707021122836752 -0.4508434535521138
Ni 1.6782305146958583 0.6331309831926748 10.923170443524112 0.13408765784674972 -1.0189616071586967 0.9979906613339844
Ni 0.8865642194732573 3.842485903955472 2.146524588606578 0.7487767172343363 1.5350797135489045 0.3246578241612602
Ni 7.461094867451362 4.52987536977611 10.212791403908172 1.1405223361830292 -0.14743733968077832 -0.4971575061273051
Ni 9.541980143671886 0.21702183710112383 7.447095349139319 -1.610134071481582 -0.383073802206308 -0.05971104270738748
Ni 0.8392343309304888 2.6583270332697895 5.951219514297153 0.6125218765329387 -0.20403991866617116 0.756520108625181
Ni 1.528290826906963 2.867319775909405 10.62932474963759 -0.45811324774064976 1.6711525201464834 -1.4415164981787625
Ni 5.038440501413478 8.632667288355535 4.34827327217469 1.7728918435695145 -0.3579189002072352 -0.24540125522177736
Ni 6.440755199021694 0.8009549649246243 8.436794035831857 0.11585802221260048 -0.14416663934930654 -0.9176382882271615
Ni 6.5193065530165715 0.41512492851070554 11.69737943522862 -0.29338241108674634 1.7382871090114516 1.4922315080351267
Ni 8.233389379211276 3.2402991680305093 0.6010239079702778 -0.8244255142179027 0.31484829427000616 -1.5268740378096606
Ni 6.234534638226048 2.64921046210506 9.812105077545198 -0.6309456304557649 -0.04135670856991587 0.3708659472862065
Ni 3.6932532155630255 2.504684901273178 6.40463776274918 0.23742749298768143 -0.7804966740454364 -0.6384699638572682
Ni 2.911637474918358 8.046890380527087 4.362733270356788 -2.176480735010039 -0.3198650307583072 -0.2301139900454037
Ni 3.193609299994 3.5974361920969864 13.11379598000889 -1.020813572765771 -0.031920502857680506 0.6262443683253537
Ni 1.1734794587498563 8.2626089200566 9.42702297207173 0.014911369894193675 -0.6934460629828315 -0.10314468841099012
Ni 6.261995983203888 4.893366085786986 3.530876850233184 0.6704917681795034 -0.23593856714698078 -0.7508153449309198
Ni 5.143467122280623 5.002848663376482 8.23685274599151 -0.34832842830532273 -1.1721325068891426 0.3356639454637767
Ni 2.752069571664671 4.580267682020337 6.290745741555519 -0.6410377245844444 1.5037942731720617 0.34824358190100024
Ni 0.5848624599248847 4.151156258870681 8.307951768190401 -0.18635689956411133 -0.05971309958991652 0.5807602678506256
Ni 2.6315633850647613 8.019410430301972 7.474816237316645 -1.8874208625580462 -0.15360130239964515 0.7127290795821596
Ni 1.6362012611017256 1.6236055086965784 3.5212235176845716 -2.692099790276641 0.6177314457583362 0.4554634688226285
P 6.804831980321731 7.410153700412525 11.840625885310347 0.21989179809676324 -0.541465584016061 0.6693694816496021
P 0.5313212095793712 4.049413464147567 4.381004553443161 -0.24170812264090633 -1.8152564245786544 0.21186918490260287
P 4.968270811315971 4.040157353628275 4.93169010438631 -1.4047985739324387 0.0900102079115611 0.9144611760507606
P 8.798077239253558 0.3020422355735043 2.8220355343045185 0.5439143026668698 0.16558315735186965 -0.549975164148969
P 2.8188251988872244 9.479745591537146 2.5921137490053017 0.9682774505402679 -0.9380803581315973 -1.6303539980728823
P 5.462630836658908 7.763253385820335 1.7945551719707213 -2.245621298561442 -0.19322174500474465 -1.3739635908294532
P 1.2892692151655638 2.6633411474103914 12.71614603000119 -0.7561357287025687 -1.7026860719783903 1.550398346183846
P 4.853039212318511 4.743472911116278 12.321832931092251 0.2550565189233543 1.007537424482155 -0.9665638102832709
Ni 2.8723338900500064 3.2763003215075552 8.427780723789503 -1.5868671305338413 1.4964069795690549 0.6494604014305009
Ni 2.048037712156582 6.837921412600245 2.1022747987501793 1.1270651822368587 0.21966322702572494 1.8481372344670752
Ni 0.7742871337430617 1.6636346982086527 1.4080972084612724 -0.9300510600692176 -1.0923851143561703 -1.2317782435762334
Ni 5.911808018994608 2.366959558320293 3.8330009488946986 -0.5201164289163236 -0.6184392704586381 -0.01721353566480906
Ni 9.00523736503659 6.773305388814312 12.85709194125737 -0.52803902619751 0.4680618743129294 -0.06307533119393008
Ni 0.01744614036972912 4.321673350145681 12.104572946826009 0.38348286471926857 0.006491521261614628 -0.49852559011942527
Ni 8.54104574815 4.992922763955292 6.418347969466097 1.0067126145880145 0.3576707887521711 -0.6297513530373476
Ni 2.2744914793637467 1.0678202594753636 7.881125069406111 1.0750916173830454 0.2478381467980441 0.8084324812237561
Ni 0.22995899579376664 7.481169929261044 3.367642783003967 -1.3303427688157088 1.1050105164296646 -1.3792641771067602
Ni 1.6197263146397494 5.839684777933229 4.2276145225471256 1.19477338421711 -0.5019011914598775 -0.18532563008611952
Ni 7.884987518740392 2.03320933007844 6.881228846682168 1.6309744052657005 -0.8212625431088889 1.7296338042118276
Ni 7.856493582538793 0.5743263083930753 4.961480826322975 2.2393349513320984 -0.6271748505594231 -1.4979794662624977
Ni 4.0605673098889055 2.470395430545428 2.18783381913117 -2.4806208988339216 0.5021526453490514 0.32454135318805394
Ni 0.6294220271484117 6.350361605136305 7.901697821580397 -0.15073349393354685 1.8276648255453363 -0.16029799769353037
Ni 4.412401838482019 7.827394975800757 11.67292655873514 0.943386343725543 1.1901567113807052 0.23639262396526384
Ni 3.0035287912093804 3.4945212667955503 4.118051942394346 -0.27191421391064136 1.5992153676865488 -0.29557299098016193
Ni 5.4027777561753645 5.740779283419547 10.518305378623182 1.108601833325349 2.257186377691222 0.18926276035699663
Ni 8.684520112510846 8.431135249873178 11.17591249486843 -0.23310495435292758 0.23410099971760973 -0.7962346536059836
Ni 5.957576927291007 3.1500172056287705 6.824234462442422 -1.155867708290848 -0.7844795699525844 -0.3547168483301697
Ni 4.731584158107579 0.5222641752059212 1.009248150266701 -0.4990963750212307 -0.8646740773253044 -1.0671805900660845
Ni 6.4810262567483425 8.270609176384832 6.759071444386605 1.6785914929230317 -1.329605119318736 -0.37362782630205976
Ni 3.8279459032100918 1.8063462474312264 10.542854072140127 0.035671999480312765 -0.4561833777077885 -0.806550690820011
Ni 1.7340927696389228 5.909835862783463 0.14931641200518403 -0.4013327484164959 -1.8151949752130998 -0.3126011501070423
Ni 6.744411439796301 7.391064716708417 3.279102271747164 2.253084953928339 -1.2575378690388408 2.0937341506394263
P 7.730229071907282 6.948343555177128 5.364344896879482 0.45337239062155466 0.16054045272163966 -0.3311220917293652
P 1.6760071876465006 8.1036084768448 12.295663720537657 -0.8786390241458287 -0.3648336250491975 0.6748415605077668
P 5.934971551851932 2.390578919735854 1.427254101317934 2.6909276243454108 0.22056645556628465 0.07829806168095547
P 2.017246027916525 0.7522920104146051 5.678260071001501 -1.0546636885459968 -0.9007476831194099 1.3528926290917669
P 0.4228116864223549 2.106244228256292 8.686662506734557 0.3528108895567085 -1.0024263285078348 -0.3193749784957661
P 7.436108020361091 2.7270548167034887 11.723875167872889 0.4429676503484629 0.36520746344884847 0.6762273851117
P 4.402457333813553 0.806517933859837 12.320688708384843 -0.46135900837145705 -1.2721376212298865 0.9801757446397507
P 3.515656827699904 8.677850131362773 9.821458865612684 -0.3013577159827391 -0.3205638565975447 -0.7281613549768298
Ni 5.398898562118536 2.668225024820068 12.850148462974353 1.3369754436408783 -0.6709867055380508 -0.2898003501624428
Ni 5.9952060399046125 8.493602367598854 9.99986086068281 -0.244468716105179 -2.166541621519456 -1.8193339370821375
Ni 0.39934116698499406 8.2509434300152 1.0667597603806909 -0.3016063416584354 0.9811087979769814 -0.5162566888506013
Ni 8.597298713285838 0.6597197420733187 12.860904156424008 1.1191549262508467 1.465538572124973 0.9159932964245708
Ni 8.541789958040997 5.4102849734508105 3.4157326958979173 -0.6636279511801345 0.14979786949315493 -0.474417384217312
Ni 6.951180855386559 8.375375323790125 0.3860030652135759 0.6626378193527233 -0.48476144645579744 -1.3727816547062102
Ni 8.956938143110797 6.3112440727407035 10.328493715661686 0.6949871822177063 -0.5624391009439346 -0.5244356251169677
Ni 4.39586177365458 9.200285474843623 6.9030537319980585 0.3571455123763204 2.4659303867012823 -1.0223063552612135
Ni 3.772679016179826 4.243094088279891 10.36072172499137 -0.8328448486298495 -0.8600293794644414 0.9354496053769695
Ni 0.509601443910584 8.268134678497262 5.366931956513065 0.2411545641302814 0.19935331182377924 1.352067047866678
Ni 8.546925006288888 1.3692159627060632 10.379864663912574 -0.3494941664786497 0.32448427469787344 -0.5144502317694817
Ni 5.045491890130688 4.562360131518188 0.8047234577601673 -0.2440835648516183 -0.6030545604724518 1.3964340040178274
Ni 7.705381764171575 3.214484387436504 5.003892417748608 0.7424363768386053 1.0266846868345674 0.9574507922384092
Ni 2.4421247573111278 0.7364059200288813 13.56353690133702 -0.012089584174682404 0.5822044564963198 -0.6452661608434951
Ni 3.614422782859024 1.2168482901477857 4.456637674402961 2.4513635446307007 -0.31536380045384393 -0.5875163556275366
Ni 4.662716835319317 7.216407957914738 8.121939296722452 1.411251528646634 0.9268698341277585 1.4479820512984483
Ni 4.2897467458218514 6.714531412672717 5.878064612274379 -0.7927148133781832 -0.13682922514762885 -0.2728004731703366
Ni 6.242646526037929 5.369176679596789 6.085562423295451 0.08814821500215787 1.1939074366723892 -0.30231828012379547
Ni 7.24828804912038 6.471630606874489 8.4871705336159 -1.0750085707509358 -1.4739774469209455 -0.5820321925845137
Ni 6.8806762708381015 5.912394084283768 1.176473043036397 0.905094647234196 0.544010976145734 0.6281747525788471
Ni 2.8704547600752357 5.994750211346375 8.929600523027336 -0.3953343647412159 -0.3265280446007796 0.018564650376064803
Ni 2.9627367865590326 6.0602034712596815 11.89410759886458 0.184032879416625 0.15914588636695814 -0.5670925405555459
Ni 7.204900612475176 5.199682876921912 12.46305140922101 -1.6679795217351403 0.10783335213591108 0.4608566148137418
Ni 3.257341574534372 7.809022294116735 0.296385310139553 0.7617875276717074 0.2188114205483909 -0.07709581384273818
P 2.926558883232875 4.502181459207334 1.6594094465525098 1.0234579523671534 0.8189171828051639 0.3571275146541914
P 9.111743103062095 5.692489364117391 1.1776302894168993 -0.632731004490962 0.01303137926266143 0.3438809340569303
P 8.077384380810745 8.293782011865794 8.83249601644987 0.9014303110087314 1.806109982192696 0.33671449821547816
P 7.375557243104738 4.210116287485026 8.078315573436855 0.1474458243212106 -0.12156304301717775 0.19277025928962285
P 5.998954997230516 0.8045513592228739 5.60820852422419 -2.3483985763306845 1.2417512956285455 0.9957275763314205
P 1.5436680637797169 5.164314301852215 10.475580288780966 -0.47673163417278547 -0.6560701934375346 -0.5163435921374527
P 1.8791671852654162 6.654985318769211 6.120581219716379 0.49710274162996965 -0.759765355035356 0.1976756670110402
P 4.587300465490271 2.1837815962746836 8.4249350512188 1.1681256997225946 -1.1060101613387725 -0.2897139610962236
