# total energy = -381160.0739672672 ev
CRYSTAL
PRIMVEC
9.28802390298662 0.00000000000000 0.00000000000000

0.00000000000000 9.28802390298662 0.00000000000000

0.00000000000000 0.00000000000000 13.59396182986243

PRIMCOORD
 96 1
Ni 2.628064864504562 5.725174922743328 8.700352735460841 -0.7241792304006303 1.0925990301391892 0.48685895241477445
Ni 3.425033020812623 5.130592801513847 3.1178158493356305 0.4448787513282467 -0.20752093523623616 1.1387140793296968
Ni 2.5330483826847425 5.806324385271164 13.251801039834428 -0.9216322398779031 0.4887718531667712 -1.9293378145068063
Ni 5.748766502784614 0.7327702657224878 12.205950073312088 -1.2237846838477957 -0.14734298019475914 1.1708618677068352
Ni 5.145620823760618 7.142053640742517 8.368878032647698 -0.07029138932639507 0.3191762322213987 -0.2839060961651949
Ni 8.583499181265013 3.67106347896758 10.51199289173983 0.6882370079780663 0.12208523406923491 -0.06585726481444142
Ni 0.9154749787115081 6.715092482113455 3.23204553685364 0.6120269391743911 0.19402932850770455 1.351179760165718
Ni 9.626572099917137 1.5540999792314487 7.56520299447042 0.05452589896202222 0.2564824527366035 -0.23032713449747433
Ni 0.4962108052715066 6.248294990099721 1.013640100544712 -0.4969939839662473 -1.033371869046756 -0.7173994884746355
Ni 8.437463585600005 0.4298162970954753 9.327836751626641 0.4849321677057068 1.0886500727937702 0.5921618248193479
Ni 0.5335839547873025 1.4702477018248665 11.167275962655065 1.9406691803592255 -0.23526082435366583 -1.785577152346667
Ni 5.604532783705436 6.176675039824781 10.545909967659815 1.1960039141901015 -0.8706665474633133 -1.2752468562828294
Ni 8.025186792343098 5.722397803675476 3.142910231601592 -0.41915512130989746 -1.0450076535134711 0.5067106970333789
Ni 4.399838965723235 0.5146846842880874 8.121997720329837 -0.20487861251738262 0.21271173540855623 1.9739148297862328
Ni 1.2417251682281074 6.499944702555849 5.561234803910768 1.9219744321632 1.17380295261303 0.985819316078773
Ni 4.115096025043839 4.469647751388705 11.671449390591686 -0.8221338899702485 -0.6498188132111841 -0.19053982729720734
Ni 2.7773977085611667 6.83593895767139 1.6806762365718517 0.7066183386987314 1.0538195953781464 0.9468041111578405
Ni 9.43477441178622 0.0900260267189607 13.10784131745258 -1.37623310358992 -0.6368008036849613 -0.9967853281719737
Ni 8.869681765608345 6.788616477234247 12.414780139190922 0.6045691973447652 -0.580607030102213 0.1680789271905299
Ni 2.0948580034769746 8.587957432611397 11.340952716667656 -2.610783767704968 1.653235016436114 -1.079902151397811
Ni 2.815107084532669 1.3102057665133011 3.948284978104679 -1.68179071658662 -1.6162859500155908 -0.02346260189831443
Ni 6.158990642817456 3.4088161315401497 10.7286258262772 -0.4689620175296956 1.255892620125934 0.09134409623163624
Ni 0.4250403953406609 7.246516042602489 9.968452175612269 -0.665814417308492 2.1507095395832057 -1.3878712020494808
Ni 4.078993477161762 8.948992199455796 2.024874602967104 0.37430145533031667 0.09795928755530871 0.18547758228295155
P 4.442498858293951 5.021254187243767 9.119685640275765 1.8147087796053003 -0.17348261470460444 1.025004470918667
Ni 5.0812641079708305 3.3605741367628137 4.151922109967339 0.07916349500504431 2.5217981444031796 0.8794756611145111
P 1.3891446794152218 0.29921089510077725 9.1431629776263 -0.3732102791486669 -0.010164342127511525 0.094354858033502
Ni 5.120310959346249 3.202529126533483 8.324411619479331 -0.7155842896427677 -0.5196389750592728 -0.24482378545175257
P 9.559233928539452 2.3098757507036445 13.09628608724417 0.14169143833593661 0.43703791512758927 0.5684215437796146
P 8.167730091120104 5.749035855470123 10.465501689418314 -0.49715184970035026 0.6927058423826973 0.061820632851222565
P 4.178709698942563 0.6469749337707732 6.118342536166795 -1.0367767809632464 0.8716047430068666 -2.013202828752578
Ni 0.4650884956642874 5.838089426114155 7.930227896269835 -1.4387394496542576 -0.9957296332139496 0.3535889053733136
Ni 6.646286803000921 0.3656481281855447 7.635932223278446 0.6182184126970837 0.24786000117491505 -0.3552485524639237
Ni 7.623498346033852 1.6602528013935915 11.5343135791769 0.09134872421732654 0.22491419101201912 0.1381093774116331
Ni 1.8660754052183433 2.71888315963987 2.261899393402364 -1.0234736360964374 -1.1364872468817073 0.34849760689333525
Ni -0.0619483312603766 8.3255243247112 5.05443843809869 3.356994266874025 0.9474839108336842 -0.23996902846261253
Ni 2.906157580258934 2.3988921692531218 7.5805635279634425 -0.6689501347239962 -0.8451617183239897 -0.44639030287676673
Ni 7.980864343541125 0.7650572934939499 5.770690882582823 -0.28560790934765 0.8142269764183461 -0.2426031236513499
Ni 1.1521050281421403 3.6632150989932155 8.821747204413436 -0.19382569713733072 -0.31251218993766183 0.24417920988921818
Ni 3.770919021102955 8.04441300127438 13.455398233195442 0.18560922276480937 0.3825629240081605 0.7398408481972871
Ni 7.912653097941441 1.202371812072626 3.2348189407120365 -0.7208033719498619 -1.7329227593757446 2.7388465595138767
Ni 4.0109308399402925 2.8885474874407158 2.1336810134827093 1.828054090563955 0.18742519292762558 -1.1921333754911017
Ni 2.113833435770024 4.536289320993515 6.773979480782648 -1.9357637726378083 0.18330679988387788 -0.6921898219782272
Ni 2.0273154955792494 3.5800222712649528 11.1227426757165 -1.7452892513608973 -0.17215515414243254 0.08646902752752206
Ni 2.647244633317654 3.6192455950894984 0.21212267025861115 0.391015682761204 -0.15009945989397377 0.3497314793004364
Ni 5.930542413409803 4.737124256124499 1.980871662178289 -1.009426413974752 -0.2588206139514768 0.7223712306576139
Ni 6.118801364534527 5.422719720985692 5.714860572492995 -1.8669186288396362 0.01844843651317468 -0.3802630722303903
Ni 3.913202255218089 9.607810292167768 10.780596033742949 1.841848573244886 0.48095132868108775 -0.9791208210126751
Ni 4.899497485369278 1.3207383853191343 3.584700648771565 2.848425690696301 -2.709157774200192 0.34822481284792284
Ni 7.340139320876563 7.815249594046578 4.342034021807904 0.65294578887594 0.15024601277416702 -0.4905276595156133
Ni 5.361567373351118 8.397998773160863 5.154829899197995 -0.6122022884099908 1.9392715286807505 1.0212452609865508
Ni 5.263216491045148 7.725657318031526 12.068895996505319 2.5013550460574794 0.2504799552962654 -1.2478725780349347
Ni 7.2960583606891865 3.1355531880776937 8.004056538565962 2.826568999832525 -1.0982282034005086 -0.07743905611476987
Ni 1.8356013996610774 0.3419673831173323 6.088042216651566 1.1291480329078165 0.36153798501706125 -0.44729635963080383
Ni 3.8069937049141163 7.326086541111814 6.557496083425855 -0.32673527551557924 3.937236457437652 3.006591986758809
Ni 3.013099884430333 8.312613971853962 4.053107755281817 -0.28138281552270894 -1.9331049948587224 0.5517803356785078
P 3.3619766283321972 6.028651807101178 5.308673007533358 -0.8084504789458851 -4.668212141934825 -4.076306913210973
Ni 4.153390546504554 3.9927820417510524 6.319071587828303 1.5741031459999535 0.3266000354892956 -1.1113426292952795
P 6.707541318895517 7.332625309753179 6.516169951049598 -0.3713855672351023 0.6147793051085476 1.4299236511348405
Ni 2.4785462599751917 3.2828519549575104 4.577875518031645 2.1537156733993807 2.9277182550800416 0.4135300618136362
P 6.066676975876382 1.6165898022699383 9.679784116143328 0.04451685146545236 -1.6359844568857824 -0.4071236440666601
P 4.345531891510088 5.181361138720801 0.4782356931243026 0.8093580783618192 -0.9378841829603912 0.4581669837967206
P 1.7309532373283392 7.859349130281231 13.215641835008158 -2.4851131302773197 -1.8826648359302998 1.34264626877341
Ni 7.953641146257264 4.514536769632614 0.8952995337643905 -0.29032511231766134 -0.5297151283483522 0.10374941187452455
Ni 0.4688371420047057 4.513264310394167 13.10505491036109 0.28402128158682055 -1.3381884901123728 -1.6912174092171584
Ni 2.9942080443500285 8.131701847427133 8.962376241518589 -1.1722296945886392 -0.1808187433547015 0.46899929852553424
Ni 0.5408369724464517 4.580769666197339 4.60650399329198 -0.6430496128081507 0.5046738691090082 -0.15953695115778976
Ni 2.2845751743129123 0.4166217307149048 0.4754502148351761 -0.23021297751711317 1.6893901262004325 1.754791791534694
Ni 9.322667966471926 1.3954048073474368 1.6088315161248654 0.8294761892679327 -0.44662890125013405 -2.1848522469031857
Ni 6.529276281205604 2.495190398335027 2.0463122903266666 -0.19156261213476686 0.7257856556558017 -0.26614080176197386
Ni 6.24518350218089 8.583982158494203 9.749058840449596 -3.072016792021522 1.8773683634180505 0.8308859251312658
Ni 5.990236541333164 5.289483021894263 12.635084629472512 1.5733158742119677 1.1213766164925139 1.3052562581607263
Ni 8.92121172075364 3.2021018774461214 2.9005030314679368 -0.8531349663374534 2.0134871927622164 -0.23811166353889962
Ni 5.509748502476573 6.959460384037157 3.4511537296906174 -2.3608866814953666 -1.869168858326394 -0.3187322027054446
Ni 5.945505419491106 2.2398347644472163 6.264382775843622 -0.9426551219864733 -0.6082289055845396 -0.8008592968621885
Ni 0.5759865691032382 2.3331979780594185 5.044664650824105 -1.2478504665477477 -2.562024596023394 -0.08440674568185463
Ni 7.728220812555697 8.397720132451713 11.25528370183742 0.9844967406126076 0.3841117565525191 0.7626912704328994
Ni 6.376636900733765 0.1660540730126379 1.5872582236201833 -0.4168023048070048 0.5158926206429632 0.9319297651491693
Ni 7.801168950210914 7.769682550077073 8.404534755395137 0.5209078144693674 -2.8247962242028186 -1.3076959779504704
Ni 9.193425117544967 8.260573175408561 1.6714588019132017 -0.40069999992850347 1.7292964754770668 -0.09171356375591302
Ni 5.608405889562608 6.896348263414901 1.2210221635383343 -2.342242069810985 0.4598775387299241 -2.5548244787305294
Ni 3.2476503453683496 6.766418100738707 11.20949931811478 1.458027094239276 -0.8075809318567382 -0.9663689206636453
Ni 7.312312402056214 3.6667259719284937 4.805451602019661 1.6751986651913988 -0.6432519586269437 -0.21130354220711997
Ni 2.777425572632082 1.9379925722497082 12.336737520570097 1.1246483452652503 -1.9659996887042142 0.008920442418081412
Ni 6.158136144642732 3.08156190666825 13.247791400029774 -0.308059810593263 -0.8735153297660182 0.394818601447062
Ni 3.5424150635534724 2.5317387713517423 9.914524981565929 0.4466391856627792 -0.3817573973877296 0.16783981459653033
Ni 7.0661704876175975 8.2155262607628 13.47751580388533 1.3901407148099476 -0.49937431127296583 -0.41371852367535844
Ni 6.52902550456737 5.316418290445337 8.201766982545022 0.708972954973837 0.0867310229396571 0.046713087785822775
P -0.29301485453166665 3.533814353664405 6.530933264622678 -0.3217779315103039 0.9949068802023383 1.0729786848051004
Ni 1.337651876364481 5.582074342548024 10.953361632636623 -0.7306013318768901 -0.8090397757904517 0.43224589305558464
P 7.303804572403529 7.435935996682002 2.189892132541708 0.7705380201708278 0.7870357607155348 -0.1523895414797311
Ni 0.7290281209986164 8.01576873637386 7.437038485087868 0.12994201110949233 1.2872557078182474 0.6210949629139303
P 4.4374275973874395 1.3561443314283381 0.5521692900875428 0.44404057169766753 0.01741999524866032 -0.5658841220697416
P 1.380172448580623 4.70339015427019 2.242119618262238 -0.7556449051090793 1.2390698921416403 0.42431455402364987
P 1.2079260502083298 -0.00970969991147993 3.1083680716907507 0.03542903023157125 -0.11662652494750882 0.812381438569175
Ni 8.326137334271328 6.044497175428119 5.980337365739462 0.0698563586715055 -0.4599901530483884 -0.04253504514873319
