# total energy = -340888.5207310897 ev
CRYSTAL
PRIMVEC
9.09684068408712 0.00000000000000 0.00000000000000
0.00000000000000 9.09684068408712 0.00000000000000
0.00000000000000 0.00000000000000 13.31414586391376
PRIMCOORD
 96 1
Ni 6.733071891279976 2.2657136460248712 11.389865469655279 1.3048091433209787 -0.23980422074997412 -0.1454280225602334
Ni 4.906399052503378 0.674265996104024 5.746930729280358 -0.011312596799341807 -0.5429755929026843 0.8044560130745114
Ni 2.9979547155531328 1.8386260870356004 4.561293128700526 0.27584414509266686 -0.9573536045389125 0.9523749203773985
Ni 3.4624757727051083 4.336491099551902 4.451012132776717 -0.314913857400619 -0.3270252959521723 0.7799233180404697
Ni 3.918991610322897 2.625175293631018 2.575301866248994 0.004587362260366293 0.7501854246564048 -0.9952406093926731
Ni 5.185471921673602 4.692514141494501 2.5935419408944473 0.0835467116744045 0.45464200136259764 0.1476358288448296
Ni 5.6623737785824275 2.9681170791075253 0.3426233960632152 -0.47686430309590777 -0.41554812068492947 0.04083348907659419
Ni 5.84031707325088 8.24414804676162 12.753074304132031 0.3639787332480699 -0.8611344396031622 -0.22819800396961343
Ni 1.7884297218200942 6.748227227352652 0.33735359643122115 1.5696440817873354 -0.17860322376062143 0.13692795550902226
Ni 0.8894208260299146 0.16582994201876525 0.2686697225119324 -0.4967263321271574 -0.35775280694301614 0.6041485648675788
Ni 8.404625407900935 0.10809047676036361 6.981991463643414 -1.1439573300065073 0.5311343772933821 -1.3122080068882112
Ni 8.922945179058802 2.6803203400131133 1.165348917480856 0.614076108393936 -0.7988792903176822 -0.006112026435008829
Ni 7.2402389361322586 1.0618195964869033 4.512576819414806 -1.2112400144135655 -0.9363474346008905 2.285586268990154
Ni 0.7358597926313293 7.4030814757703105 2.3896362637821658 0.2097176857772388 -0.450761692471585 0.843209222583309
Ni 7.598745415498531 4.266454525468143 3.857480595043047 0.7742242107731634 -0.2754132282028353 -0.7432958966254231
Ni 7.527326121677049 4.3353448976640525 12.796385270864096 2.2809994209504203 -0.9024189001742459 -1.6724046473860295
Ni 8.671872384577474 7.624507667454007 8.724013654266171 0.5330912439094367 -1.1116257077533371 0.5828510889413834
Ni 7.120570000936538 1.1358769740185153 0.555278414252748 -0.1948842203088321 -1.6990227641941902 -1.249850784807228
Ni 2.2422892820469933 6.897460893782586 9.098354093997452 -0.3314517071546421 -0.512441428869569 -0.10994294227974613
Ni 0.4679514756591826 4.979410293391317 1.2361705488893882 -0.7105194735253505 -0.09542906493428727 -0.14714449103070787
Ni 6.769541124362426 2.186798555730468 6.943167058586645 -1.084178410175662 0.5587143437941797 -0.6798120171391647
Ni 3.989846900040834 4.418653761861878 0.17312651768736934 -1.7672521287852336 1.3939855424773346 0.22046489699141383
Ni 5.959549360108371 5.875367199234089 5.0089677471532275 0.0791372697527992 -0.29083830450865394 -1.0165558259306815
Ni 5.821513904185919 3.245061287628886 9.185322617080056 0.43859291831953495 -0.6901241976984502 0.29640808528694756
P 0.19561026836997986 5.9223887671570585 12.388119984304584 -0.3442848543635683 -0.8178766573557914 -0.3057414468727315
P 4.479438849279424 6.372464041785978 12.285641348374494 0.468379148443032 0.3591887680585943 0.6394490399410858
P 2.808531208325426 8.555223600387833 1.1876097955741625 -1.6381094736485853 1.2788577135625396 -0.21160924637299683
P 6.718098492014893 8.278370360270271 5.673943140177405 0.02911825752219501 -0.1714992657259885 0.444779249635905
P 5.1607376126810385 1.167606753263112 12.48619211075472 -0.6392628920722087 0.4155458066920843 0.6690077274348091
P 4.1630143535099124 6.515566437799955 8.03715035360426 0.22302545862973847 -0.4544106020780819 0.1657235395844759
P 5.230592249957202 1.164941379031843 3.61917066761452 -1.0884837224192352 0.6367118435155807 1.6243437873230604
P 0.481222856089212 5.207695502721351 3.479385889287041 0.0695902494943124 2.9277917886304543 -0.317693219917969
Ni 0.5617098804012371 -0.10724083186889419 4.517928490610219 0.28108251067347073 1.1897394213376284 -0.06983064763989263
Ni 1.8184947792751953 6.771697075532429 4.626412860559025 0.9586291288172264 -1.056070339085536 -0.7091184794127657
Ni 6.136673939142645 5.8902405332549925 9.056268471664538 0.2678708970792032 0.49791058224324575 1.1756857714580398
Ni 9.172708028525445 2.8320010565052027 10.176573474320984 -2.729743568771344 -0.7874733624735857 0.080304550588023
Ni 2.6260394934670956 5.400475744049188 6.797230996794373 -0.34293785341737065 -0.3148094706122707 0.12643759750065967
Ni 0.9336815028976283 0.528412715559208 8.699755110025471 0.34999116071972625 -0.6186045923919088 1.163155757311829
Ni 1.4884250229360465 1.3068520889560717 11.483556557778524 0.5808296876359803 -0.2251805572995283 -0.8063398603607855
Ni 4.234888489350382 7.021441731318312 1.5187311466612112 1.1094089026076766 -0.2258827255728755 0.058698028061840844
Ni 5.76616872731547 8.045336600262004 7.889230270925162 -0.27026819366678617 1.487140980886097 -0.37125135565008316
Ni 5.474705961548016 3.0338053634897597 4.846588236690505 0.1941565981141882 0.1487905112745631 -0.1956825478404114
Ni 1.0970971434796057 7.674121834885208 6.702407352043849 -0.7750564768664715 -0.5706882283266043 1.3049204720878622
Ni 5.308815980382744 4.783946484151452 7.112829499457402 1.171805719677343 0.43593979696740404 -0.9874141713697189
Ni 1.2241436162233095 7.730467664197431 11.637095758760198 -0.5908348784778082 -0.6380372471952237 -0.4828660292052974
Ni 4.927321785376821 0.8827355580348302 10.303524430240701 0.014024853524182299 -0.9153160678518881 -0.7597936371701303
Ni 8.452492981979223 7.021723733370084 4.642668914317654 -0.6467080354963443 -0.3676261001926701 0.022553716930799866
Ni 7.331716762991107 6.671067827251543 6.883293474575152 1.3457444480827596 -1.7165324909431792 0.051589699151833736
Ni 2.602314933756686 5.412474476510089 2.363140806492082 -0.59709680022712 -0.4658005890825784 0.08192408846931698
Ni 3.090087514919324 5.4611061851802765 10.94477344418639 -1.0700872221899185 -0.16587780577415304 0.6478094960906392
Ni 1.3574760056694264 3.2328442309988703 3.33098640311993 -0.435191863057786 1.4443593669441963 0.7119191820863545
Ni 1.7963166824293446 1.1753754549474256 2.524868073499576 -1.0624137648050607 -0.7369938656667951 -1.7322851257917455
Ni 1.0072476510487334 3.4999456582293327 7.688146433698681 0.6675509403836245 0.639369335743086 1.4118261702031814
Ni 3.852439126104585 3.080335702032223 6.8099856766908315 -0.23542743183851714 -0.8559981468178613 -0.3744770616762325
Ni 4.119340422846693 7.267038227891026 5.858450714863889 0.17103672426727318 0.1291673377269969 -0.06730736699740666
Ni 8.291078646280793 7.323429541405147 0.4546955598577989 0.247415971658961 0.35590778331447737 -0.4172321932555717
P 0.6637818875663527 5.814409271849327 7.873520027589319 -0.5522613890799843 0.09492178628056555 -1.2267211407683003
P 8.613770865071958 2.016396541736836 8.144608599958229 0.8925162963485532 0.8825877243809317 -1.7785482705243436
P 1.9579584391372693 3.5289190948388627 10.212229449873483 3.2061784976393173 1.081783170470608 -0.256465483455739
P 4.013471394507066 6.290301379476002 3.843341376040789 0.418622388734879 0.8237398010047877 -0.7760638350850634
P 7.371069694473942 4.267910019928904 10.415029860879624 -0.12936839799420946 0.8405244766622942 -0.05394842919199741
P 6.856943566731144 8.128700045502107 9.73992331672451 -0.898769990567749 -0.7538052807971792 1.4784933325134277
P 2.50959993660619 8.769918130190508 5.606187143976851 1.070730255090556 0.7751526361247038 -0.8306005326803632
P 7.114866282018429 4.210408891888453 1.5779388419569058 0.3230048619388695 0.6422240315830616 0.561288275168943
Ni 2.9748396441481666 1.6128879930118991 0.17831535543998345 0.592857565334792 0.012344894718598095 0.8283665011435218
Ni 2.0036700620455545 1.3327053093153447 6.805711981080421 -0.6188987265935599 0.42637529320742046 -0.8978227961631311
Ni 7.0361513222123815 1.127080329371289 9.028454882203429 -1.1492327194728338 -1.505936002105413 1.809743208069909
Ni 2.8985444438831345 2.004279550350998 8.94988820089557 0.10369644714940206 -0.05505220377913744 0.8555183789679652
Ni 6.702642960209683 2.319439585307723 2.5257868543779316 0.2446543497534238 0.2980651612743963 0.24961966417849912
Ni 4.518891846006435 7.500508636237521 10.234530354064463 0.1531981534239555 -0.25488168390838684 -0.09560775660399663
Ni 7.247125244299736 6.544467099686448 11.41970219641685 0.44443189359881524 -0.4758916547699933 -0.6101353785786331
Ni 7.817287908781844 4.337482655153296 8.163395394710506 0.5147155696157265 0.19874601725708352 -0.6878811673005444
Ni 3.5043576258135154 8.640324542140473 12.27657361788395 -0.5419546078373376 -0.3389837538656291 -0.3593224654229812
Ni 0.4993783301191335 5.294097292648295 9.90388658709735 -0.5120639909254923 -0.3389045638882615 1.7303992216229422
Ni 8.841946912317434 2.4525354569039663 5.724549772894037 0.877763820629727 0.00749168039135484 -0.5018507978379163
Ni 3.695682372680591 2.533533723645334 11.395963081761833 0.3323690767625889 1.3313341861947008 -0.3674116701890188
Ni 1.6470375317975117 3.695864309488186 12.356752259307102 -0.975269822697701 0.640423230928897 0.9578171744388925
Ni 3.4066484632945317 8.624723460889186 7.830847659051911 -0.3731053781396864 1.2428818096885628 0.47574972987549036
Ni 5.582612682132708 8.00291803357119 3.8199079152225317 0.018268459291884667 0.6802609317511252 -0.7297580100399883
Ni 3.070329177614489 8.600034636098522 3.3772665785519504 1.0051090175463204 -1.2300748877318815 1.0030536776791887
Ni 3.9941133181789406 4.426386076184673 8.958835853093099 -2.575494605485371 0.679318622442514 0.5661574303357862
Ni 5.392261297186266 4.471651953914351 11.440925125022824 -0.05579473837211681 0.4391914711354823 -0.24791733677541175
Ni 7.975773061877992 8.997793981703452 2.5468760594303252 1.7861628496468078 -0.07774887404570481 0.4000806211769497
Ni 4.80470547389806 0.5306050540907297 1.7155012621796104 0.2454156533994806 -1.1919883652728054 -1.9731540403608085
Ni 6.178510308049153 5.830119515185171 0.408858400552273 -1.3384399440015464 1.618923644748754 0.19165954272394736
Ni 8.49932351625422 -0.08877242652990895 10.885911428825128 -0.41380645540347444 0.5013406909707173 0.12946507147307382
Ni 0.2618061564454048 4.877489293776506 5.671639820193249 -0.4324551808529133 0.6153475189071919 0.6572624139734229
Ni 7.153773468322656 6.411780585907294 2.7047953890548526 0.42334396258026447 -0.8772213178626957 -0.28728066906438265
P 8.793979272994969 1.7905401887881982 3.3684653854845346 1.264912564236357 0.14128623247771796 -0.579535394304589
P 2.2499215311256107 3.3651122901205555 1.2514887184048629 -0.38501215687960144 0.44099715688565344 -0.1741045645593195
P 4.871121505510675 1.5471724181085256 8.097902692396437 0.2387449262475243 -0.8505756902507093 -0.6638302969989277
P 8.65174107681707 1.5623095605004433 12.393538972118806 0.030881005849572624 0.6910747345371776 0.12925784055827416
P 6.515466372555778 8.036994797633765 1.5196635728001366 -2.0627562142006735 -0.556375668358674 -1.2290536455562187
P 1.9199063558287404 3.33671195445495 5.751936720541338 0.430043228977311 -0.1329928821206742 -0.5233858436962148
P 7.094371100642834 4.170710280471188 5.895756857261278 0.0686343133389463 0.049427144282876166 1.3137879497808211
P 2.2672237215279107 8.784745980009514 10.171394643092787 1.8557276452198233 0.5977637443871576 -0.4474321138777197
