# total energy = -340884.1821530803 ev
CRYSTAL
PRIMVEC
9.15857707001501 0.00000000000000 0.00000000000000

0.00000000000000 9.15857707001501 0.00000000000000

0.00000000000000 0.00000000000000 13.40450330512972

PRIMCOORD
 96 1
Ni 6.760202004848233 2.0698566827158844 11.46873168129396 0.38088810740889883 1.981971381542122 1.1113729683125828
Ni 4.893427604955253 0.22069331022617675 5.79362687001109 0.6988302101128803 2.782913467926104 -0.17133085846892426
Ni 2.2816854064198147 1.9324963472879995 4.871866483361419 0.2035591223750107 0.2589005752597928 0.4607334589723162
Ni 3.5146221790319823 4.06869776062394 4.847497342108817 -0.6925068389980138 1.0676477595104903 -0.15785082170461845
Ni 3.719646080144706 2.4311167461211998 2.7319585939788276 -0.03473714637086921 0.2594124818992048 0.2002513981580164
Ni 5.085895097222022 4.509582491065529 2.400049021768721 -0.3247197877474472 1.2936731813088171 -1.2311035861067121
Ni 5.557094716999941 3.4022006483360707 0.14762252077572757 -0.5956724090757676 -0.48644860435023324 -0.9374864333013403
Ni 6.061393433473181 8.21137850495147 12.519001554714528 -0.9235731656543578 0.35494156274646615 -0.8592143397623139
Ni 1.962014440439358 6.721049088862488 0.26725917830522317 0.3809701255997439 0.27788045879640527 -1.214312482691302
Ni 0.6851439747316068 0.17916740698150596 0.06554976615045056 -0.4353384159379793 -0.3931126744995488 1.1083166979847623
Ni 8.158744163859055 9.391296276243994 7.169934752030427 0.12569274891483515 -1.0830787493535798 -0.3082099630178821
Ni 8.900021056035488 2.6489260205008476 1.0955755213265987 0.17732204305535268 -0.7593151548718149 0.3470449336072088
Ni 7.27933761580028 1.008560798639121 4.5606946766873415 -0.2758521155124668 0.10210570562351447 0.06522888720182314
Ni 0.6436043336216778 7.484718701409715 1.98952314183229 0.19585224064905624 0.8700230003420436 1.5205591513352263
Ni 8.036065027103719 4.0061263636614575 3.648129501183796 0.779829729885399 -0.3801663987515259 -0.6206972132548795
Ni 8.059062213545873 4.30944011140787 12.743245645181098 -0.5914036064970847 -1.4703349650723514 0.5799814807030721
Ni 8.618788637047352 7.258538487799432 9.30856959923243 -1.2314252311121887 0.5320697446234578 0.9621643956639946
Ni 7.3049175209109665 0.8776508488787825 0.2384270625590887 -0.7538711010381082 -0.2615945771521882 -0.004205296330599209
Ni 2.093540762420946 6.840275442149606 9.208826286454427 0.07979881459619806 0.03412676648037994 0.2207366625955618
Ni 0.4918055018074708 4.796575654885252 1.635577117890417 -0.5487173804824679 1.2797812538180733 -1.0282337764892422
Ni 6.863400848667502 2.0836403408582345 6.747196825737179 -0.46706814294109245 1.0523363259644005 0.3369317564326068
Ni 3.836546154914777 5.152661122376661 0.18562511951052324 0.41582914226045803 -2.18557318422961 0.30894864095611957
Ni 6.433808643468118 5.693685731973369 4.250808734201427 -1.8505185902150583 1.0476479193497958 1.7800989028409149
Ni 5.577271061775755 3.1868183968186967 8.56955212796212 0.8044135898723501 0.5050086267406076 1.6969730807540129
P 0.42876793328389506 5.762136935266343 12.379112536221458 -0.2589113738930703 1.5461418849003372 -0.5508552527610772
P 3.8758547667067815 6.918324833969611 12.524283305977448 1.3486397673526838 0.35210306485640647 -0.7177363029887639
P 2.7008826269071946 8.5339252640593 1.5225776809959788 -0.867310486506887 0.11728472735679801 -1.3579088513594355
P 6.8915268381393675 8.181942838991661 5.739164476981655 0.6740419474246069 -0.3722016353784945 0.04330020544953188
P 5.076589983153831 1.3523279802823842 12.535663753557303 -0.41888438414701407 -0.2692924600170782 1.2930684578452827
P 4.15483417579258 6.708913974551116 8.034672923424226 -0.4072527134453567 -0.5749094654968033 0.604704694481365
P 5.2058175023488875 1.2119819488050598 3.740500159606587 0.6390901139397703 0.06897112785307476 -0.35779008793885475
P 0.460866913388419 5.824983089533989 3.680407073536676 0.12169956859504201 -0.5119945711401376 -1.0610158560162695
Ni 0.530325560133657 0.15617296811240403 5.15474195103443 -0.35511254110669166 0.7430429000743527 -0.24669966231822674
Ni 1.8633948850394737 6.960738203309959 4.997399432659715 0.10950919717643721 0.27872069530951354 -1.3539172137015392
Ni 6.030226796490843 5.7379949267193435 9.18460459828893 1.057192111394805 0.6088799089049771 -0.2619437329614908
Ni 8.830956228094317 2.690945571037128 10.32186904552793 0.7123066473327604 0.03426714871298615 0.10279578971200361
Ni 2.4417132195236575 5.628229383306675 6.95197710870599 0.4630510513618993 -0.2925719993703091 0.5767524322428131
Ni 0.4996040299856841 0.14049897971053163 9.082448916371597 0.4409678463096147 1.020041470486437 0.6826816253774759
Ni 1.591192822814366 1.3760120599874452 11.501184182464462 -0.457461987309896 0.9491093622522493 -0.08053029344558388
Ni 4.485779349861564 7.00580755993355 1.4271370676168318 0.19535576062861193 1.6599803055797475 0.5033235257287009
Ni 5.917622094258156 8.163909601196123 7.75268217427384 -0.4697922267404748 0.42986350886633706 1.069964580569125
Ni 5.575769055174196 3.4632975144275107 4.369814365786731 1.1297548132538802 -2.482711205704047 0.22821600169174247
Ni 0.8470822669640171 7.733960211500025 7.079829925517547 -0.04400545904667259 -0.10398672469631123 0.14968319829216156
Ni 5.227440902265225 5.201421385466277 6.902715871463294 -0.04945311242480515 -1.048978208125445 -0.9364505358376581
Ni 1.0156770128428458 7.8670526501210425 11.6556170209775 -0.2892038542290245 -1.1216229281753651 -0.3756374005329208
Ni 5.166866075053594 0.5002368876452432 10.393851796049931 -2.942002790023514 -1.1839189580011094 1.262361001459097
Ni 8.573902451960537 7.603697773122188 4.162272771901029 -1.2489344436405456 0.12496975470588155 0.8685495011203106
Ni 7.397098596793195 6.393675759760624 7.211555904474221 0.5861127904117905 0.07178571448373443 -1.0773091938596542
Ni 2.570583554222002 5.911229407624694 2.400666309847655 0.01170751824491532 -0.5988654620917686 1.3032808796019102
Ni 2.659220260867626 5.567682031825561 11.245761548865666 0.3935533615813932 0.20691569755206943 1.1703306777937135
Ni 1.4512955616021415 3.8426366085125596 3.539673634259072 0.3221877653542129 -0.767513117301575 0.26704274475095297
Ni 1.7374461363526972 0.9951251664166443 2.6536490985766017 -0.17506487159005982 -0.41643720815810215 -0.3631580371189874
Ni 1.4221987629853667 3.47448013674765 8.40426179660672 -0.25083605308410345 0.42832496073462367 0.3023596748846922
Ni 4.580561461566003 2.7368483581530474 6.667842336717648 -1.9118273164268687 -0.5155213533464734 -1.4312624245509222
Ni 4.151491295246428 7.3082878771876345 5.814136586983833 -0.29995055122256725 -1.7419997819763484 -0.00440764214939241
Ni 8.352448063999057 7.1778880601572155 0.17752893758504984 0.9235885922733256 0.8406072661840878 -1.0438943658446345
P 0.4099406468764339 5.817582959448262 8.149415237491082 0.1791657811323108 -0.8637191696112028 -0.9303480224843461
P 8.804460465299753 2.1016918958074515 8.209038488569165 -0.16083947201929719 -1.4569042934887426 -1.0153098693387224
P 2.3622534068704817 3.4326895506323383 10.505055236026289 -0.2222178751267786 -0.09241958868400213 0.449793929241677
P 4.031431511466981 6.016351552580105 4.02010418363279 0.983103974030139 0.47481616231762747 -0.3108895667325743
P 7.063570704055678 3.981526426272519 10.09356404209105 -1.3976519355853285 -0.2839768015021303 1.4949561060551415
P 6.634683709272879 8.046688976236695 10.197140219276077 0.716980655769662 -0.914569933714483 0.10177531886728923
P 2.6263318114396 9.016921130805558 5.453407721035166 0.3248239174254793 -0.39497312474705526 1.003272478558214
P 7.171733496521561 4.270323829729479 1.4065211111527587 0.628270397616447 1.1827478205111437 0.2155512617398804
Ni 2.6421028807559632 1.4595840736412293 0.3193412572142612 0.9376147313490885 0.541187647764326 0.6096818359809824
Ni 1.5085183496907817 1.155464371133005 7.202789314724149 0.008934583485468484 1.3141790145716528 -0.759177600852686
Ni 6.910558360810334 1.1639726890162232 9.41265499328969 2.6826149907146575 0.15694476495058132 -3.752756720291595
Ni 2.928784652963168 1.542276863918491 9.457212385467995 0.7027627123980671 0.48460795159706865 -1.0654492091972747
Ni 6.562248525055041 2.3502098783274983 2.0590385717539283 -0.29700303855846916 -0.9775758451230582 1.809668903188548
Ni 4.4745509346572305 7.145402588110095 10.296602363745128 -0.1839338919449155 0.7281508134538686 0.6154493345923788
Ni 7.5793725930384115 5.8251754196476035 11.091502723312566 0.981883985580109 2.2038449859556044 0.09420573405014743
Ni 7.975490199892089 4.130737960129773 8.17544666043992 0.32871039696407905 0.4097453979602233 -1.1305636823084206
Ni 3.4891613354201994 8.995242779428189 12.0831009217886 -0.2175281829605931 -0.26101427916868597 0.19659786056582915
Ni 0.6064553142482556 4.972081462846617 10.221375645306834 -0.30773045227830226 0.11712609029174666 -0.038285525843759875
Ni 8.907714260580056 2.7733452868555495 5.676525306550565 0.569339941828826 0.27161673727488056 1.3085475273174885
Ni 4.4947455965867205 2.860196071017613 10.94292679468792 -0.40519814490917316 0.4997093260148813 0.21223916664751188
Ni 1.4772692855168956 3.9725601795473624 12.753379610453196 0.5760608054924273 -1.6928893976029424 -0.07370375744205371
Ni 3.0926315926087775 8.674042331115656 7.97518338756799 1.2277680939755757 0.10643672889870058 -0.42063813361332725
Ni 5.925635848992081 8.043675804456738 3.7644800613435407 1.5924898760372574 -0.012265961851546617 -0.3225649461879735
Ni 3.782190001376672 8.521671088249025 3.337546591000452 -1.5890782792525473 0.40778930267511704 1.7076179620623688
Ni 3.8831999453314756 4.766315717009952 9.319735736114257 -0.9540520509695053 -0.24786360071934085 -0.5484268458252426
Ni 5.548861156421887 5.032418167060438 11.660818176764238 -1.266615920080709 -0.26887825529779497 -0.22900635880352174
Ni 8.424187196377149 0.3988166394480628 2.4874603108333178 -0.06471003858387565 -0.22456554942334872 -0.6200639505462546
Ni 4.94009055394879 0.4443869702247348 1.4069094348107225 -0.19334130130174446 0.07649031904825537 -0.4336949667972853
Ni 6.343999638987131 6.196244318847242 13.658116034474961 -0.8398922423949342 -2.0772790904071967 0.2419431214698478
Ni 8.252830223723748 9.343671676682385 11.177398267910345 0.2233051946536864 -1.3228839985448184 0.375028049083696
Ni 0.15223661178710032 5.363445768320972 5.987161336479575 -0.48926756185626713 -0.6539516044326351 -0.6563699840661406
Ni 7.472702648597248 6.357215465365479 2.4465361260869543 0.7325458571977707 -0.29497263839200166 -1.6690660699311
P 9.330208568729391 1.9576641164409418 3.7821203961926972 -0.5951707868490008 0.09939344889867398 -0.7896575146090982
P 2.740731594732686 3.528314251405945 1.1715495796349384 -1.0005018577916125 0.6124290597088161 0.2401657178544509
P 4.992761529348561 1.0491790869190696 8.20324752043401 -0.6096270714836468 0.7346312789718896 -0.7771979486895066
P 8.789696839435654 1.9061196459923397 12.4518316363213 0.8995564910247862 0.6210168013778272 0.2752062543983518
P 6.748772100953447 8.2969928812403 1.4797897258629253 0.0538404428592234 -1.0790413460594128 0.1991982743031537
P 2.332286543454024 3.5209782313580895 6.490125648307404 0.16895490203758 -1.4301869320985563 -0.2613320675194209
P 7.042863161823217 4.246364992719255 5.691725796529873 1.2774927148942128 -0.31090962133723227 1.9302207313323916
P 2.2800368625888363 8.813325967679683 10.23311785667182 0.7978025123137357 -0.3413216579701864 -0.6512123511246011
