# total energy = -381173.9846080631 ev
CRYSTAL
PRIMVEC
9.20452600105304 0.00000000000000 0.00000000000000

0.00000000000000 9.20452600105304 0.00000000000000

0.00000000000000 0.00000000000000 13.47175421028302

PRIMCOORD
 96 1
Ni 4.514037532442547 1.7694872491140925 2.3580283121716854 2.382386246130039 2.3118524017755346 -0.11763876826210708
Ni 6.3144243747509945 2.151383025591242 10.79300331235809 -0.3177726670056527 1.0892550533676209 1.179279402346569
Ni 1.8625726187818055 5.9834480351374655 7.923439000180337 -0.12322937497600715 0.6838126536581256 -0.5204439874590714
Ni 8.12598551141093 3.5613783140861113 2.9513106264817095 0.46558667329955944 -0.1557252907211834 -1.3026635577328856
Ni 7.508683986960701 5.596830336912117 12.987121110449406 -0.23737632803477182 -0.4449589697468789 -1.373223370229319
Ni 8.265397259555613 1.276502050455629 2.0228648337603863 1.7766024596518821 -0.4983448415671869 0.3378936061252439
Ni 2.0600281067786193 2.8311096441862786 2.3186099303263394 -0.8872427066544396 0.12007848805185127 -1.186159160185538
Ni 0.8428059639934119 0.08333317455617915 11.606549009206569 0.45589824236720194 0.5900797454793386 0.9805177013602016
Ni 6.591397761349546 4.779947078999509 1.3618731070294519 0.2359316251684453 -0.865219151195497 1.8788830002903643
Ni 8.58139783565195 7.277963342632519 11.80730524016421 0.6816405857074712 -0.289686707402714 -0.09754559705665782
Ni 8.476318968834327 6.437332408091543 8.47559273174674 -0.808130119491989 -0.29715010565929467 -0.703606548455601
Ni 5.9894677950269815 3.5035830964312544 12.81279659585069 0.7288480966312093 1.2290243349801802 0.7018222028616687
Ni 0.29236611513561445 6.459552133432971 3.9541483173728564 -0.5575601755850785 -0.2979633455892094 0.44874466204155616
Ni 7.172654362669274 0.0816487463302134 11.281731417822513 0.6379783689328303 -0.5129178542853554 0.13422212654208496
Ni 0.250716556230301 3.958314285761228 0.8400289585520246 -0.7529683867181807 0.32364918039108775 0.23346285191297858
Ni 5.214419106988769 8.913754854139222 1.4869718175163387 -0.09204472184308664 -1.0791786429682253 -0.45207218375289243
Ni 7.013802655982297 7.488010621957864 4.957309087120459 1.5783758052333785 -0.03271214552104044 -2.0241238465404563
Ni 0.7060018580149368 3.8049760900433967 4.678187364194365 0.2759400472405828 -0.05408546899049394 -1.2797159477977766
Ni 1.5129479098469283 8.724012758783715 7.466490440579133 -0.5170835556272708 -0.7873499495218441 -0.7921622833088228
Ni 4.931352324294102 6.827291349191348 2.6909827043849965 0.6062334724210656 -0.3523565756281093 0.22254903321395222
Ni 1.213386616873951 1.222296597872502 0.6019465344690492 -0.40860331393598015 -0.4828354330776782 -0.24311168785665227
Ni 2.280605363647706 1.683940386097013 9.774040212674214 -0.24261057985051762 0.5129407371034908 1.2748115685176238
Ni 8.118106437304773 0.46412072612400473 6.641898392288131 -0.25444999568760696 -1.1251651370006688 -0.038602799973862546
Ni 7.35964430480312 7.700966531443893 1.7157622727790278 -1.4905037267107426 -1.3929460454692268 1.6726501877379323
P 8.988928216551583 7.540724941357349 6.4523367056387935 -0.24022253923431533 0.3757343311221013 -0.451377471678713
Ni 4.0664490551527335 0.8021422098039506 8.532752837119675 -0.41896331701406553 1.9795270337666875 -0.5555369745074625
P 3.0441391898789067 8.473566815612669 1.259347575675671 -0.4961717451752681 -0.11814116181982234 0.35332870973339153
Ni 6.753001621258182 0.20444172309795053 3.325192942775658 -1.5928421171703535 0.0902115252890898 1.2972848099194754
P 8.395797776917671 3.8786951373754164 11.913637763399189 0.6233228238031845 0.14565942184474914 1.0365350972660858
P 5.409168464393048 1.8685095379388978 4.980978525279316 0.29069843649668 -0.3134771249540924 -0.046955799924248164
P 1.9447414208211284 1.7949469675459024 7.602569229922602 1.091682946082823 1.4375400300295178 -0.023611211661036753
Ni 2.3484519235034083 8.453003904919731 9.51710691970174 -0.05217796755513595 0.4641429988744974 -0.18283011735777546
Ni 7.85146973320764 2.047012907262141 4.82978590453128 -1.0901438837304773 -0.5764816950799297 -1.0593168710472918
Ni 2.3109250717150895 3.3481278597736845 -0.015104626878741922 0.5728528400780909 0.41877176982854974 0.6222475884611348
Ni 0.2046663135280793 5.288276222208164 10.352329274867976 1.1686008395868004 -0.12757171110510288 0.574972457524255
Ni 5.028312799334118 3.9121627932749323 5.849597661496216 -0.22388523552687248 -1.745856436718277 -0.568246451654331
Ni 3.71980661258514 1.2795487485036872 0.33719951952377786 -2.117747225724572 -1.2113523716217138 0.07644866717704253
Ni 3.3148350898648427 6.3738948161059925 9.560769508404972 1.1638926354778536 -1.3623756288815374 -0.42089267282629444
Ni 4.856694415327937 8.49134995950647 9.960530349055764 0.11325452315148236 -0.10947500150439211 -0.044865235943806606
Ni 4.994246849255981 5.962839101815403 4.930042520269211 0.8924823577868243 -0.1463065685104448 -0.3521112923865226
Ni 6.858826054667625 4.867657005585452 7.105798209792337 0.4229153596832781 0.9621672238774719 0.6100605594766397
Ni 1.9584009371453535 8.507973333146328 5.176535119598443 1.078246103851627 -0.522128574250346 0.1491365817600722
Ni 0.1155600603744919 5.387510215126943 6.429596924588256 0.04713552003522205 -0.2128786000037237 -0.2632935621211659
Ni 3.1838178692725134 2.324823905710763 4.138172561285904 0.6566057542260304 0.39810138596339184 1.6434897641238924
Ni 2.877988294212745 6.186960101127095 1.1677036347521448 0.3875909733503712 -0.13535315482273463 0.8054448593503418
Ni 0.5305608344336543 8.121125521775356 2.083217989141997 1.4798665587118707 1.861583332669652 0.7560218288325238
Ni 1.561557010728486 5.393879746997808 12.7627221344578 -0.9145624775153153 0.06765138060038672 -1.1475049381484494
Ni 2.680017352769734 7.242930917342763 3.5140532445571346 -0.11244771097947086 -1.5008773566355829 -1.3848480989524408
Ni 5.899622418449651 6.1141799154292205 8.903697989222882 -0.7618008974081462 -1.0141335896424342 -0.08598617435383256
Ni 3.5246982786736885 0.12776526161837476 3.2972121047203946 -1.007192639548227 -1.245429772921397 0.7511729853806546
Ni 5.846871280946866 1.054304797041351 13.126405836137703 0.665520540217157 -0.16473340775706466 -0.48891274962000963
Ni 1.2111223035210137 3.841849420498144 8.444256844028283 0.4519737105018152 -0.4427269950925666 -0.22203224147853373
Ni 3.675716933883633 3.5297975859807105 8.568681783224783 0.2594399927030306 0.15259240151915654 -0.023363357316288795
Ni 3.507568656113458 1.0768466807866521 6.143308557854855 -0.4794606030681742 -0.10549519092103767 0.166401539488107
Ni 8.258935682426499 3.4419772050848683 9.021306056593426 -0.5265758113884221 -0.4921600529127137 -0.6825970360834697
Ni 9.01071532917924 2.9021225609257626 6.555059213845228 -0.7109254507145176 1.5540840225655492 3.0370431041598143
P 6.502297951364036 2.3895961539409316 1.6198575568511329 -0.6334956505711283 1.236120065484697 -0.6050543645112999
Ni 6.157560845642207 6.850100164185573 10.920728994515414 0.22131130415210917 0.04763637093104054 3.971044150015716
P 3.9282983270460687 4.736520126157398 12.752052248121519 0.0399495438097441 -0.5806283702584516 0.9667473870489868
Ni 9.021650305859279 2.0507039221179455 10.990998185568245 -0.02590000769521346 0.2940431845991968 -0.7902473256742971
P 5.8035087597855295 3.2507163629682454 9.046996808623442 -0.0903555070661218 0.7443451638255438 -0.04205502018852112
P 0.8284846422623732 1.487791940767342 3.5446205543692084 0.13352381492347973 1.122476534424912 -1.003964362418916
P 6.493203879848986 8.024082206002916 13.046006143961938 -0.20493800500040835 0.012846516945364973 -0.2528258298206226
Ni 3.5772745301857993 6.571920984703953 11.787609395803983 0.7625601441716737 -0.5956035035110452 0.8293959708493006
Ni 5.256106404449965 6.375293904031384 0.3165730976026488 -0.25476084205980637 0.35219253924641925 -0.7088166319016308
Ni 6.451222037561392 7.196567720762492 7.046279904903049 0.3058419770063378 1.4423227961301417 0.3531322774518692
Ni 9.101913771052837 8.366426135010258 9.692927169747012 -0.4292608422853317 -0.3286479191572598 -0.16588063398763045
Ni 7.45257319753181 4.543004175213662 4.87541457995072 0.1519624812446415 0.8111251975645708 1.0783430344408074
Ni 6.630857563561104 2.6471295819971905 7.190979653134166 -0.11396029096925535 -1.0603034033302772 -1.4875577567085412
Ni 2.7812579323183524 6.354031449375752 5.684554990739379 -0.8634227214167066 -0.46181049408657887 0.07583391641117908
Ni 4.722934246039772 8.237415501047767 5.101914949188161 -0.7925055255808545 0.24233007249562138 0.16757756207407914
Ni 7.084373755482184 1.1943884755712555 8.878829201349035 -0.5672396076563714 -1.8737284526726183 -0.17500085112134378
Ni 0.1515212223199866 1.1545236742234 8.616668658160574 0.40119159485294137 1.1656373860831022 -0.11802443373629995
Ni 9.113649541479647 8.943936494319232 4.238820369371395 -1.9548652693539497 -0.7362757565538481 0.06428040724562477
Ni 2.5911384514040234 3.608459463680728 6.116594262553105 -0.17508621174629846 0.2363615136170123 1.3756630900190632
Ni 1.5322866186051471 7.592647671535889 13.318000802541775 0.5651207615411559 2.493152712752345 -0.19455923286924556
Ni 8.424110898355215 8.84979260418165 0.15709180134924597 0.9051013321024154 1.1460170407490133 -1.392980498251588
Ni 4.808020882765605 4.418356486492198 10.778938796897565 -0.1946564205687422 1.189067077860952 -1.357113866261966
Ni 4.3671885274313045 5.625603684640908 7.229171992139628 -0.5676887793786483 -0.7382048552557609 0.6820977278495478
Ni 4.110419075018517 2.541111853545423 11.959213052568844 0.7366922752659764 -0.8111293113296288 -1.1495296818879621
Ni 4.190756176418675 7.8595605114077705 7.75878752177106 -0.8109164239878743 -0.2579443819941106 -0.7074320928492784
Ni 9.131322231063551 6.402548504999059 0.9116107149874909 0.03450934663077928 -2.121691555084301 0.10719674699317668
Ni 1.0145320409517449 1.3056251701657688 5.654930224371779 0.8974875243108995 0.3178096908911752 0.0764239845866942
Ni 3.312975775648203 8.791371478770696 11.556097162254858 -0.2914831371815045 2.3530998384610955 1.8790110412277963
Ni 7.930094792804358 2.1427215667899646 13.266956184126935 1.0324786678085252 0.011447836825625446 -0.1646570459931745
Ni 5.622529373015375 0.4109406577177772 6.808799456809025 1.4337772205529757 0.13320936900685446 -0.4138151971542228
Ni 5.643957509135857 3.7712967300499067 3.4457648674618353 -0.40767128904001404 -0.3335962643014706 0.06800182196126997
Ni 4.1559906823778405 4.053130106284032 1.3733778438580562 0.8029490895116816 -0.09372030977329666 -0.12065750048377284
P 7.0721225316091765 5.933053256245867 3.2121107407532428 -0.4630394813976735 0.12156330012749388 0.34574601229012714
Ni 2.439825251367681 4.006914182116961 10.881364919372437 -0.5269352516103699 -0.044243286089091546 -0.5193291571283378
P 1.6047262368474986 7.192158752892341 11.098488638152004 -0.9916050695226148 -0.7813903895042995 -0.32199107596237453
Ni 3.2952478589093506 4.853739762538129 3.436631216485738 -0.14159090820233033 -0.06062944075659881 0.9703520736811094
P 6.8782568086840925 8.165896335387911 9.390122201873323 1.1887955693671204 -0.21501415828948778 -1.5003374249717127
P 1.216663428067633 4.796349544019569 2.842998209741783 -0.5033870319767847 0.8080797258700276 -1.4174936529016038
P 2.1567492641471873 1.877419518937449 12.065046690504111 -1.9343602074220623 -2.31525834213329 -1.3911182482318685
Ni 7.0718648048860775 4.675899119074281 10.496517251463226 -0.4309366873258579 0.5760263527100661 0.18052203804988912
