# total energy = -340860.46861424006 ev
CRYSTAL
PRIMVEC
9.37015186733814 0.00000000000000 0.00000000000000

0.00000000000000 9.37015186733814 0.00000000000000

0.00000000000000 0.00000000000000 13.71416440731749

PRIMCOORD
 96 1
Ni 7.494922173381573 0.3533662329852133 5.180662369665048 -0.41899057070757517 0.04679999107267424 -0.12273983693409829
Ni 4.5671994591005145 1.1121245935778628 6.89076382369449 0.18589332966413147 -1.3025571140620082 1.3644055148273728
Ni 2.1659293614747077 6.747680666539653 2.2125477414117576 -1.392574521062421 -0.18995284444548574 -1.0793053983540768
Ni 4.080551247890789 0.24107526913901364 10.512867269657301 2.000488980730335 -0.7940214480047486 1.0108803728124591
Ni 0.4239928162255896 1.0038056371394688 5.235999675983232 -1.1206294539138442 -0.25295387075805464 0.22570840477854032
Ni 0.404263024298541 5.984210056535856 6.238723997588705 3.9285407294358663 -1.4300354941223565 -0.8560200011947321
Ni 2.005446769180558 0.05244848847476348 10.149771070896513 -1.962342808677917 1.1651331927531738 -2.407689500781518
Ni 9.134389548049088 1.8881980579423552 10.115169910823845 -0.6693481414933634 0.5703614411148048 -0.7157712088425932
Ni 6.151682782178019 3.4997048992178135 8.285960707411098 -0.7968907991327436 -0.9905154360028617 -0.04001484983004077
Ni 6.8188657108357145 8.724539102148105 13.355154812570365 0.9394859802298724 -0.2767435169784847 -0.2816900623504826
Ni 4.576438428914377 6.618897298262033 2.8671934067723446 0.7090578013781594 0.8037417606163062 0.5924230489005345
Ni 3.8123306485785897 3.1750103941569807 1.7906585242969308 -0.2695937933075808 1.0380062824949736 0.5660862107782185
Ni -0.023011219136799974 3.5202442722725675 6.341237207884433 -0.09572525601846739 -0.7450979828311683 0.13662739354946793
Ni 0.2613644591369422 3.0499563463518933 3.8171178592052653 1.6547931049518534 1.7725064352056377 0.2096482659918841
Ni 6.960383115601204 4.433075104216503 5.105659925468206 -1.4535094088745808 0.6367807490803034 2.56375623400252
Ni 2.4268037616651332 8.57340792149111 0.5395436559320763 0.6162785153618935 -1.1281717850374762 0.5769750897765805
Ni 2.9032197669552455 4.185909236315815 12.181963064762375 0.4500281567396701 -0.09879129653830082 -0.26143645430776913
Ni -0.14573959523012137 8.137002464989228 -0.23658040725289795 0.7569870209592705 1.4781647455294156 1.3775060567650728
Ni 1.154683823694055 7.6491548743310505 11.291324500675593 -0.7123644971538893 -2.237492498806721 -0.564815314485595
Ni 2.790862275030265 4.805023285515987 3.3047841874947683 -0.21416620846689569 -1.054036596484959 0.12651550192644664
Ni 7.72058354257758 4.460895085329444 3.1918897858635655 1.1800754158853033 -0.01532017529683813 -3.5516188057635665
Ni 2.8195443101217803 4.57981168361315 5.715488154094811 -1.314716889352994 1.871819151465047 0.6681374090147139
Ni 6.481127954272958 2.4646966561146897 6.037276975038728 0.10893918360558012 -1.189274822996384 1.1564282087800084
Ni 7.795675940233054 5.1257542163057614 7.441827144422877 -1.4848884374064943 -2.3233971691903403 0.7782382170285629
P 2.163493121970038 2.6873783169934464 10.459244701144325 0.40563214712279816 0.6212898525335558 -1.313833458306776
P 5.060116301958793 2.1058947979884803 13.924128241718854 0.07390121816484048 0.49157924070857917 -0.2694667808114133
P 0.44108397336604205 8.54296429783468 2.2692549639437227 -0.2973128564894041 -2.5992855372573813 0.8134836704944183
P 7.673395457402514 4.26371897803419 9.613204312236105 1.1615686153303673 -0.48884692937908075 0.5820365634598879
P 9.85918017084028 5.633419678319234 3.8926965677464804 0.16391605406209192 -1.2437151042231354 0.5680759875147378
P 8.777770935325139 7.133402971192463 7.653340521203112 -0.7637595637964136 2.6218816773903426 0.8280170882239031
P 5.530263675600351 1.3596465272523102 9.556551436585398 0.8059853052348442 1.3334548320821293 -0.46844548290459326
P 6.929948862096715 7.844634984124975 4.307262074104192 -0.3512988237875563 -0.5703992363312758 -0.917073673972943
Ni 5.88527062219044 4.210993133061972 1.4631370443954874 1.7724472998329281 -0.6937419969566955 0.1195570683307425
Ni 5.903832893185635 4.016674922108736 10.842405206256455 -0.27333269152472284 1.175676258376343 -2.5489243111960103
Ni 3.2463359907321583 6.642753705103915 12.674727174144016 0.052402167750800074 1.721030378813533 -0.6485828839215539
Ni 2.8347239562662616 7.331253729427471 6.444944175537447 0.652088068861335 -0.6292453599352066 -0.2592502452897277
Ni 7.433903743941536 2.456638325445397 0.5153949003496343 -0.4116004488910911 -0.9260000299282956 -0.8771896932938119
Ni 2.4020853008446768 8.676245339043998 3.4891166275244405 -0.1845519851448886 -0.03287463924083371 0.5359755074357673
Ni 5.40977289179055 5.958226625203359 8.431852099102663 -1.1602568384974792 -1.7616944321917984 -0.4253177984771837
Ni 3.984104273961689 2.6965423255917806 5.424116720381891 1.057955986144023 -0.31285568932000957 -0.9903200321626041
Ni 6.221274900644106 1.7627317234518627 11.965539728365037 -1.574239671577818 -0.06623367431725367 -0.3230205456681534
Ni 2.174662343083755 5.765491969928157 10.332196685006185 0.06393845052517376 -1.49447736664651 0.5480514647636948
Ni -0.24700189024171987 5.7491129443352245 9.127928828285741 1.401620433314773 -0.17859859577493115 2.785815472064247
Ni 7.445129185966899 8.557675436382109 2.0722653226720964 0.4096942330073137 -1.1861367915880348 0.5180194371779788
Ni 2.9272823171398303 2.1131847761986076 13.444118783159354 -0.31421914532643946 -0.49085727494089015 -0.4492239156708199
Ni 0.5646556631340568 3.1602055540901413 13.77862102625687 -0.0808352262805124 0.921460233076413 0.19672744416515794
Ni 0.9045504286736405 8.534943447773152 6.615438775180596 -0.269396075474478 0.05947655809907821 -0.21813959129234692
Ni 5.2057565735783395 6.255616507508008 5.230088984138826 0.3392488346015577 -2.2166174551299247 0.8239395757204198
Ni 3.545777936311895 7.3222583835640735 9.552148402188305 2.3232452169935085 1.2342413604047453 1.0832551270304442
Ni 0.8059492568132967 0.8195837649027004 1.2749047471279549 0.06358466673018083 2.816190484811679 -1.5059874241686388
Ni 3.2856531482767517 1.0034495713657094 1.811504301320157 -0.3638962008365927 -1.3696492797248152 -0.14931321654725252
Ni 9.067739657292487 5.831945087493995 12.978331341215961 0.9283266211789432 -2.410318453763933 1.4446776695155636
Ni 0.0995166357049832 7.914704980340054 4.377698443260165 -0.33302085141397486 0.23031505031261626 0.140752471461435
Ni 1.4284421828034075 7.408679294916264 8.830659820941133 -0.5903787647769961 0.27095082155610756 -1.339342658321474
Ni 4.648138831567196 0.015899273813552484 13.009681995580284 -1.73224167414832 -0.04486754993665176 0.14922605615008497
Ni 6.920485008636267 -0.24679012480785242 7.463522794227156 -0.2631009864943856 -0.9301086527800304 0.4455415817232262
P 2.983596930305466 6.726363570873793 4.406127484249272 0.6214945123451941 -0.023912544951539463 0.2290027592590959
P 1.558837217214886 2.7885291071969465 2.11745288040775 0.7774699714039708 0.14313614120226317 -1.6867503745847403
P 3.0671037244039923 8.99362175543888 7.9791482003145395 -1.5867231487568092 0.8737793820606823 0.34887350217551527
P 8.49646023375131 7.283906351669408 11.674772669452313 -3.1911087477903877 0.8626786441618303 -1.6580622626214283
P 1.8897535031645674 5.270944720632138 -0.08896678163456906 -1.3658409617223186 0.3991264847937965 1.4073272538915633
P 4.423779913490994 4.528013483683095 7.216338186022586 0.8611030721445945 -1.4951918762150314 -1.1592659353391195
P 7.994004576217055 1.09774141034837 12.455588367714165 3.8903300226940996 -0.8990774945058387 0.03130420942992028
P 4.487159621220171 5.506032462680828 11.305655211054214 -0.05198127816329758 1.37617268266563 -0.8825689553278542
Ni 7.382171135075068 0.16931114945299539 10.117227596190094 -1.1419909503087557 -0.020220440811932916 0.5745240571329266
Ni 5.075670754180916 4.195363719624321 13.066704992232662 0.35384010215217127 -1.7419033656078002 -0.6695592290629049
Ni 1.1805548132032597 1.5235492250049385 11.901714001403466 -2.264597068332997 1.4966993139984934 1.3405536479104396
Ni 7.73304584465916 6.542624261461987 5.857744863848448 -2.650525052158648 2.671869065052063 -2.6821735323018645
Ni 1.0488198470642132 3.7683752658231824 8.853179107101028 0.5707411930517268 -0.21507895008915218 -0.1270034973064587
Ni 9.192268976588876 -0.25998892083199787 8.600906506392473 -1.3476321520237757 -0.32125419779634995 1.3323991371241053
Ni 6.5905806990962175 6.5169875257513095 1.0694660398510951 0.46098337019959323 -0.347887227002846 -0.13403289334941432
Ni 5.708240341568419 7.770507712119428 11.276663960948646 -1.5080152532319446 0.8891535505239073 0.442263939413219
Ni 2.8561441236034733 5.529026815544135 8.073267628501485 -1.3533777962583016 -0.40227891437984914 0.29244370132256087
Ni 8.625178010965342 6.595631210992437 2.473596426428287 0.2955269682335749 -0.07792705149478193 -1.1320793476219986
Ni 7.637938802457629 1.3383200614345088 2.5354750358165106 1.9100465703773621 0.5871587151778017 -0.1359051706714627
Ni 6.810170209834433 7.096362760569542 9.523403587078784 2.963357087329574 0.9127161683351958 -0.07099561448227128
Ni 0.8065142769753412 4.167581219119145 11.367478536545987 -1.7953152055700372 -0.471056438164879 -0.3253903314519106
Ni 3.6901438672674596 3.023438816358757 8.684234330588927 -0.04606259868601745 -0.47287369387927597 0.22010931342420803
Ni 2.2278379553491425 1.6403669092538535 3.8514725842818858 1.2348221726088797 0.3537542273065843 -0.37344450664666007
Ni 4.147557204421148 5.60331338013268 0.8906460602083348 -1.9513618841863813 -0.34266557359259053 -0.18326694778487793
Ni 4.883451457262472 8.024288907290488 7.726615109382026 0.9102885327303097 0.29310190373185 -0.9553262896962386
Ni 4.758819066294732 8.380523343784853 4.893035248667765 0.17781826596548087 0.475273304459704 1.4401126758527003
Ni 6.48999211800918 5.935044869301232 12.39147404007281 1.1707263705702353 0.4089342149128377 -0.1285209623922496
Ni 7.763283324972888 3.7878745520124815 11.914098531223935 2.1751229354305637 -0.6327587724051038 1.253539803623041
Ni 5.653087627243471 2.3062380166398038 3.5331666488144524 -0.10273074080202307 0.19152096026355403 0.10758601201179536
Ni 5.697099230910525 0.6256056904649236 1.621631290447749 -1.2079564585662874 -0.6190995297504563 -0.06283853259277565
Ni 4.30815223853859 2.589375897842135 11.202333356645976 -2.727018456530697 -1.4440426070347259 -0.9228702260500622
Ni 1.105490526003608 1.4145462474748491 7.793060730826311 1.1386207482849424 1.270760795487018 -0.9582653177199045
P 2.0495427042150807 -0.22699380480202241 12.30085155259026 2.043210945078894 -0.16836920473743908 1.5196482094851826
P 4.75600802071242 7.654402159418031 0.7661064337448109 -0.10313260422613206 1.3075915911621223 -0.3937791044389541
P 7.925602467047481 4.521566819147661 0.6479197702973105 0.25328322907301537 0.9377990794457526 0.2191191815967968
P 1.8455263860028701 2.474338542462017 5.763254377644638 0.23081615831875088 1.0416608485284253 1.4800046269516316
P 5.225939880859335 4.486185125418303 3.403389107415888 -0.7808874817259519 0.7062321590039062 1.6404638328133747
P 8.204392597749171 1.3922733963110028 7.448848199272297 1.0996929608714932 1.205154727451434 -0.32739939146213937
P 4.312153293417413 0.507958747769227 3.654413603885896 -0.2577942295694915 2.3348509195532365 -0.9719009062254682
P 7.7817050436889685 2.41421964760832 4.270878711132337 -1.0421838109114308 -0.24950113632276386 1.7101702961705774
