# total energy = -340869.41110655817 ev
CRYSTAL
PRIMVEC
9.25361634966900 0.00000000000000 0.00000000000000
0.00000000000000 9.25361634966900 0.00000000000000
0.00000000000000 0.00000000000000 13.54360289761190
PRIMCOORD
 96 1
Ni 8.582738590954943 1.8274689688872774 9.151791590572724 -1.28157794070718 0.32039262112700306 0.4205311757218177
Ni 6.880434039336494 0.32957865727710206 12.243092670488144 -1.0700946783890861 1.4682852816321745 -1.9530405574403849
Ni 4.481619024653761 8.477904369216175 11.816698975562558 1.406346635145849 -0.16587754866383692 -0.39410332054759223
Ni 7.66339178808209 8.779433464048704 6.200667995394488 0.012488876495630104 0.1883765010973014 -0.924969274670936
Ni 6.199719499699526 7.905494157519055 0.25625485056745023 -0.09678943561692363 -1.8290575921278047 1.2786725941349266
Ni 7.023929870963564 5.179998718258362 8.60144755286786 0.27230964957684717 -0.437123275752544 -0.3537254309511779
Ni 5.277652133565027 0.6653350289537805 7.282205711382523 1.3664935077046532 0.9817855123290317 0.23461676301176368
Ni 2.526542683732094 2.9106047844511163 10.252115073490927 0.7475955524420416 1.1853880863474682 1.050885709560803
Ni 6.22539828558752 4.136838526130966 10.96595756032754 0.10522496797878653 3.666321374215486 0.2405156449947019
Ni 2.413296924561908 4.452932813391499 8.292192613589245 -1.1811113133489852 -0.5652436602722652 -0.2796267520635507
Ni 0.9780147317124488 8.250885394733238 6.240093028647028 -0.23528242162022056 -0.4922891222914102 0.03848247234591437
Ni 9.011153275732038 3.231261104664001 4.365306616963474 -0.6673537367711538 0.7688860863897016 -0.2199524761313696
Ni 1.0986356232619972 6.110884780951873 9.56943599106332 0.9661400924822909 0.3502156180257065 -1.3435003892435893
Ni 5.453952035812974 0.7545722800207594 4.970556988385964 0.3062317562455888 1.8522795387702229 -0.23766943379515842
Ni 8.8134682656689 4.46441655151294 12.641138836516692 -0.36131532748329387 -0.11404513737357778 -0.8865575076619571
Ni 3.7486863269029382 0.9299051793406725 10.064928291388124 0.28208395535479164 -0.21428627898452773 -0.588518828750122
Ni 3.6684019498347458 3.683809221367542 6.158343804081153 -1.016906781512197 -0.25374602764204685 0.7521350921836079
Ni 6.3925833755472965 2.1441647412226623 10.386561793507234 1.1576510254435162 -2.5190025839359134 -0.022881018363231562
Ni 3.428761042396414 8.985770605573203 5.997838899898869 -1.0169551182516292 -0.5187372891806098 1.4847948492514236
Ni 4.383947102114023 1.4823090720864984 2.7249318940136376 0.5355888135203098 0.09592477362378318 0.49480186141093496
Ni 6.931365944751816 6.940564039588812 11.471080099381581 -0.5843549271804195 -0.237154698942269 0.042028794936276
Ni 2.8634668618156427 1.3328539114101075 12.378988506854022 2.254364591971711 -0.5550708335043215 -1.0951675621973138
Ni 0.6492337361807683 5.767242477263032 7.1898518422661475 -0.9095143735684466 -0.3711184296166447 1.071467647477213
Ni 2.364187981604221 7.97410972413508 10.893675710839865 -0.7537214628341213 0.24797801481001808 -0.6610154532579519
P 2.4461102487993225 4.599537860174736 0.6814372470884463 -0.38857904829525336 0.6274551008040032 -1.0717872356001608
P 7.588613312852945 1.71623124450545 5.047443437462058 -1.1439503880279718 -0.27471748768739135 1.6544542335551957
P 8.183121160838544 4.966564052850587 3.011013926762266 -0.305704422987209 0.18230998318824732 -0.33678211822862
P 5.364358520509351 2.981311668404327 1.3676058683118588 0.0313124369600364 -0.2048855544959181 -0.48283286197451686
P 1.4439528315438916 1.0875960587342939 10.457869237173643 -1.0310277942946113 -0.6913940655498093 1.049236089772522
P 8.444535827986588 7.1450134433399235 7.981163756020637 -0.8193419290474082 0.3957902213317119 -0.29825388024643473
P 5.732587683334912 8.733581794111766 9.818163949940214 2.109049183729942 0.28448202327332295 0.8184813808193259
P 4.857417645805945 7.745369576976409 2.1077230739413984 3.3117971015120964 0.18333019692264554 -0.518687666889597
Ni 8.826293778188093 0.6853487507983039 3.6596443271448735 -0.31389672899001425 -0.9847564220318976 2.2358685900500523
Ni 7.606047126407172 9.141545986343829 8.576811649563497 -1.1431592595852442 -1.1739978422326556 -0.008650219475830265
Ni 2.5986746246318817 6.10624871906723 6.183683907603922 2.3743214668440333 0.40562546225457885 -0.8327708008588045
Ni 2.728428835702673 1.6156351791402686 4.756933549200851 0.7156007447029998 0.7814562097452283 1.4629620696470482
Ni 0.5470793617908885 1.5229324486804776 6.165292344738196 -0.7504931857048107 -0.17886521917275647 -0.42415463140701787
Ni 7.092489915880373 1.0419109538950058 0.9460129496452601 0.7775627882280931 0.19170582258085048 1.453755977667748
Ni 8.287483448133965 7.849065603881222 2.221069697531829 0.522634567352487 -0.11258449366765126 -0.763234287420563
Ni 3.989456175558688 4.7471793120100285 2.3813987829999252 -0.4505626890869015 -1.1712285070176343 0.08444685489117068
Ni 3.0888757070212773 6.928182700663359 1.5427379641529362 -1.458654700520946 -0.6845420756249824 -1.3706949473805103
Ni 0.6587390510867672 5.643049689730505 4.866907229563831 -0.6811870431098204 0.07261978034925558 -1.8517030974414626
Ni 0.8037524758257755 7.147863557233077 -0.019783306792771727 0.5496051824040599 0.14249825050794815 0.8642616723782341
Ni 2.7584753285957593 0.2658406719373142 1.1206314697685775 -1.1062081362821914 -1.1081714306561496 2.0844591530954037
Ni 5.338670481004821 7.750588616702834 5.5482861788681 1.1645379823713362 1.331620607086868 1.2542795100025432
Ni 4.172057790667798 8.435245196984228 8.513603896451235 -2.7292249772637125 1.1580935122975733 -2.28059164398904
Ni 6.1854411693841485 5.229755414373584 1.7694043758458424 -0.4372034941711761 -0.4344914945566517 0.2976800100208357
Ni 1.3450964460875183 2.8203727696064944 12.828866955186863 0.09289087189346583 1.3068061191463491 1.0568372991585475
Ni 8.826358553503846 2.0030193281957915 11.773061696062731 -1.2226935076661458 0.3579602949681319 -1.1398926730188306
Ni 6.433160484058594 8.854563576706227 3.2456699109725395 -0.8735420692388955 1.1968153543478033 -0.954355184032221
Ni 0.7719598254923054 5.829213947206058 1.9616288267909605 -0.1563374703838856 -1.3270347874883983 0.1458201157923295
Ni 2.980978538209023 2.493553540780491 1.1012692025282036 1.6519258107063872 1.6454965101412757 -0.5029663994995983
Ni 0.1646718077085411 6.850128445180394 11.37120951755284 -1.307303113387426 -0.3361120887447889 1.0744406140626077
Ni 6.742638435495733 2.478368356044564 3.1820290886063822 0.2509162715027356 -1.2518215353803537 -0.9271243733407257
Ni 8.69131127377434 9.052470673566233 10.738587873777883 0.5449304026362098 0.1707834706058865 0.15331976660348434
Ni 7.997271526325224 5.94586503726157 0.7097931042403667 -0.002539992813034335 0.8645208395768919 -0.9766697883690212
P 5.965140320506504 5.4018541747140905 12.857430093349196 0.32407341241269993 -0.19235991122508161 0.7883043430153133
P 1.1931705697959585 3.6962275747591415 6.022027853524532 0.5147117129609846 0.5467759404853808 0.6398424187247626
P 8.175884832707226 5.242627194975457 10.378449147889933 0.5151829961704482 0.28307074474809313 1.1467508335912444
P 5.00705787881306 1.3680546687138653 11.76677756507299 -0.8044683543696854 1.6603266331755728 1.166578666950449
P 8.759251326383223 7.639545218268267 4.5639095857870045 0.4666351691687318 0.7210023753345454 0.09841848657991438
P 8.196094731222317 8.246526941344682 13.018071025694562 2.202472016867478 -1.526959141324299 0.5940212466255899
P 5.45227713121992 5.682544125107067 6.077516239722286 0.27581766273010566 -0.5521174073029523 -0.0437635182391956
P 8.981069768372807 2.636669974129576 0.7572336201365746 -1.5951201145712528 -0.6051240414069707 -1.7124320956215604
Ni 0.8872358281305366 9.549824801538124 12.926231657657599 -1.0673222578502715 -0.5240995819337877 -0.5608974674884275
Ni 4.220454205152196 3.845747510751286 12.402121622832901 -0.2875989716357499 -0.9674595826246629 -0.11539933740862705
Ni 6.047627058310314 7.201664083774625 7.856562883998862 1.346636106659094 0.21256363986646618 -0.6875579796331708
Ni 6.822617443218229 3.008147156359347 13.122329672484776 -0.4549181378421198 0.20552575918307828 0.23870918791358242
Ni 4.527674274154498 5.21196996339098 7.983655754953839 0.9933673036293601 1.3464795264765714 -0.2616295441551817
Ni 8.53134400471281 3.633969242703494 7.324326323132062 0.19030251447542065 -0.7133536005400359 -0.061070899169391596
Ni 2.2369877686974244 3.8210311009830584 3.8446500318300907 1.3633696173636907 1.490844397879613 4.0405647226143575
Ni 6.91603270215131 6.765393078558283 3.9222545615493956 0.1795542748199811 -1.2921708857316778 -0.2601892121642293
Ni 3.759624101648743 8.591881164092722 3.638028804277931 -1.2771217047080392 1.1490725397458856 0.5809631278900511
Ni 1.8702761989838028 5.044035330491771 12.043621712433517 0.08253061170506432 0.15553811441104182 -0.33420895818480506
Ni 6.2928386429034475 4.418574135192536 4.222056006174615 -0.8415871135988539 1.2150444757613204 0.14031024171769385
Ni 4.456625006389448 6.403743237089971 4.120194046067279 -1.1579443883142186 -2.019671467196057 -1.269505582923678
Ni 7.783753578368624 5.731690082530899 6.033851199372853 -0.9389409063596798 0.3015546624848936 0.7313515797793534
Ni 1.1158473500193549 3.2959623914852085 2.2636909299359766 -2.842408023747311 -1.039628134369113 -3.0455956217155165
Ni 4.827167573349061 0.4898707282790531 0.2571709586045354 0.43073331306580015 1.6211342792468275 0.6570544117276749
Ni 1.3314473616966032 7.940722675672421 3.1262427359561626 -0.4877441832332052 0.6380015088612818 0.6450779560920891
Ni 1.3709695579227728 2.17269364100381 8.278432485799895 1.2986184411292345 0.37104978116223836 -0.4882190659870947
Ni 6.163963525403596 3.351983785995447 6.295581414844781 0.4952682595243923 -0.556631493123222 0.9092168969326857
Ni 0.979930230335445 9.15513029541899 8.736693785352895 0.049121183006683146 -1.5999566167279478 -0.5338096101327001
Ni 0.41201542555161735 3.758069494070659 9.775041171519804 -0.8874728203873747 1.3975416352597094 0.5912465120939301
Ni 0.28114707904986563 0.6351404781961145 1.64667180900273 0.5456940202751117 0.5864226083427255 -2.3539161637148043
Ni 4.6764446672072095 6.894360732223496 9.946097049276679 -0.0823416356227098 -3.4255540182212947 1.6816523912365426
Ni 3.9179257197337543 6.22539828558752 12.413524854490479 0.16825427642612958 0.5677278601466996 0.2574823547560275
Ni 4.598288621942347 2.8771437070561667 8.480489829676394 -2.2530774977291714 0.3883772166970924 0.7494459753872189
P 2.5626040273737196 7.1997763460012365 8.070511125124398 -1.7703899030832673 -0.8259239531403002 -0.17329698105635963
P 3.182383502119719 1.5770568518007926 7.2600349715234085 0.4359181997008493 -0.5507079285499354 -0.803947191758893
P 6.504228259056718 2.2888080213002224 8.290445530787208 3.2575928475555513 -0.5439767804736889 -1.6325641183503237
P 2.7249957439677375 8.263960754898909 13.034770102095813 -0.34277047460157095 -1.6901547722805987 -0.6729970510998603
P 3.6528096059712256 4.8152119007842735 10.060242259974187 0.4719735506625098 0.17446529033284794 1.3828400673834766
P 4.251074422270528 3.208127063323466 4.18919918993948 2.135584768126625 -0.3395018311526282 -1.0247890124737513
P 1.8630121100028751 0.883881392136159 3.0982348147860037 -0.066418279524234 -0.37584925943341074 -1.2307616293862609
P 2.3217046280864624 6.023234525120855 3.476737342690069 1.4012154845668707 0.09083424647475324 1.1293622058011517
