# total energy = -381166.40342862543 ev
CRYSTAL
PRIMVEC
9.30377594191381 0.00000000000000 0.00000000000000
0.00000000000000 9.30377594191381 0.00000000000000
0.00000000000000 0.00000000000000 13.61701653107707
PRIMCOORD
 96 1
Ni 6.640151204752558 -0.023372014826096077 10.24507492413122 -0.11602051593239374 1.8381011903873117 0.18361533226323218
Ni 5.6682881034750725 5.680085291007213 4.937040178597404 0.5891310084128242 -2.0610106922644764 -1.411049954158789
Ni 8.832064926713976 1.387602316477558 8.93784141290515 -0.4918954863974173 -0.5576010561253429 0.44159750947381365
Ni 0.5335026859467763 6.612872534528397 9.681153543676295 -0.6504394775143184 0.42545920915105434 -1.005747679571584
Ni 3.0762562056404454 0.6536814168538454 4.697557271694954 -0.004748056207946661 0.9979361539469651 0.12060556419991487
Ni 0.3896365422188639 2.0526268966115184 11.128724276523856 -0.20610862826974183 -1.0837495501683594 -0.36724531981448366
Ni 7.822167990553692 7.492237498231324 11.45923625482474 0.7589791116886347 -1.0172412820334802 -0.8217852483815783
Ni 2.7854853050552855 8.264022904020893 8.29466954103262 -0.34202973978080453 0.837718374672067 -0.5320103521404321
Ni 6.735124146651682 8.747019113440084 2.4497418137028855 0.3668146600349682 -0.27375769487728335 -0.19896198992263156
Ni 7.769880771365498 9.248204204267267 7.416086094484818 -0.5726978025574653 -0.005090527149029943 -1.2843876422418332
Ni 4.359972563140181 0.7726655429666505 11.473125861501973 -0.1436950990295267 1.0412466438091423 0.7995259227627456
Ni 9.0379481782114 6.446139570992524 2.8658373635105936 0.6678371041654757 -0.486994192441058 -1.7973780016363368
Ni 4.2693723957995005 3.1367121398548368 2.475955201614404 0.05230806537509701 -0.320728407199867 -0.039295198055196844
Ni 7.489418454207477 3.3639754678103513 4.017959257373025 0.20418595732573222 0.6633045064024448 1.3560142054398838
Ni 4.111357070053544 2.386688265325266 13.614279113860391 -1.410237742670139 2.430815802386336 -1.9623903740864013
Ni 0.5807267904228316 8.304596669657851 7.822226604340326 -0.7629738346703246 -0.44615504693750907 0.5548296640277929
Ni 5.849023249373621 4.458146003865059 7.106162441333677 0.11846666348004112 0.21461820840264972 -2.3044088010132957
Ni 7.02945839331319 6.434658711832696 7.080725918689457 0.23280053573863133 0.18510091566982315 -1.6027544911880591
Ni 3.140582510527842 7.51037055698538 3.723981345319152 0.9124294903327125 1.0596446867003557 -0.12595525854760245
Ni 2.952795102681847 3.898281999973829 10.17950935632641 0.6917355080496281 -0.7084363657440768 -0.8454249992877054
Ni 6.453387212228752 2.6216086006458843 12.627957945213074 0.3202116154644485 -1.0655381693666552 -0.39797771590133396
Ni 7.623355608555026 6.696922843807069 4.674599274885562 2.9380836574747655 -1.0417379816232641 -0.7057130532756426
Ni 7.462846870933192 7.670525751132275 8.889419912502136 1.0643737167449088 -0.7705914991165825 1.1446782673329319
Ni 0.5100264688333301 5.920643714375527 7.452252661593406 -0.25538047792167634 -0.7019926670012621 -1.0615578445626688
P 1.9007799741256641 5.555163495270582 10.92606199215863 0.13400872497969823 -0.41428956568748004 0.3702118586419753
Ni 7.359807555540089 0.9282246719393531 4.196287516509298 -0.42856741576273283 -0.44001730947088735 0.48220448436189856
P 7.577804322941967 2.214735883646229 10.706215634156287 -0.8778029013977786 -0.353679665314907 -0.6330431364147421
Ni 0.9955970329766096 6.384306677981005 4.714061239331598 -0.18187315276114485 0.3987480184084552 1.433385384431196
P 8.951367241954225 9.026206813333198 5.39345457058909 -0.3883291370679764 -0.6784817283635154 -0.24991945480710503
P 2.7213915945592957 2.4720038880931896 6.1256552020939585 0.2263594080989779 -0.505912883722432 -0.19411108958823345
P 7.212686951087616 5.804625631941938 13.037203125005076 1.0284026979669385 -1.754974339859145 -0.2754510234193063
Ni 1.9091998910945813 2.0527850607976745 8.944159606953319 0.47727825070487484 -0.5203467997595748 -0.36050363021527587
Ni 3.6178196828158073 4.4717853389771385 5.403395654877805 -0.021469996948317863 -0.6980727631215655 -0.6405574425139162
Ni 5.177634886690777 0.8069629815458952 0.7926426100557765 2.1689407178792517 -2.273303080747427 0.8087153025714975
Ni 7.7908514816947125 5.353634410780288 8.999745014611657 0.32960668352610334 -0.5373173661756424 -0.7075457356090072
Ni 8.959182413505486 5.334319772517888 11.650106003545654 -0.07019523006816297 0.7370290897801048 2.031893720293862
Ni 5.254056099931314 2.7777538674849316 5.190153116836278 0.39686108579838747 -0.4303304212004266 -0.18393723437902515
Ni 3.808444742236962 6.191104472703067 8.812197644177594 0.5111499637516551 -1.2148961231089141 0.01356308339641535
Ni 3.6099207772836412 6.797338494465106 11.356850064482705 -0.3232704568954303 -0.3152265035450313 -0.42335681809607095
Ni 2.793095793542108 5.936227538599765 13.290875220160892 -1.2512157834755548 -0.2689281346991239 0.6825522988884631
Ni 1.4702105405295092 8.916022198236085 0.034593298645113825 -0.12820188848993405 0.5824435690903195 -0.32172111013043947
Ni -0.08393308170540312 3.19268365420291 7.866481874004468 0.7648756796787278 2.70161081509087 -1.933541311065193
Ni 1.352573601131731 4.61602177297617 1.1521684127407137 0.2077767600007841 -1.6993639495836927 0.8512418630797985
Ni 4.31880335586122 8.266395366813239 9.909715678713425 1.3699148746813763 1.7636101611572725 0.5498476374321691
Ni 0.3075865447062882 1.9027802858917604 13.483555483624516 0.7190236543416197 1.1785780054041701 -1.16540572968827
Ni 5.221148645435115 8.08996786904354 7.7403338406363416 0.7687125369263148 0.002904832351620804 1.1588956964838946
Ni 2.24293562766036 8.088097810136631 6.014663019269883 -1.2344632466075642 0.9571787695239451 -0.3627034660800721
Ni 2.222458017440927 9.42118930504415 10.637367694299947 -0.715895136014967 -1.4335249953328537 -0.49482602978065104
Ni 4.239804996763899 5.345400569324496 1.6404556793756218 -1.2122108629672672 1.3785267847201035 0.4491758360417038
Ni 0.7595751306182896 1.0621004213675713 6.707387730665233 1.1627448950266557 0.8420645674559045 0.6451419765608051
Ni 9.631733748145361 2.0392201558908445 2.089816879042295 -0.4248354595241263 0.01826357419587822 1.1422801994144007
Ni 5.808170370466973 4.110761628411543 0.6628754079573637 -0.03529533286718437 0.39892645296784845 -0.7768657621610685
Ni 1.8015272954246597 3.8239076173776696 12.388815556499646 -0.16720629477758947 0.039810447128718535 0.6852074771231231
Ni 2.622185434736573 9.668018473204784 2.1436587591426495 1.3394694137073255 0.050604709530745105 -0.046226120847075225
Ni 1.9591518625930526 7.1463138155558426 1.580254668614212 0.7688459771803856 1.0139605543996797 0.42516893160414515
Ni 5.069217988968354 6.246368900101263 13.116087047661825 1.007515055884652 -0.6883269965887113 -0.16851575761763238
P 7.65799356532329 1.351475755604292 0.6518792755092275 0.8121749789853238 -1.3992617032746093 -1.1317070518842445
Ni 7.0127115971319185 4.445706855812636 10.90172889730724 -1.765689155173488 -1.6711016123038898 1.013581830904022
P 4.20244103372835 0.7705768453318196 8.633528866852302 0.222722582677339 0.1393100825879536 -0.23166436525165912
Ni 1.211305071567047 3.97753156101387 5.61312508723153 -1.1674273881039894 -0.005952103818376846 -0.34539299982608257
P 2.254472309474125 1.9463219559630671 0.8092033307239231 -1.02057523150272 0.2173428064226644 0.8066566202702559
P 7.7386386927117705 4.3731560132451035 6.038071318821039 0.8759074841472786 0.24146823871595835 0.6775576738873492
P 5.468573255237749 4.452573042246957 9.087968997649728 -0.36009739591579276 0.9546148654515108 2.502154659140639
Ni 4.361768191841839 2.896553778839743 7.816548510057309 -1.2281966968725622 -1.9576204635015833 -0.1034521923490799
Ni 2.158075889899593 2.874848070233683 3.5073754923778853 -0.09130732945642984 0.2860149149780816 0.13875061054005783
Ni 5.210086456179819 1.148337117925465 3.239461177447464 -1.6235693710508814 -1.5425549388800273 1.3666549729831818
Ni 1.1166019391619548 8.67875731145009 3.4972995033421532 -1.660347459111179 -0.4226209683713109 1.0195735297110828
Ni 5.939000063745332 6.611849119206209 10.433752703307519 -0.9046135938327194 -0.9239079232859573 -0.6089781250457382
Ni 8.727202071292245 0.05613898230988565 12.481138783091865 -0.8208262269024186 -0.13655643110221644 -0.10280427435243585
Ni 4.38023618651952 4.2587474840000485 11.967573157998892 0.7038646872129942 -0.15526403481404874 0.5035202151205392
Ni 5.235429941067478 2.5380979103552757 10.207328575916199 0.0745769040756264 0.09437825507226971 0.1535298257317614
Ni 9.581214246331857 6.400085881494026 0.304326501716334 -2.0160693516670958 0.26695995522915955 -0.8531987296958532
Ni 6.886719867194816 2.6050571837533942 8.421198098825087 -0.29245989927247695 0.24703184884666488 0.3970950561860645
Ni 3.654923140132981 8.488113644477622 13.302762654316899 -1.1973948810003572 0.038388369970211306 -0.20736461216403
Ni 6.380529345064563 8.193156044847145 5.500756875987892 0.34986723354735233 1.8374090494162936 -0.3576018831874486
Ni 2.3908191417166464 4.316523930825436 7.82665241042001 -0.4700794189635904 0.16082121718685205 -0.39312578712567137
Ni 4.425964243870048 7.207113989469515 5.832685819321225 -2.056226897722588 0.2664238802200315 0.3138933865559046
Ni 9.218767058090855 8.934508800465078 10.131686088698093 0.5362102491543926 -1.032262438032661 0.8527845249765701
Ni 6.66501089330609 2.3842971949816065 2.0940519577210255 -0.33610103300119537 0.21620252217063413 0.4675378834886593
Ni 6.9770316174901525 6.128164430388453 1.6931401697843373 -0.2535920185626858 -0.21830234212245633 0.31204347783135933
Ni 5.577753062563986 8.342667719643275 12.170221486700635 -0.8277129267199228 0.28464657387564524 -2.3464303968607205
Ni 5.005003329388834 7.669288348969993 1.2668374477041444 -0.7908818739345024 0.18206187173318322 2.0445219505808336
Ni 7.8045745507877 1.9648550770703412 6.339402004776057 -0.26000049319219093 1.517395151784948 -1.0553396315670986
Ni 2.358479217535479 5.492372313366468 3.137633213644807 0.046001663541094966 -2.114708438898248 0.4548952550239843
Ni 0.3044679191063092 1.5776691493593369 4.435103342697194 0.508250273606357 0.6961326086760591 -0.14381774065032005
Ni 7.004961552010252 7.829034176988013 -0.05462060612278366 2.1967451416860295 0.8307026054758662 3.084122831256437
Ni 8.898959073682501 8.651953133784398 1.3961255053562596 -0.14951941902078766 0.2554072173945537 0.18927381610059016
Ni 1.060314096441569 7.2737662382709765 11.816696619313987 0.3356114949592865 2.079641677102102 1.1198720069225294
P 5.295550939358243 7.5605086039969756 3.5718385627674287 0.23419818741710635 0.16388622926542099 0.43875644048059276
Ni 5.59997047883114 0.7300561112161013 6.505855855042242 -0.8030167095248234 1.8388524667310395 0.5358271547833611
P 2.500250150985601 1.9564909827553616 11.52560566884625 1.3929193059963494 1.3443935904818203 -0.1459568984805099
Ni 8.137845098570665 3.816604153487504 0.8098090065191458 1.0258611624920075 0.6258139656561544 -0.3288019282366208
P -0.03217152584178879 4.066317492101579 3.0360090025290214 1.5431889729196002 0.5727325124501427 -0.6120624203980168
P 5.895588646533213 4.558570958298752 2.9638526400493146 -0.2941108046123387 -0.12651498770581437 -0.14876377180168573
P 2.5924877828417836 6.034652181267362 6.3027860653032715 -1.1649748127984387 -0.34643121128260984 1.4215125442530099
Ni 0.40582604223832563 4.08032897823991 10.010222506372893 0.8149034336600804 -0.29556270656751676 -1.6257303832579422
