# total energy = -381169.0772387963 ev
CRYSTAL
PRIMVEC
9.21123369060513 0.00000000000000 0.00000000000000
0.00000000000000 9.21123369060513 0.00000000000000
0.00000000000000 0.00000000000000 13.48157159196899
PRIMCOORD
 96 1
Ni 0.23367978710722603 0.5372111225439182 10.535363254032449 -0.5558555341891459 -0.5590434449988243 -0.7002080642970134
Ni 6.470440306407744 9.267606425334947 4.018991130903108 0.6806093162294795 -1.0765820858856427 0.34389713200684646
Ni 0.8438153255346713 2.9251009434426463 5.631643260979343 1.312703715577707 1.182033053832306 0.5950936537541622
Ni 2.619186661854169 7.821590118060684 5.610221615944201 -2.8935112701810297 -0.24309780389958133 -0.6619294804317891
Ni 7.8263246921697585 4.000484841326178 5.1929122010275455 1.1243323566867283 -0.19690819271739637 1.1107710730625258
Ni 5.4934231729421255 4.872733402969588 4.580188305937357 0.3287733889915306 -0.024368401542035453 -0.282756555941784
Ni 4.462078183259928 8.300878239884575 10.199846830781842 1.272230438054009 0.5814017580893664 -1.1613325880601613
Ni 5.82960556838745 0.6528922429011857 8.36106812521208 -2.162102097690864 0.4731485448072174 0.49333196173362776
Ni 4.721908662771168 5.426899643339525 8.993704865261407 -1.3066801350914465 1.3476339517959888 -0.1917842412272697
Ni 5.976865561153551 1.5431856113143954 5.735680460847737 -0.38168797760237494 -0.9237757685834671 -1.5306967539898606
Ni 0.6579049962672526 1.6065220540653629 7.928902832623993 -0.7247813827610035 0.23262518650303166 1.3774921728080018
Ni 8.50199631594982 6.483547891927613 9.88432431134672 0.09074502919505661 -0.021182290504569972 0.7310026810803668
Ni 2.585206420826199 7.193208967969318 9.766009699281701 -1.0636185837464391 -1.5586443882427221 2.016442161625482
Ni 2.9211861691306678 4.229991939578519 1.8978006064672472 -0.4396252162387913 0.9749602618770822 1.1660299935358305
Ni 8.088365867763056 1.8620324649829134 2.404492148474985 0.30246560433493713 -0.7780019326480407 -1.3338487250864384
Ni 6.467621668903119 3.288244619855405 6.819126951567209 -0.35684880707150796 1.9724958379515192 2.1687134323597945
Ni 7.774935219495581 0.954053527913238 7.139759863445356 1.5182649559844108 1.3253358025194206 -2.8463814065727626
Ni 5.884891392906255 6.835711777799483 2.578148773584229 -0.32338564231705597 0.6143825838907612 1.5032463710883917
Ni 8.073323923171385 -0.27706101322414795 12.526833816866603 0.5955561952128775 1.960937443689958 -0.8433539756912894
Ni 2.6601305955406214 8.034894656278274 7.871552770638567 -1.8126457264286846 1.6219467478457938 -2.018662052094936
Ni 4.354537030101472 7.573071033502642 0.9621124362557077 -1.2825253922221138 -2.6719788511570504 1.391664350543326
Ni 8.381854195123632 8.004165980737664 5.313680685743649 3.1899823474954285 3.5427472143055505 0.8498280134514075
Ni 0.6336343166563563 1.0622302561952857 1.0852436024095113 -0.2626109342318445 -1.1805605830518378 -0.7166194157755014
Ni 6.441351230461328 2.6905737228372977 3.456445431258802 -2.00060622303449 0.7815585396510475 1.4799488340130316
P 4.431542943626499 2.132124258808373 7.1571239600465555 -0.6425958131001837 -0.6806306563857182 0.5822949593275972
Ni 1.0554692106776578 7.504217061780205 11.526972823886384 0.21360570797773534 0.6823196140523669 0.541717552125867
P 0.3182711515638152 3.756930611719092 9.90140562307409 -0.2941905088103385 0.3187975087257413 -0.2844527126972843
Ni 5.705567095716635 0.23631972667855053 1.8242857505051373 -1.2627739206267994 1.1370706301890032 0.30740315084587055
P 3.252376075924011 5.77190640064573 7.3392466300267145 -1.1338824622690087 0.6829461918927723 0.49987104840372626
P 5.24760297985093 7.188105944513234 5.046705052270525 -0.02786793005486168 -0.06067700616508259 -0.6964339419665618
P 2.7266172802085213 0.3929549130793136 9.417902440720407 -0.34920517448332117 0.008379996533579116 0.3025167692878467
Ni 3.9461846188106238 2.4776468452003932 12.950114874574917 -0.8664818199580044 0.2569208258256027 -0.17959464113961326
Ni 4.502322063187062 1.1696700857833138 11.001326405221732 -0.303009135543233 2.206907684041328 -1.0805467269603455
Ni 0.9809134853102451 2.8525993231848124 3.2589943473196725 0.5399203510161282 0.4083055801899032 -1.37318943166759
Ni 4.378624406162231 -0.12084954357244605 12.980286270478175 1.7273244393523606 1.433550963474783 -1.985704109111677
Ni 8.133666714977899 7.205846780571751 2.591171615754286 0.7383884320214766 0.15628501987939536 1.7016553167210304
Ni 6.17894160552102 7.497262580355397 11.719732626514713 -1.6685857878605714 0.6391086258825316 -1.8798435644314206
Ni 0.3868404961656876 0.1017270224626427 3.5249318747575975 -0.5502243040452975 -0.27941309339084786 -0.20675191828069556
Ni 2.009016120738757 2.3894584939936214 10.111704535743447 0.5486836990310551 0.3731146341110671 -1.050415969013236
Ni 1.6961657801928223 5.174318404730701 11.088133992500586 0.0942242459929087 -0.11447451160151252 0.018945687864567372
Ni 7.364104986346092 6.344799079077435 4.842216585803509 -1.3563276229152448 -2.20813821401432 -1.1284818600787274
Ni 6.084121166068074 1.3472626710419884 12.988132399322746 1.4844657480467789 0.7542061157800237 0.5794829438000988
Ni 3.6905360393879443 3.4739338795146177 4.123446520780357 -0.848487440263113 -1.1177431335049848 -1.6726823265274482
Ni 4.292840186944699 -0.09564760823698269 5.866343652777787 1.9164303624165187 1.045451168808793 -0.07362251058215707
Ni 8.612310050444522 3.4276474302965245 0.7132847753695455 -0.026130892759096934 -0.41365835986138433 -0.30368919232939307
Ni 0.4339476663042451 5.340986466850538 13.293301492106895 1.538063735877893 0.6040274659086823 -0.11025301732099721
Ni 6.5499332530250856 8.226976512108104 6.504386465871114 -1.1245730119426245 0.5620896880243158 0.25930578111801145
Ni 0.6744778478957489 6.698436762337345 4.131562538771614 1.2331964640799986 0.08429284581180967 0.772475860623489
Ni 2.400189581225279 1.070907238317364 6.703428329865959 1.416329971610806 -0.05599322753616809 0.9828196100205009
Ni 4.355863447750707 4.350401186181289 11.165760743175325 0.036089803744021716 -0.0658562363731769 -0.17728296228730112
Ni 3.955294528915438 4.025152525108477 6.281104319336502 1.3327675762071176 0.684351299770415 0.3948813363641973
Ni 5.983000242781263 5.945851337369009 6.738723013939385 -0.854839864843702 -1.9140623764049747 0.406129655584507
Ni 5.199907211880524 4.800416007385259 1.9003622505523323 0.6156989887093396 -0.22071557954963925 -0.27398343773484424
Ni 3.0649458931001767 1.0325056051252781 1.7487213950502858 0.18735448759069023 0.2122067707476797 0.8547532186671667
Ni 4.93377624853542 2.518028893632656 1.6130297906569215 -0.005010565840713951 -0.30507296005079715 0.6463264837872095
Ni 3.377980458319617 6.0017266808430305 4.540417883421131 -0.166269641895933 -0.989555643192754 -0.05340978307970802
P 4.441030514311999 1.004503454752541 3.667621253374043 1.0244126029709388 1.510837038951456 -0.32793880890537713
Ni 8.173348709650844 6.735161951000537 12.085069497665547 0.2732079930214004 -1.1009759413489748 1.109078258741135
P 1.8686829756964385 2.7424974470646393 0.9445199010593622 -0.24008781342866392 -0.10692858093345457 -0.6001859806754051
Ni 8.849950668032102 3.8781596581189577 7.5188205516489335 -0.24141321710830685 0.12828005002603715 0.864539351519653
P 7.303301632855817 4.733634563239751 3.3526919373876063 -0.06205228924605443 0.7363685733779706 -3.0921480155537586
P 7.759690627763055 9.157182156036141 8.878396799867987 1.2967654470808956 -1.425131629062836 2.5121781048149123
P 1.6228259376705418 4.731175163848461 4.320843258440803 -0.33302985027503934 -0.9470008005496787 -0.14051207331585477
Ni 6.626579928436778 0.5003707934597861 10.829099363578887 1.5295271591617916 -1.0214311517451118 -1.4992873864406437
Ni 0.06471812780225354 7.732876726534423 0.4753982178428362 1.2395499171018522 -0.45668834236866507 1.0718296588023217
Ni 8.449133045887603 1.8263665681923746 4.646032967618093 -1.715806154300116 -1.3054115527916679 0.90154729620257
Ni 1.0751904619763517 5.68447337060033 8.805745036501246 0.34863541802278025 -1.035779450046984 -0.17209961831414877
Ni 7.869147717525961 2.2043034858875727 9.3635441874327 0.8329389510055527 0.5737306146973539 -0.5328583019630242
Ni 2.083313931563263 3.530969838431719 7.499838962414362 0.13311963750652556 0.4096232705600623 1.4982458325500068
Ni 0.4287626628684511 8.163999307470473 8.134240574835866 -0.9974360743820951 0.5311672874138466 0.019950989200630154
Ni 7.962669373030698 4.432436433292998 11.814521747773163 0.5491488115929317 -0.7340990606175035 -0.19193207965904363
Ni 1.5579512188958093 3.115626100781361 12.332469417332046 -0.5133729395449029 -0.23404289278616466 0.5219948768859591
Ni 5.654518438688441 5.762345140090829 13.09396302638771 -0.6740540316094649 -1.386330082814606 -0.40151658229252785
Ni 6.876720190121663 4.592592153204438 8.884733207513186 1.2371117399740048 -0.35468548087160207 -0.303179085462194
Ni 6.581490939596466 7.946890529745008 0.45430449272653095 0.5499854485616141 -1.4411442024410082 -0.38911178087027176
Ni 1.0300093607992875 5.760981877506894 6.570581154431509 0.3896627682777354 0.02263522090101263 -1.817113275281735
Ni 6.4716193443181735 7.264678930055525 9.023727960302491 -0.160323194504511 0.8316549420868063 2.2732745415023365
Ni 4.7484001708211645 3.1436374623877734 9.16695619608894 -0.06572073923657713 -1.6168256245691448 -1.1682252014149366
Ni 7.468652488560093 5.641023981354211 1.0323637521266793 0.15431478352690198 -1.2344020543523258 0.07757661013389865
Ni 6.3450938385550435 2.7901379476329935 10.91290040418614 -1.122056673278674 1.453830539659425 1.2100606493934838
Ni 1.8524896268953623 8.046933738691816 2.3181027512049885 -0.0378504951888703 -0.3528949646300826 1.053124883303967
Ni 4.692764319422701 7.668674427817984 7.826214157365656 0.8010690988801494 -0.6808772251788855 -0.5859734366204489
Ni 3.3259461992881723 4.94200188020741 13.085456452088621 -1.2503781180656077 0.7272694392901797 1.3100763052571889
Ni 2.46024682478786 1.2128799829538761 4.441719514590907 -0.16253228634068784 -0.49542741081007585 -1.1470763352514632
Ni 8.396002650048803 2.055182823919073 12.06850033053052 0.10076538954553613 -0.03459110771130817 0.2851057729002509
Ni 7.991399210863778 6.597288205349508 7.6399390632446975 2.0728390523579723 -1.2357449415334654 -2.0223436147115814
Ni 3.6448943765271182 7.0177257552222745 11.80311547711311 -0.3655039116433447 -0.9624801271322005 1.7689891660809987
Ni 3.946939939971993 8.11060178585509 3.4374500251737174 0.2383425486027831 0.3714596150061474 0.05600993970671644
P 6.009758876607842 3.5074811925598506 0.015323808342133363 0.2457946340054541 0.5874348516573238 -0.17615784754392244
Ni 0.29902980553960123 5.387015001525724 2.2680590397707636 0.918826909218624 -1.5666006669753212 -0.09603867349382814
P 2.149192674808597 6.432480812432069 1.0300001495656121 0.01141801202895453 -1.168064764577672 -1.2239723743785693
Ni 2.389826943340631 0.6165594527925594 11.627491332490834 -0.8117160370710342 -0.7123261877167861 0.7529753286967161
P 6.306102686407743 5.36764377710669 10.758591054288376 -0.578297922353062 1.2397720604149873 0.6600345774019214
P 7.858582432500458 9.03237915097028 1.797147613851138 0.7752408249631358 2.066071137506519 -0.6036322873527927
P 0.5381082967038868 0.3489943003642189 5.771703753504876 0.5412997478621581 0.6360780665863238 0.4793212492768326
Ni 2.447627434652778 8.65308818192482 13.690535944351728 -2.923610146448939 -1.4177348223781325 -1.194739445655381
