# total energy = -340853.0023297005 ev
CRYSTAL
PRIMVEC
9.41429059335331 0.00000000000000 0.00000000000000
0.00000000000000 9.41429059335331 0.00000000000000
0.00000000000000 0.00000000000000 13.77876589445052
PRIMCOORD
 96 1
Ni 3.626667172455483 5.198891361819643 2.6379727238103143 -0.124472760464805 -1.4591738062492094 -1.6389671936631902
Ni 6.8222822206599485 4.715665238996999 3.6597781739668998 -0.6749405479794763 -1.3191535849681089 -1.1604825813550403
Ni 8.674995784517629 6.673310486015877 11.910103781839378 -1.5477225991238959 -2.2268062227374683 1.3615461910017066
Ni 1.9763231995930601 2.384140854613695 5.50256436837424 -1.2766270244598077 0.18838987083374006 -0.9099810287922199
Ni 9.174150887055754 4.349665862874807 12.645035085609393 -0.9538674457625249 1.7375607723683884 -0.4201141427890572
Ni 2.5427904800068877 0.5862645921417737 2.285842480617701 -0.5890708445988501 -0.36327142276840013 -0.5090820254790329
Ni 1.1815028860948928 2.6634440284901046 12.436177165524354 1.4311004450517613 0.17574518548653603 0.5652403178381555
Ni 6.7664648916214825 3.248636332931173 6.602964082275932 -0.7336000094938979 1.110167378040256 -0.1588877476095651
Ni 6.331703536869343 0.31808346119436476 5.45174791050886 -1.5534587302767244 -0.08074395211828675 0.5036048044145456
Ni 1.7657725900559866 7.64053470349135 8.396146379448716 0.8597151906581323 0.39590206431922786 1.2480888078107988
Ni 2.139256327214707 0.11495319551765874 4.703781579957488 -1.3736792268198148 -0.06418861886276686 -0.6165441103184544
Ni 7.830712788144085 3.4961192045390685 9.139868747792207 -1.1456180055383818 -0.6914863681532994 -1.5383136471051702
Ni 2.174635231334552 6.868958273514177 4.445636082802456 -1.9103556169773488 0.46976677281917806 -0.366542123099872
Ni 6.917008812797755 4.705610776623397 0.2729560591458084 1.6587063239633302 0.6469882857409245 0.6712561571493536
Ni 3.872427228881385 1.3212956873922774 12.360958866392709 -0.8997305547088054 0.732468466992616 0.6925348640224718
Ni 4.9744076021768295 8.719760736377623 12.491857045919886 1.2905994274794998 -0.6591524319072841 0.98181019491938
Ni 7.979383265488573 2.805204416525394 2.259097422418109 0.1390437163004444 0.9328805590982128 -0.5191550934443188
Ni 7.564071835140798 8.455388627411825 7.203222075983362 -1.1779725106096872 -1.0986071840064822 -0.6804599351358087
Ni 8.055083576299555 0.42236555830333705 1.7559657235254804 -0.7592243949302215 -1.3551068631342662 1.3763189784355072
Ni 1.8535326071409228 5.228301605691488 0.47652597219409415 -1.9122487202350036 0.21228184695998925 2.1687322014128716
Ni 4.025748365788194 1.3017892772442419 3.8476930631565134 1.59376282921241 -0.4156159978083874 0.34592856061457844
Ni 2.4279643774124913 4.791789192885519 12.26217848071738 -0.5788453102160999 -0.005510131184951801 -3.3253545284815567
Ni 6.387021908505374 1.812862871697142 0.26584073830126914 1.5065042159040571 1.301089014156914 -1.0188348517728454
Ni 1.0540051483367623 0.6568736545897934 11.556609407937087 -0.13208631114600478 -1.5760474142105179 -0.9122939931961127
P 2.129729065115377 4.337860342447376 4.09150812714198 -0.008580542580159417 0.39129284768199063 0.745607061257103
P 6.531201769227944 5.425568651175049 5.5956811168173965 -0.6426217812421127 -3.55071609144364 1.484594046094527
P 5.981416611778556 0.17513404825478118 8.314672284205404 -0.9164985181957637 -0.4000567099175497 0.2940424132682484
P 5.235371737941089 6.431325560125382 1.3429090157792754 -2.77692331178094 0.021132153992924896 -1.4303303996549561
P 0.33577197182522583 3.60651117625522 0.7470597343654386 -1.104607367453975 0.9794332100467712 0.3130670339998673
P 1.9132474524927519 4.458052590690605 7.5827027162619185 0.7878927093991914 -1.6290491632185298 1.6624557637034338
P 5.485161110748923 3.9171545235789322 12.831269523924767 -0.5920096155121998 -1.5758280991108602 -1.006909561090169
P 8.162255860626408 6.558964512242691 0.1658044862583027 -0.17042865836962906 -0.03975593974169927 1.0431520883619712
Ni 7.363020244831218 1.1728040815694174 9.811542608653104 -2.012537427254437 -0.6622886635434206 0.25478321065730963
Ni 6.287625828224022 6.717181080267733 12.528164199094073 1.543500333512432 -0.6166209863029767 1.071492587177877
Ni 7.368395804770662 2.2040548894970087 4.615307959644163 -1.679420159471914 -1.0523692360848649 -1.0017277597789136
Ni 8.971574181667034 8.945421282346935 9.144388548715021 0.7462480372752115 1.8537602370808075 1.5978192586699709
Ni 4.079673422413651 7.740024926678822 9.433618150612709 -2.062251763760429 -1.016125166151166 0.5480501792121142
Ni 5.937809617663836 6.566938416391045 8.835000126329886 0.491542988154005 -1.7661846067526679 -1.182120214229474
Ni 1.691324379896399 1.1995406669074586 8.867711020490294 -1.5494874043338025 -0.9541155572175891 0.8453360391183248
Ni 4.044595775593391 2.273325239820004 1.0161192186269457 -3.1568390279742404 3.0436174149432227 -2.3999635928921697
Ni 4.542988320591945 3.588153309561847 4.171576668796923 0.15265873598071775 -0.9059644514336591 0.2357989562453229
Ni 8.540587957450299 5.531968963671718 4.826976986905941 1.594730335332002 1.9960270883042397 0.7477819574212348
Ni 3.8144916844552217 9.346752491135911 7.7022058384323495 0.38054795046066076 -0.29443373516939614 0.8818495606633264
Ni 7.175167489959643 3.5650035689469726 11.303286851862577 1.2380352802295387 0.7248798560120806 1.7073629086287692
Ni 3.183837770648871 4.2059096452297755 9.800946824569312 0.37213864335104296 -0.7830114700474903 -0.5399416911723669
Ni 4.422937286707896 6.1440767249724555 11.579399522650585 -1.673837523177814 -0.29271006761007007 -1.951313033226317
Ni 6.813734044784265 8.315049797258945 0.45065644302141705 -0.1927221796605068 0.42994038485085956 -0.14496265288804067
Ni 0.6948593757800969 8.868299413653544 0.40139993311044353 0.703546127531311 -1.4185082102090474 -0.5529658713461767
Ni 0.5124659680344131 1.5224508348985886 1.2329971728843354 1.1146382693274157 2.0527628504333872 -2.0387950753993858
Ni 5.366701091978299 2.4167048858405553 8.551047234320217 0.39492658777983597 -0.2606769504339253 -0.298524360299002
Ni 0.5871062297224853 8.891825725892897 6.815225268417204 0.2808498258373744 0.8042809209492277 -0.7497534793253088
Ni 0.8322882487048117 7.5547987588879915 10.924425671906288 3.2486014426902186 1.5578578877856848 -1.4872998750614643
Ni 4.023441864588257 5.736494427217121 4.81789690361068 1.8624191983073861 0.44018700227953217 1.9087982997925577
Ni 3.5877202521936957 3.8189164010428547 6.459926175004596 1.9866924411668754 2.58822927944322 -1.7518460786428087
Ni 6.611976382678787 1.0784352324748667 11.997874154643988 0.38753286641892615 -1.3836533073133912 -0.8512755445312113
Ni 1.439652148966169 6.162500491700113 6.654110981741793 -1.4763839994799088 1.4719388192243619 -1.4884129056199848
P 0.3215385058489637 1.5576791103686414 3.255495585071066 -0.07344227625055093 -0.3272135007035784 1.79046224835311
P 2.8296533292447226 2.0412912191063777 10.443353538775668 0.4871808545305675 0.8055798422663093 0.5354031798720651
P 4.903433265253065 1.9411043384136195 5.862162026880281 -0.19275971776666156 1.0304071299914772 0.11366847076044939
P 9.01108595936554 7.233037134351523 8.120681411854815 0.5584412926384511 -3.276244144108151 -0.9189145838364239
P 8.45532272737754 0.650648925637148 13.359781208878251 -0.9889915431591676 0.2679356888788676 -0.2882093515262391
P 9.099759162639838 1.8392699568637636 5.910911106527268 1.1039098271663181 -0.42295624022354256 0.6304465793321593
P 8.057465391824387 8.517249931023187 11.139208946502512 0.029742007149122975 1.1729303202000896 -0.308363714986927
P 5.702913652604165 4.796609309678857 9.979009658633482 0.04211544111281134 -0.4707980422971698 -0.13595864961721746
Ni 3.7482809785811217 7.392543460190407 2.7308550564172323 -0.7847112263474164 1.0134383633476223 0.9383698643475581
Ni 2.5725584669219885 7.3541331544935025 13.375295959806804 0.32254874823805735 -0.46894324847661817 0.0895425242465232
Ni 4.409503094004592 8.731359142411591 1.1607095424201985 0.49382381376838175 1.2693297194674462 -1.7059876255477973
Ni 9.165197896683756 3.4153257625070026 4.461275102367088 2.554302801899104 0.9230982829004682 -0.9199790205451962
Ni 8.550906019961038 9.22542111372863 4.918068721438459 0.4233786724729418 0.11898216966387898 -1.1998412856583207
Ni 6.376553217344846 7.328808712747259 5.275985929070259 3.2537179379811767 1.8427572011020843 -3.967965253980076
Ni 7.778868289743877 1.3005089337210114 7.49133608444353 0.5042439806604413 0.8342900657168083 0.20145595998907884
Ni 5.13731248692664 7.4693734858748275 6.87525925822078 -1.9464245947857641 0.5862110065525518 3.24778640298809
Ni 5.096868694457547 2.8535279702367196 10.931439318412218 -1.4262546869236854 -0.32565746907036813 -0.24685727094201357
Ni 4.459427077119956 0.4876000022409737 10.262286604577211 0.48315399275936144 0.26523603055951744 -1.0873709489710306
Ni 4.055591667028191 5.141049960299599 0.003310064579174383 1.6658809873348985 0.35388612489875826 1.049830014602779
Ni 6.8345019698743075 6.7077385467839115 2.380529532734937 3.7608279273355034 0.5741113950755402 1.4059853951516883
Ni 6.0287799078474595 9.094280045503663 2.945486760934602 -0.06525742644691343 -0.5731377183083614 1.2194714011844225
Ni 3.174432894327497 2.03263007174335 7.453830492074438 0.3213778678584078 -0.8866811777240149 0.7789977209024067
Ni 7.977199150066593 5.697924078579812 9.814435620158168 -1.8528161279999833 2.1115950900802476 0.4168159316537596
Ni 4.367091714797593 8.259656111298018 4.90073512956367 -0.6717603504792817 1.298288054373009 -2.1348846567358075
Ni 0.1316842727932808 3.3961865096928343 7.551121536974949 -0.32645193994720556 -0.7256619855937438 -0.7158000051979995
Ni 6.095414256799099 7.966692801743616 10.486192326776449 0.8092107541506773 1.625676390091555 0.7078537537677293
Ni 5.58306973311358 3.696012837103374 1.8386250779568425 0.165715826274992 0.2696187330082453 1.0731548053716486
Ni 2.0541228972105148 3.457511198739313 2.047056530677158 0.1629806867320161 -0.8894394571954425 0.5290175880606954
Ni 7.7432822712305684 5.415184688630028 7.439871923384046 0.4434083374303073 0.7158084898384318 -0.24295202235033644
Ni 0.19634067928734147 5.767938157861154 2.3423075128502724 -1.1606407041994593 -0.5769552922822385 0.46605949917091993
Ni 0.42744739237568724 4.689408782480168 9.809061943076843 2.8945883052952923 -1.3130793537495709 0.5411344259288874
Ni 3.6501369989511643 5.812034695087699 7.728275891995063 0.10541831493651521 0.4752108266528849 0.7013236659586953
P 3.1281616559695844 8.475676423680655 11.682505774862118 -1.256441036430236 0.49250406651569373 -2.002547920141893
P 1.5924178427268707 7.138291713632493 1.5877135217080613 1.75254464737173 0.5014625612605622 0.09931631580383542
P 2.7738924859499274 8.216830503304092 6.2279881800552115 -1.6400768817876012 -1.5447612025027266 1.08653019823729
P 2.311669645482624 6.104291932846201 10.051651266424631 0.0795779568346436 0.8102857323824109 0.33083284262372054
P 9.236671191009956 8.071916327913787 3.0193550507924916 -0.841345687012009 -0.3563584976986508 0.2282723088509746
P 9.129433006648819 2.1148356573672147 10.235459642049294 2.058058551614688 0.7454818485331485 0.317379288221976
P 2.4666476975371427 1.324995503602788 0.18668255854850474 -2.3055074333941135 -1.3669136259612071 -0.472491885059825
P 5.4276774522721345 1.4153821077684685 1.9344418449475167 2.6494680716490437 -2.9209716803848274 5.2431154367840405
