# total energy = -340871.0986760398 ev
CRYSTAL
PRIMVEC
9.21909962887739 0.00000000000000 0.00000000000000

0.00000000000000 9.21909962887739 0.00000000000000

0.00000000000000 0.00000000000000 13.49308418772945

PRIMCOORD
 96 1
Ni 8.322975249665339 4.635870211321554 6.908890786784683 -0.24288980165383328 0.09714913294918753 -0.10666195753562922
Ni 3.8579072922840956 6.022136963777451 5.703297177959486 0.5739843825793728 0.3812532040578015 0.16462233610049712
Ni 2.1725821755182877 7.359441079504414 2.1753147165701527 -0.173413709139882 1.9943167904813524 -0.6982483694674814
Ni 5.718358420592524 4.6678236097215695 6.617723049621505 1.0768222269209067 -1.5456852569788928 0.08954021025367805
Ni 6.310823841301435 8.30008422594138 12.202902360783375 0.3255214577131361 -1.6811381706042854 0.8330662206120362
Ni 8.732082003098446 9.021580161366574 12.8273488371904 0.30196398210817027 -2.392769646246892 1.9109652255368894
Ni 7.324906333282122 7.688166505571754 8.18223279111542 -0.34814073777454885 0.5612008576614593 0.1881016501693599
Ni 8.485406561381986 0.482019688403071 10.644923429279816 -0.47006887744062914 -0.9859784673644568 0.2488287928460876
Ni -0.08006234652772846 7.511823572912919 9.95504900467749 -0.051614895962814336 0.3457730088733207 0.07886936080339321
Ni 1.3231620173006426 3.432906811545267 6.61132776039182 0.430171269914743 -1.6261602717065091 0.9112503824229469
Ni 1.475931712882489 5.225339424736752 2.4090548399672067 -0.6957001491243309 -1.5047316973846667 1.4680058027185428
Ni 1.5493065247306526 3.419760375850396 0.6824060322065238 0.3500101868831198 1.0663604081576346 -0.6563905528914309
Ni 5.861365089946553 0.40893527818491343 0.9776550646587053 -0.3807690653325313 -1.3588604166394274 -0.41298627349502426
Ni 5.401341250719073 3.1351667784445905 11.841206669656028 -0.19905943473244428 0.3047281751168687 0.5007940744386278
Ni 7.719327061426358 5.864038628762479 4.098227086898141 -1.559987789644494 -2.3349139115806885 1.6240375689365514
Ni 3.643719956730837 3.689345279489546 6.239498435242171 1.426788962160601 -1.4001070819940402 3.716756648047902
Ni 7.783464335710524 2.597011072096469 10.883925814594564 -0.6243579499359182 1.9179581119149547 -1.664727847567062
Ni 8.341395010197143 3.814863317347662 2.5606094582527112 0.296760840640676 -0.9414467035006691 -0.46627032963014536
Ni 4.190938037755016 7.620378467938943 3.976087848957395 -0.33189907910470584 1.1613834959027547 -1.1748661037702217
Ni 2.5629833763392673 1.3139244797366445 4.215805636382888 0.1492473963063236 1.2372107274457143 0.4554734961249575
Ni 3.066484488173348 1.3997174184298231 6.664679610328558 0.8179813012544558 -0.2912393966018145 -0.20427157506100302
Ni 1.4698747645995083 0.8415885333068504 10.01439142538178 -0.8919835637735347 1.478561723857518 -0.42039773546774695
Ni 5.805008735526672 2.2873784008145974 6.799448092489784 -0.3621843603518085 -0.342300734054004 0.4884363242042234
Ni 4.016678621552731 7.986487341932443 11.292024920467048 0.5534029588835953 0.3126183764982229 0.0018853899481709468
P 1.244366375025702 1.3754988443972656 7.685552890901701 -1.5960606241076511 0.5051029862266269 0.9183345429632377
P 7.279078190337377 3.435497378466907 8.386626677412956 0.5029067499062565 -0.36073065862441744 0.5211384424229347
P 9.106884487793394 1.8441148842331743 12.441918574747172 -0.5522516188879715 1.6958644210708664 -1.2919142896361815
P 2.3635373806710716 8.251748487969282 9.91316663626108 1.3213739896581953 -1.2583390247838975 -2.8509386869261415
P 9.091479372754032 6.510481876255032 7.611461755032856 1.1687571626590065 -1.269643394053123 1.6202747594600098
P 1.2901760797717154 6.754852543130175 4.080565136334162 0.0484624663767617 -0.34765351372548514 0.9059778211700977
P 1.2803485198483404 2.9876888458984068 3.0078381094711357 0.09095508832333368 0.158183779564005 0.37459096154627747
P 4.289351923479246 0.29665033555570225 5.179320446435147 0.49345948845042753 0.5314956172875427 -0.5248922530384121
Ni 6.372324453167134 1.2959287977756424 4.196038965433819 -0.16152904188715408 0.7727993054011788 0.9487134123654112
Ni 7.168624160842109 9.531719024743648 6.366307147011424 -1.1964510290298491 -2.3295755300869105 1.131292590054645
Ni 7.139722284331995 5.500649389081734 1.6500288729359454 -0.3024182960367695 0.046591217495977826 -0.7965365011171185
Ni 8.831934068323658 6.8922724382688525 2.6321091052899788 1.970737974720148 1.8931683065647846 -2.039954642925126
Ni 0.33046414820763015 3.1596895827562017 8.850127039011076 -0.6410001864782896 -0.22320749273355753 0.14359636866813333
Ni 0.5290638305540941 8.513856702023201 7.950786379640444 0.9901094588136949 0.29957774126418085 0.0522386455897423
Ni 2.807980941971249 6.949550702625258 8.061051417598726 -0.6385383552013584 0.9466765844410406 0.018403442207852175
Ni 8.88904638889149 1.6358462104724176 3.89209355655038 -0.5612317108993947 1.456275401655492 -0.017809517377595136
Ni 6.927987229209898 1.3099602670095793 12.682392328320617 -0.2953081673545495 0.738168859811503 0.39003686378770247
Ni 5.462685137895562 2.917430089635704 9.473898677344563 -0.5577442665714266 -0.25324543385654447 -1.0054383758612815
Ni 3.3233285964896986 8.693260375671304 -0.2311596974847155 0.3201653356075454 0.09740110105899355 1.1445337713352675
Ni 3.7296696201132256 5.128935302674151 9.6787645815296 2.423363974093981 -0.3409347069444128 0.5785745730532165
Ni 3.7608947096633862 0.9676735457759305 9.100126887958652 0.573573006073567 0.14567741956687816 0.5199896735304722
Ni 2.900660547890283 2.9406161245393516 10.746215517825883 0.29431237910018343 -0.5786823022756743 -0.9553957094815934
Ni 5.06028988880037 3.6750556754733816 4.273152122074598 -0.0016167096678165705 0.22738707803254388 -0.6102968438571619
Ni 6.772728376799429 6.599713539011455 6.119760772686078 -1.268875405538847 1.21483595929494 -0.13674257897109354
Ni 4.538442769229406 1.256609338982777 2.70321786251416 -0.637571877523031 0.3309832521586558 0.7060889485578227
Ni 7.668539043023101 0.09616442547910455 2.530965444243693 1.589234345214437 0.3786512476585801 -0.6632625974209159
Ni 6.264018473823972 5.269332966907809 9.530570324962735 -0.42606444683522104 0.2626474438967348 0.18553543210408047
Ni 4.886832534242863 5.801772831649464 11.930692779554935 0.4068264245412154 -1.2010741296241574 -0.7951995274732498
Ni 1.6541645609112043 7.61426620505977 11.674944822153114 -1.3381445242483148 -0.7250927433538351 1.906183744987846
Ni 1.410024371520192 5.620516119028941 6.063522422738074 -0.1948669939176515 1.6411377189519478 -0.0032380473213234557
Ni 5.49794819296771 4.035660747145816 0.9948035113880394 -0.36710416625092906 -0.4355387048742435 0.769960550400803
Ni 2.1553516788046028 1.3351929419723165 1.8208375802458105 1.1200237020090453 -0.8730147359805157 0.6751606344100823
P 7.273113433048049 7.370937296412903 0.6732671390057342 -0.8899752750942543 1.8263311943355771 -1.1910385997650264
P 0.6744370427151867 9.076802566564526 1.2836249877627566 -0.259706616100856 -1.5545146823450646 0.21342393098423243
P 7.024898401737588 3.528435119168168 5.076624289055751 0.5655496215484582 -0.05505965997830517 -0.17167024408621404
P 3.433616682196393 3.1604824253016144 8.392131401643956 0.15430938421026327 0.3242528754133577 0.0489121523196706
P 6.595804640880582 2.2329857145595198 2.0717547295802308 0.2644873253189509 0.014007627133001683 -0.4058092961306108
P 7.318941575992794 8.464645149611403 4.600871744401188 0.10863502210159999 -0.5562291154784808 -1.7105346214885317
P 3.616099535032496 4.541005678852951 0.25036584719237714 0.7346883574620702 -0.7568666933313223 0.06493115345574624
P 7.108598604874852 4.618648933707233 11.758304840523799 -0.8052486841791356 0.7571065772562703 -0.6966673981336067
Ni 2.6573592965415096 4.190689122072154 4.577069873659941 -2.8330054994864886 0.5230713977795894 -3.804648009844247
Ni 2.1548169710414173 5.98368410032492 13.611553086498143 -0.5760708327947562 0.3185295997763353 -1.0933639333296719
Ni 0.8699649211531436 9.077051482247388 3.5524591702041186 0.22769998128727237 -2.6583877427361764 -1.404606769636607
Ni 5.967320198951571 0.7525624564662724 10.62255144085012 -1.1100120834093141 0.09081650586294036 -1.040687943092195
Ni 4.586990546486905 8.242787523386243 7.007120290521607 0.5632065752375784 1.4710111652037698 -1.235620243030143
Ni 5.020850581715756 7.609214138607603 9.265457606425677 -0.3257366590477358 0.5879732406592971 0.06521783145822961
Ni 8.25823873392243 2.163741059226996 6.222564793528047 0.8277964875726648 1.718299610145931 0.40888459262182486
Ni 2.3935178918069218 8.191981066784255 5.339604629909623 0.07293962558251954 -0.5796688345586597 0.9441427622755934
Ni 9.071012972163137 1.8609950551709789 1.1133574415856324 -1.0383065873442119 -0.5784917835314229 0.9064077096186647
Ni 8.621203895032375 5.278229397795291 10.039245195360603 0.21660567114632376 -1.2117971724686163 -0.34048913476656195
Ni 3.4452327473966293 3.4330543171351118 2.3765095753879395 -0.5564859686842932 -0.8408931728556227 0.046425381342074884
Ni 8.334158017195408 6.612620278122829 12.142061836432228 -0.38519676208658177 -0.3006169811619726 0.41692674620001097
Ni 6.298553220046264 7.507481377111877 2.696107171173729 -0.97521145865594 0.016368928276326647 0.03986058364036361
Ni 3.886809168794209 5.653253140875004 2.332103939475256 1.2699465271158388 0.9217916482739028 0.18092878657000452
Ni 4.878157361740147 6.915089709197889 0.39276313407836133 0.6971111705392445 0.5705061942227851 1.2340958359658165
Ni 4.105089784465646 2.202968327026209 0.267442384946662 -0.6586775491533946 -0.5583024530677416 -0.3939670520800441
Ni 1.72572321018441 5.111382137482681 8.853325144580888 -2.782718321196162 -0.8424697733141233 -0.5441513583783404
Ni -0.052316545078019604 3.781397986651741 4.769211576901035 0.9610670488347578 1.7881513408317462 -0.6198595478449325
Ni 0.0722519255454739 4.106343581979322 12.109624435315537 1.631829039956512 0.4901779894856784 0.4499137426489929
Ni 0.5427385206425953 0.3850449040897594 5.7720983946125415 -0.018299826750452355 1.1317389335634442 1.0480631525103434
Ni 8.225944228845899 1.171913473114065 8.429520381029734 -0.893335706926055 0.3233751007940947 0.0749322305325161
Ni 1.742990583295556 1.0268325064028514 12.969335874154629 0.04600037798951433 0.9052301443707959 -1.0285621063629382
Ni 7.50167334451176 3.4445044385467734 13.601433281124889 0.5617546732824003 0.21394560781565733 0.21790382113245696
Ni 8.910517671313197 7.381778957266456 5.690532412978338 1.0067923187860144 0.8488880181356414 -1.2252730954678641
P 5.912236080244098 0.45155609646048134 8.351908471113294 0.16376641585810506 0.07509241025946423 -0.12154144575062292
P 4.840303739746358 6.190920234956767 7.716883078184626 -0.29007314420785524 -0.37598861322475247 0.18125891621591364
P 9.260032166449216 5.316027705192888 0.795947538079221 -0.5143859541904495 -0.633922710806218 -0.8768554498828448
P 2.121683527922646 4.884057585333918 11.186374041741084 -1.286962859168177 1.5033990946161722 -0.04880622286942562
P 3.8214549733938283 1.245371256856516 11.746619632078323 0.5753329261874672 -0.7440595142643249 0.09334801403554246
P 3.894682279652147 8.588559064179963 1.822011171595009 1.3049189294259655 0.11367901228341067 0.38040808244868674
P 5.501543641720165 5.926156920285651 3.919025311526136 -0.12557036440435793 -1.5672172175133976 0.7852269896415702
P 6.845679110076791 7.41017378331148 10.282971447190116 1.8224745395936484 -0.31833291038449696 1.4581219679459276
