# total energy = -340858.1278827005 ev
CRYSTAL
PRIMVEC
9.43627654395460 0.00000000000000 0.00000000000000

0.00000000000000 9.43627654395460 0.00000000000000

0.00000000000000 0.00000000000000 13.81094455552424

PRIMCOORD
 96 1
Ni 2.1514332598359327 6.119906454937165 8.754094894059472 0.5519644266648559 0.3768707587193897 -0.08921470859345926
Ni 1.347849403214026 2.803857405808039 2.2910005050051607 -1.1472326583236694 0.409946458227436 0.45820966410919794
Ni 4.8019323026075424 5.171013378994684 10.244502842041701 0.07574289935926955 -0.31653185262001615 -0.014960735074890364
Ni 3.791495832392137 4.69290556580451 3.779033342233251 -1.072568079630243 -1.1592067999664102 -0.6832146150628104
Ni 2.5727441257509254 8.731830000041231 9.504609132559493 -0.03886505249631371 0.03873444045572039 -0.06932388320680319
Ni 7.437842862161437 9.465340068581147 0.7257940253787729 2.47777854428912 -1.0051200732899142 2.679383114040921
Ni 3.6768450748919768 2.1286635250336374 5.808110181311852 -0.8572790704128138 -0.5175813211992957 -0.9440843982338322
Ni 5.440437940981893 7.075923919514429 13.035736397365485 0.04123509539038705 0.8885346859929859 -1.2638792378758361
Ni 7.791948568001028 4.409694604088269 11.035482664359662 -1.121794677866539 -0.16553070684737944 -0.5074673726937454
Ni 4.138505458425956 2.066365228653715 11.118680425571794 0.26440762112095106 0.9414184213658947 -0.4408151227818344
Ni 8.757317382428715 2.1036573927393634 12.057188879404897 -0.038947327797474854 1.5644602235935507 0.4153992538118911
Ni 7.560844724220251 0.9212476171566184 5.696751740625833 0.31406127959233654 0.8747983102434997 -0.767349338030201
Ni 7.507492017808242 3.2875703671426666 6.624834052733674 -0.30395812972006364 -0.40072031164347766 -1.1522257406628866
Ni 6.326777941083339 9.562911165910501 3.443814343483091 -0.10648275164528757 -2.542131713754209 1.2168918133827042
Ni 4.241049473385153 5.031828303017124 12.82329562092494 -0.33125373221122306 -0.2266121475397323 -0.3399576877431242
Ni 0.6911223152320372 3.4185458827066357 10.592856193825977 -0.8235757646230977 -2.6701348559697755 -1.4386813427228127
Ni 3.8018285549816575 9.120047844840746 13.579790571367646 0.19996934814122336 1.8315389637887618 -0.44003427875175183
Ni 7.327919679106345 3.969143170721192 13.437165029037445 -1.095566083187313 -1.8362420256913858 -1.0083318953589926
Ni 8.888604295111822 8.598306689866147 3.5915222642486473 -0.6333426699330318 1.4180744651057384 0.857926988409458
Ni 3.6908390727004323 8.55651342196753 3.152209813964679 0.770424377411099 -0.4180629166869832 -1.1015536682293159
Ni 0.18590691100723547 7.292788422301975 1.8528902363265847 -0.8522147685160291 -1.6330837382992196 -0.7799130336278245
Ni 0.6664077638765911 0.17319247227013948 12.921823556674914 -0.3616398007022481 -0.2414103888948294 2.070169218835293
Ni 5.678920952858564 4.555739852963165 5.130020307329484 0.5451373764406934 1.029113350880718 0.8178049235775915
Ni 2.430445078582002 0.9359842499128325 3.9685062220684135 -0.014957906861412948 0.5292705846117659 0.35438671868426064
P 4.205871035199095 8.784125843503444 11.401252551379988 0.016699829253184143 0.04214886545390806 0.22998466355639102
P 7.338658161578377 6.675703131213663 2.1253797008682005 0.7287051432954418 0.8917115410590707 -3.5459217553787896
P 2.18170483432651 4.781266857428501 10.416435571420791 1.5333640164093787 1.958419562364111 1.3703105674578981
P 4.318785517853163 2.3723553614485877 2.8844573601444683 -3.980800972292164 -1.6043326343084563 0.4486585300856531
P 8.154093981280134 2.8688733497731507 9.487303945384223 0.5835409159195563 -0.4711947635149562 0.2533832449859894
P 8.476031421085318 5.623388466612602 13.773171013234151 0.88284020671137 2.7035450559991054 -0.561346124990072
P 6.887575843818692 6.502292680960128 10.794496208370662 -2.3247894215521767 -0.5085994294156596 0.7448318736539753
P 0.18486892061011467 6.389510306174785 7.913933199470662 -1.2144037568535277 0.8820423934004229 -0.11317816138759218
Ni 7.984203262100474 5.9516670841165595 6.2256701273827035 0.0309671378054757 -0.021330900267292296 0.9534254731291
Ni 5.766716067902309 0.4369222414876896 10.436088504148822 1.4401805529761582 1.542244349618144 -0.9789375013572754
Ni 3.257931023166699 3.947156646854906 1.0977654332080793 0.7193237020805419 -0.5453695470561576 0.04840333100405213
Ni 0.6755949225187439 9.324409281481156 5.611525180001145 -0.507416464851152 0.5565903554726415 -0.04424688563351735
Ni 8.685686608751043 2.2146185661915765 0.7651178197598774 2.2644281468553 0.9208326267947432 -0.41664263930068896
Ni 6.861701574101372 8.880611769053992 7.514714543716935 -0.7849235994685385 0.8933251654030938 0.4354291758795727
Ni 2.4646043989236137 0.6500707386535434 11.72223220913692 -0.42351005584448354 0.12851659151687544 -0.49774217498618145
Ni 1.8659859006277142 7.971832303822061 7.127511098623699 -0.706927642409034 0.6739234195688717 0.1965130141615067
Ni 2.6672012518889177 7.169626143545424 11.427962875180805 0.44325047169620435 -0.7926718759553898 0.06426420929570868
Ni 5.342272358243279 7.743823558679972 9.820464892265182 -0.9647982337424158 -1.1377679133663436 -0.5026326703092634
Ni 0.9363928406782445 7.031790455084121 13.140063868552462 -0.23640882191517992 1.0882883185789771 0.8463218000703617
Ni 1.2058240080588891 5.951544412524171 6.070503773800017 0.5335321881015973 -1.505138188794466 -0.0841321518642293
Ni 3.772802568967625 6.41982906204705 5.5353848098618 -0.08329088690985656 -1.1809359641133856 -1.6738184970144203
Ni 1.6262950453798477 7.366693338576975 4.1607816759758025 0.3951577299540356 0.24530098219848723 -0.8894409998573392
Ni 8.656339789341537 1.445731897662517 7.801595273300814 0.5174383678635283 0.6525516387613148 -0.14154591389700782
Ni 7.813029209338917 1.6090077871296178 2.848327745303595 1.9074114467473602 1.1574761904285487 0.5875698345732914
Ni 1.0048124495182784 2.354162220669961 6.232036783027589 -0.978069239819709 -0.7758455484266702 0.9822344269409923
Ni 8.16972989117131 4.6258702587031815 1.8868372404506033 -0.07158336866494124 -0.3525064709424123 0.8272097618312593
Ni 0.12087492537235023 5.5766317173604785 3.8655724888964795 -0.08933786443488485 -0.17520731070519505 -0.6502057642369575
Ni 1.708428394621115 0.9766168558219428 7.824051723728706 0.4636184938295951 -0.9669492186471474 0.6758993123483198
Ni 2.913138922072184 3.6939058625101073 8.724400819680747 -0.9467220929669954 -1.0707737067339815 0.3633434136569162
Ni 5.248664496975658 0.69938000065495 1.497217164987342 -0.6598162907435282 2.707629510481124 -0.1422341982132841
Ni 2.862985113338574 1.1318719104022013 1.5594078878170177 0.5595460956668556 -0.3602179806540571 -0.5501281447870655
Ni 1.3528034482911935 3.825843878260498 4.640090727143736 1.1520115677695515 0.6449355169769538 -1.8271899427914466
P 2.0300921824125115 8.254212873220604 1.5964622577389624 1.2392269865447947 0.5120807030960407 0.36085227180394625
P 1.6590106154418278 2.146375415719053 13.71030370939108 -0.6174169998417108 -0.9419287853434101 1.3039737919038767
P 3.146441418239588 8.531790377963379 5.19556657002476 -0.6878827099624412 0.08994644455316121 1.6354571236274027
P 7.600212869100141 8.25749669738604 5.552883440701988 0.38411355632473204 -0.756875949302703 -0.5603040568788028
P 0.7474068727020954 8.304017539729728 10.90280107003388 2.291396705024344 1.0456357740157733 1.1312504239628
P 2.109941952780113 5.177958478379057 2.4471472876993094 -1.5321183169277355 -0.26649047179190877 0.9276468215030992
P 5.699463726445218 3.668276935977561 11.681779836105854 -0.8112457823028351 0.16390448409786612 0.1767461159472246
P 7.461924239374639 3.6171606270575314 4.388620568143816 1.292329265686413 0.6852403872435876 -0.8622775520686697
Ni -0.039524787067092344 4.193047135656485 8.253834478539472 0.6536340731922162 0.07212098633596611 -0.6788398830338825
Ni 0.3463037925637768 5.10578983695015 12.048364073774103 -0.04268339780113939 0.809032062480968 -0.727735837403637
Ni 4.006718423096965 7.419187343842275 7.43639250648837 2.2958084609387948 1.0749779746233163 2.2252555904208964
Ni 8.416262046763835 9.42778368875805 11.521738702167234 -1.623826738477326 -1.4064841891649775 -0.7118896143999998
Ni 9.161709004870639 8.627530837683267 8.582673610857874 2.093681957245252 -0.5785624888683585 -0.6405690124781419
Ni 7.3923505739385345 6.978569856540835 8.649614555195829 -2.1236077982704074 -1.9069581612600255 -2.452029974570106
Ni 7.693028083155416 7.763932263555104 13.18318198964886 1.0866515543065027 -2.2065549286876 -0.6123069323086552
Ni 0.7680289110099842 4.4340307607625835 0.37679617592065073 0.7405533008832794 -0.6466265315261315 1.806002252970238
Ni 6.090465272764284 0.07653669374551864 12.727959033832297 -0.5890430766847081 0.32767012862502276 -0.6349521805119968
Ni 5.419800804631865 5.889368787736637 2.5894274623155575 -1.697844427615373 0.5678497304365446 4.617716447178118
Ni 5.829665467349517 5.35000066856366 0.724570140337804 0.8836308209334652 -1.0513611065353248 -3.1687553197958525
Ni 5.308282890875741 8.824843375899592 5.4987588468855755 -0.24492714379883626 0.28954169718441747 0.23241821269854812
Ni 2.2505424702082935 3.731188590319419 12.484789967126442 1.1433991435101922 -0.1633601815586219 -0.7532764048769026
Ni 4.714967579881495 3.8372712089051637 7.39816332016241 0.4565723856160911 1.259208314762728 -2.108095304457105
Ni 4.357889446995604 0.8656358661894212 8.30215953691888 -0.3623059735313373 -0.8252212706463207 -0.8057695896796122
Ni 8.801611263556762 6.9404284275848145 10.239641272472642 2.75314163598031 -1.521513801939012 1.741127149563408
Ni 4.731424445814028 2.1808650057324757 13.433822699958716 -0.49496358379977984 1.0757166525615538 -0.17953164911216177
Ni 6.787702295062996 4.208513192573585 8.57562943057196 0.5830102402270669 2.7592122676544224 0.27408859585414086
Ni 7.511785523541788 6.678175435614079 4.0496865073995965 -0.8370874259562874 -0.4135809696562297 2.8359581543569097
Ni 5.741558955186635 8.103619339151052 1.8512190717872201 0.007980447102315288 -2.5075107812462303 -1.3448517610651614
Ni 5.369411088989819 2.6595012503975486 9.210946551171881 0.040357063660807914 -0.45248561714122715 1.5637498277900876
Ni 5.886113272400212 3.345131652801183 2.2779633456173234 2.4316606668851346 1.8657693457265416 -1.6153755223861794
Ni 0.4932228406275215 0.37907126214561276 1.5958819267442086 -0.09719669835767132 0.015019099116651552 0.37625729350510684
Ni 5.93419110033958 2.112291585588141 4.330214735753097 -1.263007119683528 0.48802546191904983 1.5117780627084867
P 7.817464259217523 0.44027117595985477 9.541428539200636 -1.8640248522316092 0.7369529851265307 0.004659353148882298
P 2.3152847621596186 1.6830259387206679 9.761354170032055 0.34224879777014605 0.02617485862315492 -0.01442157474196871
P 3.5288465168152263 7.1878570294294 0.19713607984881498 -1.0664375412524731 -3.116728790216916 0.17175611893180098
P 0.39352858112223793 1.649697010696753 4.2138984754793745 -0.923181586642894 0.06320285791072985 -0.949668577189829
P 5.5832559833493765 1.9233207156541319 6.582502917083821 1.7804213191773401 -0.8211964657576438 1.331256795989546
P 2.5972690079519887 3.8507462115150597 6.417655887606532 -0.20876406361471786 1.751706467741151 0.6002672275353017
P 5.837733483618045 6.06791257231775 7.027961214146378 -0.43150335846260524 -0.6250207803308978 0.33053793709112106
P 6.752136969547103 1.8362710664410469 0.2520023649853526 -1.6210093236331886 1.5384409167116535 -0.5757088214696472
