# total energy = -340890.0773476913 ev
CRYSTAL
PRIMVEC
9.06201587135777 0.00000000000000 0.00000000000000

0.00000000000000 9.06201587135777 0.00000000000000

0.00000000000000 0.00000000000000 13.26317623033182

PRIMCOORD
 96 1
Ni 6.165741148868733 2.2962332346449217 11.105495779016358 0.4398774414589134 -0.9983123063394614 1.2050714237090085
Ni 4.516834885783142 0.36806192577879515 5.836421152853639 0.2873945689344276 0.21144418155004227 0.7762656666832244
Ni 2.666325958154828 1.515078414388374 4.850117701288708 -0.6102143114456846 0.13875086765037395 0.0013575424691589523
Ni 3.2494304240453373 4.73035410104613 4.874230819016121 1.2225361561526753 -1.0742107574399888 0.5050623627966786
Ni 5.046020357920373 4.250746917114647 2.746445958065899 0.14754275491039107 0.4958313311167138 0.24461629742663676
Ni 7.455646595730805 6.244979414646662 2.643457055190832 -0.7083713168340962 -0.03423578125441846 1.092162456822403
Ni 5.501441021796813 4.7957002966688025 11.573473678127073 -1.1982628854276074 -0.7925852297788543 -0.4625594564374614
Ni 5.470856718617433 7.7985985820489345 12.581581245804568 -0.288127076225078 0.4923485147744359 -0.21511880218815213
Ni 2.029828095424936 6.518262623826099 0.2965689648682491 -0.5591280342928306 -0.815352605382357 0.30592528074876346
Ni 2.906859042388996 1.5444846555193643 0.5047125923842709 -0.591672029667123 -0.26208951451073575 -0.15273175531049826
Ni 0.5108249220122687 -0.1020083927701753 4.682020933805375 0.1684982741161356 -0.04139784622049644 1.6205552668149057
Ni 8.656300249403625 2.3231383594270203 1.12132748634205 -0.2730082183057685 0.21289402662269138 1.3640033942929477
Ni 6.664061395338119 1.0131152375847325 4.651899699631168 1.5462372728276208 -1.604169883478347 -0.6869712538917652
Ni 0.7521953365023704 7.14713026928872 2.7010325723020023 -0.34637618967495826 1.2655913354709363 -0.8488702775238283
Ni 7.648214430563947 3.879729867997541 3.9199978412146965 -0.04834676673450383 -0.37894615319117964 -0.3397499426076923
Ni 7.757176108024356 3.947287195464886 12.46316788590976 0.012224824200966043 -0.2361033748596192 -0.524602232601819
Ni 8.136974250409851 8.852701316901916 6.618908089426443 -1.247227231141452 0.9722626604402611 1.3437014495108022
Ni 7.003125776896558 0.50191514812013 0.21139236016485385 -0.9198908317067641 0.3339464485520378 0.6281449277821763
Ni 1.9327739066690326 6.394040511831148 9.366985210328576 0.4340870600293814 0.37221500511493316 -0.11269942197896073
Ni -0.250897311655282 4.978608022705138 1.3375254334627633 1.8916629256638515 -1.216479151325318 -0.051376297589447006
Ni 6.512562615915038 1.6477463250687125 6.932808159429674 -0.8064257352063724 1.1578140333839415 -0.01929227257070871
Ni 3.463756158710685 4.163515953439172 0.7476190185451592 0.7144704877532986 0.4737946630316485 -0.7584214394129519
Ni 5.994786221615687 5.738530540043377 4.888541554299344 1.640616299230839 -1.426173440063789 -0.09648424567167899
Ni 5.41797985667619 2.9498401831237535 8.963612233951624 0.7161144511146248 -0.18497261762207498 -0.7256041357726148
P 0.324697461777523 5.536574456886135 12.48814280133565 0.07928742217741828 0.4707517624402667 -1.3229421054762636
P 4.073765749383294 5.978320538985483 12.801909659707256 -0.15824908558430167 0.005271275701268341 -0.8054798263533354
P 2.2113221470032025 8.388834854340088 1.3816782928348816 0.7930572843192665 0.5069120144109076 0.39501580505953254
P 6.48101773906543 7.757040177788003 5.642155096267662 -0.3343897067370435 0.7602605495042196 1.1702761704066942
P 4.784273094799409 1.1248408298509822 12.585798707937807 0.3485148332845159 -1.4562548328302014 1.2372585499645143
P 4.093584377843532 6.091115449111041 8.399450099597665 -1.1444065017287839 1.498247889432536 0.38402382482440317
P 4.592511779368627 1.0666898747392517 3.7331726057666734 0.13095116910029705 0.27593284815173125 0.594681505917408
P 0.27654191004560236 5.5274308829874705 4.012176665493413 -0.6941847409210691 -0.4240278760211665 -1.6494022729535853
Ni 1.1476227374637125 0.6766860902083867 2.7503054705767425 1.4413946278889176 1.294146264290494 -2.440388790786752
Ni 1.8932000838588523 6.657853914544674 4.957589583358692 -0.3504842983060609 -1.0124590301534884 -0.21852371410464302
Ni 6.114105783086179 5.445519322561269 9.110462199291439 -1.0496587791322374 1.7252991813922158 0.8252590658627917
Ni 8.388091769048026 2.2426585974904025 10.081154516312036 1.0327794868783955 -0.31223553923750746 0.305096614199881
Ni 2.39448360948073 5.35914018836694 7.133042459593115 -0.14793227703932588 -0.1534992296041421 -0.18454710004888217
Ni 0.42924140655646603 0.12224115535050262 9.008203694886374 0.38279895127836655 -0.8544554849210897 0.7662121391019643
Ni 1.503932135007444 1.0926797359299083 11.543817325361193 -0.22147611186474758 0.470040595305855 -1.3018156079102936
Ni 4.228970893250927 6.954480876313767 1.5409160337143153 -0.7678645871037227 -0.014521590654942731 0.3578229980593193
Ni 5.538278115848423 8.119466435967611 7.7204686007980685 0.46223832565261685 -0.5361318305079734 0.7693697108943395
Ni 5.214936331628126 2.716565773510825 4.996397665837417 -1.4891364140495709 1.9742850686414577 0.0808316267360866
Ni 0.7727135525790385 7.3798337719089675 7.097032727580105 1.3286617815688604 -0.06640259579495017 1.4435021611502237
Ni 4.857494182114787 4.719434372059121 7.071845760985506 0.8878340603815355 -0.19485696661532245 -1.4827526220104141
Ni 8.094645574809588 7.166142378346599 8.978653367704851 -0.6174658508017753 0.4028792669680094 0.45059534209704977
Ni 4.49492293168307 0.4370302090994818 10.592807706564482 -0.1846394026523723 -0.5188185360405064 -1.0219667125336076
Ni 8.487293655538304 7.004013854440728 5.33249967444494 -0.959827777111018 -1.2896288360361146 -1.8654896097025935
Ni 7.140424377628648 5.918311870643597 7.066593416652834 0.35177704897555545 0.7787994888486717 -0.7758622605972186
Ni 2.4496169133454275 5.508264719661724 2.6954086853232986 0.013192587430874054 -0.7647183281652573 -0.2602581177289518
Ni 2.472598185304809 5.039405086417869 11.425549863920072 -0.564989378169614 1.2940076818301005 1.668618955091352
Ni 1.232325398743024 3.52811459461586 3.944893010901925 -0.4351972623744247 -0.5931434720063269 -0.9806735102117756
Ni 3.192149422446265 2.469933952672294 2.6816815438548165 0.6910017152073971 0.35704138269828833 0.45382978987394745
Ni 1.24892701160958 3.331133558109131 8.228368304124025 -0.4137712312901648 0.24987317495020192 -0.3234663749563203
Ni 3.6353363650509536 2.805210411644368 7.196864424165485 -0.17311648961443735 -0.4265506424430202 -0.21459609691546266
Ni 4.245046909203586 7.1127671055387305 5.863822876099212 -0.6952324654592931 -1.1991355178405476 0.29460368508835716
Ni 0.437412626164421 7.640430159028809 11.061051122736872 2.7772776097965655 -1.944631507441083 0.6082060227664041
P 9.301071732519524 5.525364743394907 8.131295085135031 0.22678543989280298 -0.23496977547580825 -0.5628239950871791
P 8.480053104948578 1.6330114874480683 7.881854945613452 -0.03141245287301042 0.24948545259348004 0.9693850817821498
P 1.9864482259968774 3.0949049313594683 10.69022618835381 -0.5060139280766704 -0.6345816845464555 -1.7756557794678967
P 4.365780145132148 6.230851732081727 3.7530945412065404 -2.3556629712025816 -0.4731788838245206 -1.5051788122244143
P 7.127048842371533 4.015460740003697 10.220059812437817 -0.0361427684691442 0.265553047579304 1.372316027923701
P 6.183566133862463 7.909028306061953 10.17456668093526 0.05382655890215247 -0.714301309165286 -0.2944604746422735
P 2.3900432217598717 8.430003591923475 5.913904106179464 -0.1072995911196281 1.8522309449204748 0.5171365203523932
P 6.915033921724182 3.992624460296425 1.532772000153631 0.14347449837828838 -1.0035897526883168 1.3252460710190919
Ni 5.558486410986207 2.928254461590928 0.19749666520329437 -0.004781994769675635 0.45650090894820733 0.29521509342011093
Ni 1.457045265481483 1.2093531887993998 7.052706783707031 0.7227522681461166 -0.9082504192543583 -0.7055171352147527
Ni 6.644342449051204 0.7610108654306377 9.127359233871667 0.14263194787233502 -0.589932678378513 0.48967868125175656
Ni 2.575760172680832 1.5039683830704713 9.199404977743383 0.3017737204742351 0.28729943811746006 1.1284561490471146
Ni 6.326039145591718 1.988695605904577 2.3527947121929 1.4572719612408063 0.8524135147903965 0.8891111273217462
Ni 4.171490527305203 6.9023924097433715 10.56622881434963 0.25258003235840376 -0.3320286627040346 -0.10598498607326262
Ni 8.32673286035837 7.112812415617515 0.32246367489345856 -0.4913555547335473 0.5634541724720102 0.4604933179370521
Ni 7.687896997563209 3.8624304799177076 8.128934430030371 1.1051439566837356 -1.2295300709720052 -0.6172642763139304
Ni 2.9521963072205355 8.497370617059925 12.448989456056587 0.766703476916086 -0.2865309353825517 0.18173945539675798
Ni 0.37671161981871204 4.540577367066099 10.105280320861507 -1.0126120107915848 0.7212402023769643 1.5571302655910408
Ni 8.759208500338456 2.1266466717711614 5.781378469146509 -0.3116274733398633 1.1528032104329116 -0.9159030507036098
Ni 3.8203736647901496 2.8179787918457753 11.754476568451318 -0.2823894024103524 0.6405373879092582 -0.5217657915942885
Ni 1.061352347458465 3.2279987567803783 12.742729259605547 0.4211263861036554 0.50423343913748 -0.6590686139442262
Ni 2.9622188966476153 8.440388661980828 8.108641858146049 0.7991322868687527 -0.7579807523311075 -0.4911480667084316
Ni 5.766196874149052 7.863718227277684 3.570049072530701 -1.0019730430205003 1.101040476038323 0.42873993678485517
Ni 3.009785417355341 8.375885233823544 3.731329391761729 1.0786893620366327 -0.20031567573704856 -1.2431492044173365
Ni 3.655109683432408 4.176737434428422 9.577034579758264 -0.6380063939572883 0.6655346812845441 -0.6208291108470534
Ni 7.295638583512039 6.366827278513316 11.467567712379875 0.8007487394262532 -0.16201600882590161 -0.976049381176203
Ni 0.4614822462162002 0.03181492491916205 0.1626903688827949 0.531814176969226 -0.24401414506626362 0.6337525037769408
Ni 4.785650521194452 0.4200978326578006 1.7788972543113537 -1.1693724276455022 -0.7104865634048861 -1.7047956621222253
Ni 6.238355081128401 5.657896723838893 0.4618963803362884 -0.8249024538543213 0.7202145893259274 0.08193360155101373
Ni 7.828158877447791 8.915111419419368 11.174583680945037 -1.5487839505088745 1.2185056948370436 0.06032785035577997
Ni 9.197130411788413 4.6043739579943495 5.961996223801087 -0.27381785869125747 0.020628989104261246 1.1432484768649407
Ni 7.891656421856065 8.788524121311879 2.6633119317140985 0.04856222517941959 0.477582669319171 -0.3631649790975229
P 8.605879193732491 1.7397348470165348 3.6303305075468675 -1.4985487085024063 -0.10702679707421568 -0.6419244980647718
P 1.651371131371454 3.5095193382827965 1.5618982249977345 -0.7333099890573048 -0.12579636437223496 0.8321167122145734
P 4.49475075338369 1.1307673881559646 8.151999072534716 1.1704201521837263 -1.3113256042832577 0.030200434842780243
P 8.467049112337492 1.5679643383453725 12.275069437247899 0.3153524875999343 1.4072154109040473 0.00522036785867488
P 6.2260307396990795 7.8475334671359445 1.4454476977158612 2.150052622725497 -0.9240938140445182 -0.7657107739855136
P 1.9864482259968774 3.255130431956399 5.990896804452845 -1.0991018642547135 0.10341696823577028 0.3629526059764007
P 6.705574489520266 3.899104457685695 6.047384879673193 0.8020962545930832 0.05434592174073221 0.05941202340972993
P 2.452580192497919 8.424729498752985 10.249530393880683 -1.3067798938941044 0.2715722571901904 0.5971572211514102
