# total energy = -340871.5043266155 ev
CRYSTAL
PRIMVEC
9.25499913598747 0.00000000000000 0.00000000000000

0.00000000000000 9.25499913598747 0.00000000000000

0.00000000000000 0.00000000000000 13.54562674516980

PRIMCOORD
 96 1
Ni 3.133344789972534 0.9834177130967653 12.822601589272951 -0.04877896917591599 -0.4888070772800807 -0.7431372595603717
Ni 0.6583997230131621 0.5545641841330979 11.814617406097284 0.04646214811728127 -0.7717837196524708 -0.14515240030134358
Ni 5.239495720271597 6.886330291489184 13.262618498363643 -0.1804816717302569 -0.23489161393970512 0.0036103430590776527
Ni 4.258280697002581 6.835103870495089 9.301253911642231 -0.37502882041464447 -0.2029492567051537 1.095369908016107
Ni 1.7242804051613256 5.248695189552198 12.428031354128331 -0.05909140684551759 -0.08949058796266524 -1.8753611031800346
Ni 3.010845619551966 3.2559735303829704 2.4741084150247983 1.013249387265268 -0.19546554673359884 -0.9819261516719541
Ni 5.541477091656663 8.471730177510961 7.744142856408267 -1.2246565449297877 0.26569754357696823 0.24989322955485996
Ni 5.9269570665121405 2.6493175828234468 9.107510682292945 -0.815012705544435 -0.5505616327800582 -0.6471325246282725
Ni 3.7446282371701876 7.500649378449451 1.5108656748503508 -0.4656959451839141 -0.20495497428127282 0.0443885534177042
Ni 3.109485401838338 2.003624048316661 6.116690104675023 -0.5737244440497667 0.46138009141737957 -0.44478207784938234
Ni 4.676449329301807 6.624210201986967 5.0714425179133515 -0.7307555980665672 0.5476429164713665 0.9749525485675984
Ni 0.58050317060467 4.038437444194317 8.325643715934918 -0.5870183329451955 1.5393588005402328 0.920438476680118
Ni 4.499826923113673 2.6317978691934876 11.551087780205293 0.417464620981352 -1.2195981565702738 -0.0873372890650883
Ni 7.624194363788236 0.1762984812134642 7.2055962995225915 -0.44935709881457453 0.15262428319835653 -0.14671305992024408
Ni 8.749269095807426 4.290219699504952 3.35158137490644 -1.223772085442305 -0.023129129818295648 -0.8645133833777241
Ni 1.7043358817209868 6.891846271057835 5.20154744673915 -0.13689993048456423 1.336561238921595 1.008344750874799
Ni 2.715120627677651 4.809795358874151 5.982317695682941 1.671583694146631 0.8092305516450191 1.4134097126402174
Ni 3.158583172998893 9.023883434332594 7.880900278713841 0.013868530451976115 0.2802487019182658 -0.6233508488276426
Ni 6.770318875561273 0.8602734692266413 5.049836722102925 -0.15583790503964776 -0.22261099680013918 0.1646346773956713
Ni 2.833529088418113 5.23765397541562 0.9008927355502159 2.312087914825108 0.6784331345137671 0.7736505976578806
Ni 7.119176818280593 6.850476424292955 6.889089206773437 0.43558035674545625 1.6444819528338321 -1.2352011532148535
Ni 5.242920070003812 1.8062149137540495 0.42914691244072467 0.4356724022386303 0.6474747384590397 -0.5182850321345396
Ni 2.378257164020363 2.5145647933611106 8.429159031840024 0.6189324080449727 -0.5563625557325516 -0.42228106853338887
Ni 4.6912850931416505 4.584297301508093 12.73154812989333 -0.5278279386279684 0.3861460133737285 -0.1712012748695955
P 1.3260285313046096 3.3260431299035296 6.4394961499316 -1.2060669548530585 -1.148167511433113 0.25822540356963913
P 4.857949120108529 8.85570158748441 5.611750301161299 0.561870115814342 0.5258466465318815 -0.7883578219610681
P 2.0736473728408393 4.944964623303919 9.848171615373284 -0.7887146910798546 -0.8259182967133454 0.6178761988663165
P 4.594959060674343 4.747361133756506 2.3250936716777466 -0.5031453482796239 0.21819409867936615 -0.3593885427742262
P 4.586814661311235 0.7341194995918778 9.410337035111935 1.7706171886027247 0.6392171264359379 -0.137653263710821
P 6.258896870554458 5.229620636043827 5.533130933309332 0.8348361680282654 -0.6966766541049872 1.357455565872101
P 7.74769307413064 1.935201838667276 3.018236661973986 1.9610428589195712 -1.128636897599353 -0.5900982574220999
P 6.44940177565698 6.972892299720037 8.965457549401497 1.018350198826943 -1.0945124451118182 0.0058425748237060674
Ni 2.8885963341118557 5.713583058197981 3.6103974296670325 0.29533953481311714 0.6163661899796933 -2.13049655497044
Ni 3.0299849580552696 0.7386090997407913 1.936686340551188 0.19729102997811185 -0.11411507137956475 -0.5335779537378681
Ni 5.622504610320313 0.3180128811314025 11.588771360758436 -0.006171676028350661 -0.24435173091134044 0.22087833037974863
Ni 6.287735448299282 5.719136057763737 3.452143420542491 0.1110649716993313 -0.6186117914807604 -0.9870799279587517
Ni 8.849547012965697 1.9396072183227755 4.903815045521815 1.541311039170597 1.4875636702458122 0.7641891951346645
Ni 7.580233117226005 1.991657334252458 10.868577858577547 0.5356358647081614 1.5659830879959804 2.769902914599049
Ni 3.4147522979664755 8.593081728021273 10.554914827105987 -0.05632335718207719 0.5930452558655658 0.9707138278959023
Ni 6.788495694139846 8.68424347089243 13.918266710091974 -0.01985817237650774 -0.2643747110004866 -1.8539556409210651
Ni 2.639766423570347 7.611070774814501 12.761660195538568 0.05675658806475386 0.14670020440443768 0.4841369254979211
Ni 1.4327664379577087 8.175986675638095 2.7751198624857123 0.4944082255169421 -0.10464724109844557 -0.2713531992008488
Ni 6.456953855066407 7.04570137902637 11.13161974600768 -0.8155724347026471 1.4427231168923542 -1.0582686322884354
Ni 0.8736700806790267 1.7640306270528594 2.6067066406556214 -1.3380961875088826 -0.018442522975903725 0.8067044427890558
Ni 8.327972273752826 6.347208073648525 4.848264688865851 -0.02416117062723581 0.554446055436129 -0.8659426596250829
Ni 6.1228946561898265 4.471386310337729 10.593249034108252 0.48696822429912906 0.7388643432166307 0.6673036002595089
Ni 1.4918596083366247 3.8404359896780242 4.282436245113618 0.03019992062214799 -1.0192297732184188 -0.13849581421677437
Ni 1.6075841192869713 0.05602976561847406 5.300485240002218 1.6623598615555177 0.9577374702408924 -0.36547485817762215
Ni 0.9156257688980931 2.3479377863913373 10.26360261888659 -0.21805628754992126 -0.03548790849396468 0.19418513735927848
Ni -0.15761356317462422 3.4621008742638186 12.302991686406429 -0.17828132164482846 0.10394841525920807 -0.000502907778347521
Ni 8.599560227514656 5.903514153345376 11.106573866966267 2.3815516660438854 0.18182944400740297 -2.0910746015293924
Ni 8.36279883602939 2.198210408100014 8.591612034136205 -0.1541682306467087 1.0619509662360291 0.09373316528910308
Ni 8.605122482079688 8.982393272577124 1.8870008769365898 -0.5112430376860937 0.7143159644533054 -0.5946187710002727
Ni 0.6448050545762646 0.7219935995401229 7.63629342434209 1.8354210724519873 0.4559357804733567 -0.17454370897926713
Ni 5.564771924835007 0.16601617701754007 2.2415164007134867 -0.1249108764434881 0.12667928119782054 0.6773476147590722
Ni 1.870898103695826 6.716926784736533 8.759238581027812 -0.010111634512705166 0.4214714281478999 -0.9224786470385984
P -0.059236622867697916 8.390665638850207 6.226762587567358 -0.3216689167362654 -2.0696074327945517 0.4580273728950628
P 1.684576458266173 0.020458175900171273 9.456079869034847 -1.852116273719481 0.595859071165277 0.29488522088451796
P 9.140450150217081 5.3025222653429225 0.0333133698948955 -0.18399739819299923 0.15790815730511515 0.4072992504125759
P 6.528791159448733 7.3956976866566695 1.995027079488944 -1.0934734623243425 0.34392875657573024 0.80741278170999
P 2.5649767744188954 1.7758770261264714 3.9228813742307977 0.09829970161386296 -1.0583593922300287 0.8465573131199355
P 7.417428424957326 2.285003791312774 6.718278940130793 -0.27443209523648865 1.1198648078336777 -0.7597368157902658
P 8.207805363149873 3.9156791337940127 10.217601570483872 1.0164946336754428 0.48275701443125885 -1.3812531825123309
P 0.7419196129819092 6.211150329288236 3.4349133883898793 -0.3738116601780917 -0.8967115653768234 -1.33314861369562
Ni 3.9844900534130008 3.9754201541222667 9.724013023582481 -0.5701585810753794 0.8420702238828595 -0.6131335419750086
Ni 6.300266717319337 4.937236698908243 0.9920424469223114 -1.0791251640224706 -0.048799023780574026 1.9108513256668445
Ni 7.050282603668118 0.48626969347372495 9.542731650758679 -1.6918627561106412 -3.665899199076403 -1.7371774208870405
Ni 8.620152600904333 4.2008349164948395 5.772970537553882 -0.2961401763375416 -1.1193058500064144 1.1708981202614093
Ni 0.11278789967998973 6.0856710491007115 6.919065223929313 1.140807471523616 0.818685269300016 1.0403758111684147
Ni 4.323528441900209 4.019103750706211 4.426534732845121 1.143148975172599 -0.41965622931603214 0.1258848103209832
Ni 5.923921426749527 2.7500489949462534 2.6528566945466885 -1.9379232421829722 0.9809486182500332 -2.5949845958891826
Ni 1.170831448441017 1.8518235501874554 0.262780896450542 -0.562456070224799 -1.4734699111569076 -0.3912838488209261
Ni 7.162545744889144 5.5600981502004965 12.618306735248803 -0.2578777904222333 -1.6492531489702307 1.8518843602143331
Ni 6.655973359503089 3.1490505237443465 4.691039835660829 0.2968012069603082 1.9974206262176568 1.9175647331312782
Ni 8.926937316913778 7.914810596062056 8.614720841829095 -0.3997875154165631 -0.16689339152286098 0.5333509253287266
Ni 8.09680090183042 1.1745704681486255 13.236705425890044 -0.18031634979698621 0.21708081101052937 -0.2982196845743897
Ni 4.73470954974586 1.4660196503573084 4.190299025318746 -1.602183192065621 -0.22150053734477979 0.30454382702020455
Ni 8.27619980780143 6.2929552678910925 1.8967537951739117 1.4387093677472709 -0.9053604993010731 0.4438827059635646
Ni 6.804516097887052 8.151016687590747 4.117572315505972 -1.9886984158533103 -2.475701864265749 -0.9782037085150443
Ni 8.951148395020471 7.51935373198677 13.442246928316704 -0.04334545686517051 -0.27141876233146156 -1.9711303250625598
Ni 1.1212153973209906 7.65108013668577 10.802095496776465 -0.924765386190246 -0.20383500174421668 0.5699482648367862
Ni 5.3296764332194675 1.533414555087029 6.900196131404876 -0.2007648474593252 -0.0405043878719496 0.4549849865243132
Ni 3.716493039370359 8.351961231876889 3.622588114713721 0.13496697512790948 0.4419824036170582 2.005033662678224
Ni 7.2943461895823525 4.935894724013185 8.041727177637183 1.0259974309595556 -1.822481995792816 1.6895305084330385
Ni 8.812397445870792 9.072694300515586 4.199347638111144 0.772020004032993 -0.8658997222022895 -0.32744952797378446
Ni 7.962233212353609 3.280203118488217 1.0777465167202558 0.15447650591574685 -0.5468065366130002 0.20391547727316495
Ni 1.1263889419164195 3.8122822818796434 1.2063826771609119 -1.720467307221211 1.6325404642012402 0.6859137591615284
Ni 5.080753972685196 5.623319050256623 7.594965225073953 -0.7677530012265229 -1.0780923518825822 -2.1298473514222156
P 7.940659809040648 8.722383322909893 11.253584902970008 0.6358507810668662 0.1925673992501974 0.954861177134362
P 2.619211070177775 3.248393685975714 13.050128342480367 1.1286680079476046 0.4055994941126499 -0.35873034036493706
P 4.6476847915511925 8.949732380131204 0.12136543300922689 -0.7010063918285927 0.572841013003549 0.09883423396109431
P 1.2004011711286655 8.91710850768239 0.47583745828952545 0.8762790085540845 0.5640067025413705 0.8135086101950828
P 4.055744292840921 6.380322461058981 11.487246795197654 0.12808850284052134 -0.1640330392559304 0.054458021838564276
P 3.1079213069606495 6.8216841215445125 6.912834758416535 0.5560226558946295 0.23730279448435904 1.0652669179831395
P 6.7785928449142485 2.881044254702428 12.71824684493349 -1.139141910895735 0.6783004655906447 0.3347902846095718
P 4.252672167441168 3.479611332894501 7.586255345255067 0.385537176145136 -0.34639573005898405 0.062383447333228044
