# total energy = -381170.8164595662 ev
CRYSTAL
PRIMVEC
9.17641759014561 0.00000000000000 0.00000000000000
0.00000000000000 9.17641759014561 0.00000000000000
0.00000000000000 0.00000000000000 13.43061470969109
PRIMCOORD
 96 1
Ni 2.685157412372883 2.794365957268564 6.630023139600057 0.6238038772046611 -0.6804334527732475 -0.38332525609548174
Ni 8.422464702962944 7.499518981719537 0.3730672542419888 -0.3295228655630454 0.25154722021851517 1.4244993947954758
Ni 2.3922736944134297 2.153677662497406 4.177028172820505 -0.5825623540563709 2.155398974639075 -0.1780838609220417
Ni 1.919201842047491 4.70730030615046 0.5345006265227886 0.20805186803904172 -1.224173434645782 -1.096413261678957
Ni 4.952402418087577 7.196724732839377 10.142585084573724 -0.16077519444026506 -1.851572485400869 1.6255447496096973
Ni 3.956825352179913 3.6061302038496685 10.720450707366869 -1.0134828434323127 -0.9245560983929174 0.48248704859932384
Ni 1.0980409439267529 4.167791190945707 11.344410393000574 0.40161248444044384 -0.5619259087529419 0.19897793076223153
Ni 6.434696669212191 2.737765814010303 4.297353029898914 -0.36799993859232105 0.0130599185077517 -1.1218437859369197
Ni 8.844020147376245 4.744106916819864 13.437866897886654 -0.7191262413577552 0.09296517677482699 -0.9222415913271278
Ni 2.211773561811292 3.2706403793486944 8.86435325331523 -0.41843675508663425 -0.027410273692152792 1.7486540540680722
Ni 4.3944670565043245 2.2222805598707454 8.52449178350812 -1.0771479856914417 0.43868213559923164 0.4331234105645315
Ni 8.99047577098225 1.2018812845737175 7.224341161363329 0.2339325924605455 1.2520087116904952 1.835244694775123
Ni 7.17237969716101 0.9505025030534853 5.609430241893375 0.18835670360295947 -1.0298563996943295 -0.2958804949182517
Ni 6.817931394065424 1.3745998151195966 8.16627013752865 -0.10485138668945167 0.37258164442573255 -0.07065340065150413
Ni 3.691039595154579 7.268080555468469 6.420223623500951 -0.7002003509875296 1.5954664421670781 -0.6829644467252174
Ni 8.692288083696715 5.2770640699159275 4.4334328782159895 0.36606621190471794 0.6396647554963177 -1.488215187786882
Ni 7.348025504895506 2.9707091727345163 0.11878872478569782 -1.7489263338928527 0.6793772435945912 0.29316926663467574
Ni 8.034348123989512 3.4624366819169348 5.698301092641312 0.2900075810772425 -0.5882792019354901 0.8410926904609386
Ni 7.981565370419227 3.364203132374185 2.5264870594071063 -3.8555620230852954 0.9144434354389477 -0.45565013091213785
Ni 8.381547057244951 4.125212613656742 9.189535208016915 0.268002537561061 -1.4055935590299082 1.1854410510725906
Ni 8.511007955605447 1.3091536053728527 3.547012051624147 -0.2588964614947348 0.2306721765417189 -0.9298672261931857
Ni 2.9148339664602703 5.910117585311133 11.760638927043995 -1.5607490932905506 -1.1966094089845842 -1.0081236360029282
Ni 5.2782478277759 6.266382819075515 7.669323999703079 0.8313690354152714 0.772939944744101 1.2359298038507616
Ni 8.218573882104435 2.826914710209071 11.46446638104567 -0.48845252215413937 0.4930038889702477 -0.831950104729722
P 6.807855687629372 3.603138691738418 7.527308844534601 1.1313141873212 -0.6291687410610002 -0.5132664958740257
Ni 1.8989311357476375 5.979362831910814 2.3563204905733093 0.9293234378745737 0.10923614602070864 2.6050291246093784
P 6.7007577187631 7.840845007762705 9.003172262261778 0.7449342035597945 -0.4485397451196017 -0.6781546840413998
Ni 9.316724943041418 7.7374634879916995 2.831254238053888 -1.3756335223327083 -0.26305727774064375 -0.32699212872139166
P 5.133141137545214 2.49938083969722 12.356299458690321 0.0793900091935536 -0.7199099136013151 -0.67019711975722
P 9.071081422470668 8.620629439289491 11.903285419737792 0.24829194650601114 0.17942391988970388 -0.2497435913508731
P 3.2732556583416588 0.5414214806157491 7.47964377901476 0.11128557235056964 -0.31614541581487493 1.3241181280622356
Ni 4.791659112404219 4.179894885653496 7.0273812886570495 0.36467730197699133 -1.5682544005286603 -0.32441922578789284
Ni 2.948300361152695 0.324848850745741 5.400853024607822 0.5846994550040318 -1.0239690876756173 -0.5884879755121865
Ni 7.803451106372075 5.820849395684615 7.712852336205277 0.4710358693395888 -0.03768337348338671 0.6659080054635629
Ni 1.7604589953833127 4.670172520867885 4.490149561976744 -0.9857750931043991 -2.546182229674499 1.0740449212860856
Ni 4.404010530724264 2.0304475516324283 3.096589432979031 1.2771034498755942 -0.8446642098622807 -1.7430660184573337
Ni 5.199936280667276 5.3440243885533345 11.586322782208027 0.5347897146577822 0.26126804705070483 0.6344757550962106
Ni 4.115815962117109 3.575471792918111 0.49551736961783677 -0.027784112091803762 0.009072908835545665 -1.357653797925836
Ni 0.7928204502545235 3.3801700988575463 2.5932766966786565 4.394813630169173 0.2881641001106005 -0.26473569388433116
Ni 5.084139067992829 0.1562174965629017 11.705532704557855 1.903727827248186 0.9028385042101678 -0.9061094616519555
Ni 1.4535170057844866 0.47955315605973103 9.075522808549948 0.5902779775330737 0.7877695535577659 -0.7260998444621108
Ni 3.3114754373090154 3.9089336291473478 2.6480332976573155 -0.8459919275347688 1.8123711326110592 0.00246440238009253
Ni 4.286231211865675 8.870916227124942 1.7544814770113233 -2.391644274393197 0.6853774270420842 2.495040416693361
Ni 7.344565995490777 0.5651048965909833 12.856307767042042 0.8268451794029889 -0.10176889110938603 1.1608615619610139
Ni 2.098637510217405 8.090572034129487 10.92072785500633 -0.41718077119234603 0.3813470493231884 1.0870148511831923
Ni 1.7950082073430003 7.342409537373772 0.6209626676719429 0.2901577335018616 0.6565270784692951 -1.3365044175417304
Ni 0.6729865315133918 4.067905886249505 7.332376960100059 -0.331909363517351 0.7588469569861448 -1.007055085529098
Ni 8.349044186392039 6.353145846719299 10.171421058985976 -1.697913333180095 -1.5219444617185272 0.6175920919669945
Ni 5.749961570349002 8.535123580845836 6.861794669807072 0.32825351193231855 -0.7490384555361551 -0.2920477514357228
Ni 4.868438197787142 -0.16930031501998702 9.047708169407581 -0.9037394187578822 2.913355558600466 -1.2014145436827115
Ni 5.025097997674468 1.594365838286277 6.448669600168636 -0.1896042028568154 0.49329056697273116 -1.5426870935825174
Ni 4.911796770565236 6.6809641861742435 2.2250903789151164 -1.4948162380431673 -0.9086286285293836 1.4374960641654597
Ni 3.9102275040175516 5.9572109600195295 0.4676146368672866 0.2712354426760619 0.07303707039233227 -1.0576932194009399
Ni 6.791448253105091 5.823372910502388 5.660520864073124 -0.8342350441091569 0.36272172091251725 -0.27504915999519725
Ni 5.739839981825354 3.99359525717924 1.802911855752264 0.9572389333379191 0.7000795091389492 2.5559503648048563
Ni 6.994962840845314 6.5724622254275396 2.872861950369324 2.2490935733807587 -2.733465240597305 -0.29142220203658203
P 0.8267346541218841 2.4608307096991733 5.58949906304173 -0.8729574003800191 0.14782969002319057 0.125708432644119
Ni 1.3786741444981097 8.51274229851657 6.956118147844902 1.4898352398888086 -1.8800700786199298 1.686064661371625
P 7.262886703152616 4.883872932054391 11.678833000144069 1.1462458689303678 0.21556823102074485 0.010263843819853291
Ni 1.6393578133827833 9.49318745193512 3.2276855689414443 0.6793489614598172 -1.1064377357944946 -0.5759003686551629
P 0.17947787969050208 2.182757729615666 9.73754443876968 0.11123877827303422 0.3016145691885515 -1.2149344325460172
P 2.9962471426903754 7.78040912198143 3.5000453114775145 1.2834782430536864 0.7750148249952589 -0.7277546064567144
P 5.713595427720518 4.970782782378482 3.9922903706080137 -0.5863282488567064 -0.47993137205700576 -0.9011821995536672
Ni 7.0004136328517035 8.784878136465172 2.3285866039051117 -0.5377246289163901 1.11825015504839 0.363077047369407
Ni 5.7613036224027 7.906713332715331 0.4826144089441272 0.6720935654489844 0.2897144753168559 -1.92846492498355
Ni 7.487204229408807 0.6436403482870757 10.66264570048834 1.2057563655911752 -1.074407446831827 -2.4853116194413714
Ni 5.2952609058564475 7.388686210922962 4.4636517387483785 0.3670859114184839 -1.7406468674928797 1.256782993150687
Ni 2.665143645763566 7.238596725979365 8.880698288200382 0.004247205312128169 3.893450056380321 -2.1619699429883736
Ni 6.9601933948651675 7.63500878639013 11.836669216757352 -0.10802618487300751 -1.2561600148547076 -0.8399351798177276
Ni 0.3486671600585071 9.45409591330344 5.292319864041553 0.08700535964696629 -0.14259312421459958 -2.2515518051132646
Ni 5.6038179449386485 1.322982466574247 0.7955219875721681 -0.7400917878658286 0.6441071075383874 0.2472784176398322
Ni 5.10232672751583 0.25384356726588214 4.116053631330856 0.6339941874741016 1.8608870779335758 0.6855003257731936
Ni 3.2210326662400437 1.0929205029510543 10.536787463645872 2.511383891048391 0.7989721071418047 -0.5625069780673926
Ni 3.2988853924727093 0.16727875024051317 13.087193772958456 -2.102289239298289 0.9747301481441473 0.8233379375806789
Ni 8.860225700715105 8.143299729194656 8.998243608412231 0.050794714054364136 0.8994942703282831 -0.5905787966029442
Ni 2.5966233361478994 2.5694427874561083 12.694321056784835 1.8808138987644898 0.22277503318182923 -1.622145237009845
Ni 3.56016552849613 5.423675692619758 9.268278964390694 2.211884568430629 -3.0308387751213157 0.24884267680315852
Ni 0.8385107507242391 0.3397192353355613 1.02590420816678 -0.8775751016576887 -0.11916368954706574 -0.3980934155435918
Ni 4.311521418548517 3.477495183065898 4.816984189473634 -0.6354586878347701 1.033418406013975 0.8295535794730875
Ni 3.537224484698197 5.85132427826579 4.33446246234645 1.7656932689385463 0.21620792148727283 0.14199045763359416
Ni 2.8357516002800356 5.261280631782949 6.949779078622657 -1.6985805344504488 0.47024474089686114 0.05697410339219865
Ni 5.888819120249131 4.321909123180221 9.242062857180168 -0.5384663921784211 1.4352311793906831 1.1615156506052446
Ni 0.5836082248766442 2.3879148960918224 -0.09446571250937719 -1.914070861045407 0.47228491125534144 1.4564273538523238
Ni 5.8828911545317455 2.210901802146971 10.2299913790856 0.022887189010818647 -0.4348501634476511 1.809195305986239
Ni 2.6816887265506355 1.8845241602425353 1.5373087094355613 -0.6503186356657381 -0.3941879098415985 -0.22899016085360563
Ni 1.324469046212353 5.715999649110542 9.582179431394309 -1.3779369736549043 -0.9087785238436865 -0.019756356691320816
Ni 0.4608406054546329 6.554623269770266 12.079884657252528 1.036984783208995 -0.5904808375724991 -0.5083567172772342
Ni 6.546043319389839 5.748952164421893 0.3842340367210707 0.2283288731205229 -0.8134114224955862 -0.5606850943673053
P 9.026006859616489 5.655756468097169 1.8923736677884362 -0.8726879487687164 0.2496392045625249 0.7338607193544523
Ni 1.33537980664265 7.035027079734025 4.740053693201645 1.1919032617581666 1.8010839897330144 -0.9387653000137639
P 0.5983299515026539 6.129158671493799 6.34835575677429 -1.176408251446361 -1.5725949368855432 2.327824865944391
Ni 1.2552237996126716 1.275797327690658 11.369310601938851 -2.550645664762491 -1.0562125210903552 0.8767976000617158
P 7.835641979029334 1.3202203649009758 1.3701373232800225 1.2230246657533195 0.5585803893194766 1.2162942890080213
P 7.430952790016274 7.915577752038852 4.46696901368156 0.8280679960664965 1.4794302425054005 1.1465191771964125
P 4.064308730581989 7.561056037603112 12.297917255149837 0.6297469821619734 -0.7462464946133148 0.10966783424148854
Ni 8.27711024945924 7.897793854886695 6.668609057626429 -0.8390491776683485 0.11477327378885395 -0.9427433108249054
