# total energy = -381167.6619775786 ev
CRYSTAL
PRIMVEC
9.22878487465614 0.00000000000000 0.00000000000000
0.00000000000000 9.22878487465614 0.00000000000000
0.00000000000000 0.00000000000000 13.50725952392811
PRIMCOORD
 96 1
Ni -0.29498980328502555 2.3261798344584603 3.4988261584472005 1.05659407279949 0.214368811396005 1.0687332792651851
Ni 4.4076492086222245 4.270435634792779 8.896826425891657 -1.8130087661950582 -0.5889140073060115 0.008631707533069006
Ni 4.552956426805208 0.48224554033297884 10.785370820446031 -0.3589452845892205 -0.5040166951409837 -0.20557640991535564
Ni 3.949883020225121 4.779883018605869 3.8156927963275113 0.589170603401508 -0.3825063597386122 -0.017907733518356252
Ni 5.3860572969109155 4.238088743733309 11.334764999680209 0.2835926786898342 0.08014771329518454 -0.018460006477400464
Ni 6.436053069635644 8.162814096332719 11.113773439445982 -0.7120819329164639 0.8491821523372922 1.0138942199381182
Ni 3.655733959244095 1.2317290048910878 8.710979924297279 0.099573426119964 0.9002792281234236 0.8965269601698431
Ni 2.8798054115673235 8.390303644012018 2.134727768918427 0.8896592865157322 -0.5971461654078167 -0.07878142907527723
Ni 3.9986386908291673 8.966189050289339 7.082936440994165 -0.12211711574843484 -1.4138833098425263 0.601777493532241
Ni 2.2834505603913144 1.2347837326915685 11.380595145472315 -1.3032415417235428 -0.6702547124680328 -0.18314379194345234
Ni 6.5915027224190155 4.462772740804311 8.913237974071702 1.5804352588655686 0.34403108648154945 0.8132707831526638
Ni 2.2498485545860274 5.476444016179517 2.28130855941702 1.100890323613704 0.015744921539082562 -0.18499190089578463
Ni 8.049336957255045 6.708062275651858 7.7423340446712725 0.2700907875486574 -1.4008709567432582 0.12455529287628228
Ni 5.538996720202653 3.1742036497405337 5.040436533931034 -1.0571913400638568 1.066714963283576 0.5264287442875967
Ni 5.973127990481838 6.59680927373405 3.507497524735212 -3.3568145467630517 1.1786602807053315 -1.262463331364916
Ni 5.369537771947591 2.8587545532202046 2.299110885480848 2.4217107547612744 -0.3638908015199539 0.21568290222173825
Ni 7.293804024197797 4.33441880047475 1.5385981000938738 0.8901889337669572 0.08972378701939386 -2.7982030470953227
Ni 1.8678137750431365 5.784260907591093 4.82783209341003 2.178656916725751 2.6321910297361506 -2.801236691715324
Ni 7.327406030003084 1.7355099147782103 11.743252245369678 -4.076145190822128 0.17183659446074923 -0.18316873164411682
Ni 4.914752481071803 5.094510753270479 1.4119680967828312 -0.3152797253804699 0.35085068050654417 -0.4746978915722082
Ni 3.407092036583824 7.046611020766153 9.128179142928301 -1.1853860294649392 1.146528433167793 -0.5357831889193031
Ni 7.062798309473232 8.757812316129058 4.7111156508339604 -0.6773067342188077 -2.295502756772917 1.5873751805185115
Ni 1.78152463626823 0.4515478331343722 7.254182082005037 -1.2725698236712986 1.1070835969086095 0.5184284996909394
Ni 7.434072325827723 4.596996188327545 6.753629401074434 0.10158917099841215 -0.5046818395288083 -0.6815277142786907
P 2.2273580057951774 4.611310033700795 8.597424340547992 -0.5943521476024474 1.2637141730528816 -0.9378157916163009
Ni 6.032736712123241 3.2008656093042456 -0.20576960242724093 -0.6413321158964116 -0.604944835516629 0.3351252993514874
P 9.021912453489646 1.398437775247228 8.291984784125551 0.6090634856706929 1.3368368611804848 0.17289434630130224
Ni 6.6928716957135155 5.7359666762318335 12.866907564739533 -0.4028291304563643 0.14879848169436308 0.41581860073749677
P 0.8518242289021273 8.74765142395888 1.723310384024569 -0.9023883040466266 1.8196337277107435 -0.037488998084393495
P 0.068147193426916 7.30699195781377 5.7128411870401585 0.2631089569141856 0.5944861020771504 1.2738754298565995
P 1.850177567107431 1.3515186328374285 4.808489483147107 0.16715333005246696 0.7623390292998031 -0.29960859450211624
Ni 5.832555138950354 2.284271922247033 9.811605733838372 0.14924353965158166 0.5619984138620902 -0.6417393786371592
Ni 2.0587481057505204 8.524868556576394 5.41172439346287 0.8829687618694342 -2.1902122256635184 -1.1537120954004259
Ni 5.527377680018952 5.390099504695238 5.514203589580323 -0.08780034474443588 0.25347683314106023 0.34168572617782444
Ni 7.589235886279327 6.631666394285154 10.029667154868212 0.7756465450419867 -1.6390278716977968 -1.0887125506005895
Ni 1.0625653777526882 3.555066373601669 11.745480996921993 -0.1666733050922549 -0.02317258146172138 -0.29941061955869724
Ni 0.39504736624584463 7.693465782891498 3.5753309394756734 1.2364797628169608 -1.9532835266891266 0.8061238876952375
Ni 9.107970872642161 4.407095481528481 8.723784863340079 0.8362119653298695 2.1998916577348115 -1.4928328890645517
Ni 8.72976603883099 6.93450897063794 12.1904773156589 0.42585078816251826 -2.3698986551859895 1.4735586142159718
Ni 3.3548201989345117 4.193892092867745 6.487630902660799 -0.41476907642705985 1.4850545306707135 0.21295213355413647
Ni 0.7218940121123782 3.637036441045382 1.6217900586577791 1.0024854638805445 0.17385773865583606 -0.22454420926711008
Ni 2.9848843563898995 5.238193705311819 10.637372488587456 -0.12516644409771993 -0.08301603598191509 1.0995134978708354
Ni 4.649877125779975 7.597467962406302 5.40907665507629 -0.298864260136924 0.3395049164764217 -1.7441330262692674
Ni 3.112850687753841 6.520828687687653 6.813845376761975 -0.6489065858095598 0.40936770290583047 -0.5782089621836816
Ni 1.116682972381143 6.670058139451315 7.965933659517028 0.7046450170224445 1.4405865301653256 1.5032278591456303
Ni 6.632755390902847 1.6044427116893096 4.093280802813182 2.0001771059168716 0.48156890766042876 -2.0987287756405406
Ni 8.331497826656543 8.978980146154795 7.2529528078569285 1.0004663765679866 -0.5923633993071927 -0.015739008001811605
Ni 3.8756928184484933 2.1071807688832167 3.9045567660883216 -1.8200942122869301 0.05018227728134583 -0.009962510529350583
Ni 6.778588649824887 4.366968724801926 3.513184301987949 -0.2389560138170659 -0.11473085058669272 3.2104226176276516
Ni 8.095905405838808 8.98869805664998 2.7238334095588543 -1.0728588713977847 2.251250986043394 -1.7365963515725897
Ni 0.05285601973321091 5.170611313520521 3.250387269054636 -0.2686370858212664 -0.028190603501603063 -0.22189648723161784
Ni 0.7258411634122742 5.900183674666131 10.308173425451006 0.29658163475033444 0.7666350855719959 0.36628372723216274
Ni 1.3429266340995207 0.28145486735697445 9.444208730018572 -0.010709930218336394 -1.1714835604512341 0.7670282072453565
Ni 2.9131213250408434 4.521947709555616 13.112334178742138 0.44092310911460836 0.04484929510420663 0.48269967883076226
Ni 4.480021339774397 0.9074645730383745 1.2628872284559904 -0.39427995533477256 -0.3792325740833469 0.2502069041405368
Ni 3.146554210192981 -0.34753942735969884 13.154111965086535 2.921849197893774 2.7487077685786727 0.6364092246734976
P 4.524983979786306 6.098501033290084 12.43055492593595 -0.9314736514483571 -0.7445158850754533 0.14707275725250799
Ni 5.252609067318921 6.334490291858334 10.24123151133147 0.11554691873008488 -0.750885536047223 0.627466670768229
P 7.637871582679729 1.85373064929228 1.9394263771983924 -1.3365144448440596 0.3309711679737977 -1.0180493797570724
Ni 8.66696415761567 8.55063532400522 10.766231243450813 3.107602916656248 0.940796985731812 0.9229041646117911
P -0.028871330667745186 1.3341962035881774 11.813395624969539 4.368887397221714 -0.6343510565928882 0.5292906392164239
P 3.5821897724101666 7.011744671430154 3.6260237320293296 -0.0890280465039499 -0.9512148386310263 0.13755221935658246
P 5.36732286357262 8.139972853715832 9.01196290049358 0.0017344661926034643 1.0856465100807562 -0.4222270753670018
Ni 9.139459486706329 0.4398844947831715 5.20392814987253 0.6272501838820488 -0.003191253243788052 -0.8607135500156596
Ni 8.01594721350236 4.539768493189236 11.108410592543082 -0.5149094307940874 1.3343153803102117 1.839239160646497
Ni 7.67871818462815 6.218844388330168 4.709049325895811 1.6743288609919358 0.4412131295512014 2.0269289200894187
Ni 2.5295453384203683 6.82943925460026 13.550077595429503 0.7559691212177174 -1.4033322737995573 -0.3278061399822548
Ni 8.375943654714291 2.8293331869726748 13.539271611195115 0.40093525586776113 -0.7219233444869179 -0.549621380353976
Ni 0.8473934892736961 2.911617033102843 7.0235861253298415 0.711570283387368 -1.0010939828496568 -0.6391651901520798
Ni 0.9724093781064784 8.690248381907551 13.144778894921503 -1.5930490909748372 0.05596880205613587 -1.1207965756193279
Ni 3.6807624238812657 2.887705251438053 10.562460595831986 -0.3506563051075509 -0.6424538882056806 1.2814352444817285
Ni 1.87084081648893 1.3942479069045748 2.4378176767064192 0.44856031394489193 0.7652680300211401 0.4589141463753903
Ni 3.569112584212943 2.258357494259874 13.044865301005055 1.6747821464792705 -0.039892722429879686 -0.4662140224709132
Ni 6.169119695312072 0.7202762061201599 7.350583200390175 -0.5654886864035358 1.5294531113907466 1.873678059050657
Ni 4.942448064543834 9.346359615283294 3.4157560198439185 -0.07874517652070309 -2.236512908502271 -0.26359258141882347
Ni 7.785781318203304 2.0664633699233357 6.408398092817154 0.27418912598774714 0.9745956794488119 -0.4836003362681606
Ni 1.6975426937172515 2.660935548980619 9.323521141301876 -0.5055138485118004 -0.08247224766330313 0.14914532351082055
Ni 7.42133660267164 0.5401552426750815 9.579578392625852 -1.6378479924570823 0.6221398592386769 -1.9402269506154843
Ni 7.505604637554385 6.796852415133502 1.897797174290815 -0.5355299352579165 0.18453604430528864 -0.83416176766906
Ni 1.4270193220692478 1.8663648558145098 0.08070941542695907 -0.866714504794101 -0.3393071986433189 0.018805048521645034
Ni 5.359690658463866 2.9867301133690414 7.204947437464903 1.2902749542605456 0.33834406339910117 2.0370837491352334
Ni 1.8681367825144863 3.521150589109928 4.456139090221273 -0.7089845249380629 -0.8376049890226542 -0.47326270178757857
Ni 5.644647849688764 0.27345258797390265 12.846930014075786 -0.2571146870039636 0.4876657645867859 0.48106471433050046
Ni 0.7693530384385767 5.14560130645314 6.442652573714567 -2.15947108782592 -1.5531910784376348 1.0305135736623543
Ni 3.4786520346651746 1.9808756188005032 6.393688332571878 -1.018294405888343 -1.3099171539715053 -0.9319477628712982
Ni 7.840360352076544 8.708170682175023 0.08300645998750177 -0.5799282588676334 0.42152953507934493 0.22978566017170748
Ni 6.379849769620758 7.857618179831526 6.853353804900519 -0.7001597275575813 -1.6725123766084875 0.1568005260632332
Ni 5.1344344767293295 6.030789438510245 7.657333244267806 1.30496778038603 0.3742119809403039 0.7161345057192828
P 5.743488135921838 8.026237308661079 0.9324441251155979 0.633401033974793 0.16105853000863876 0.5995876849697739
Ni 0.5104874678708364 6.676176823837173 1.2698724957435548 0.10217409696760467 -0.09355910160508403 -0.5514183243533987
P 3.487225575833291 3.1877330483976474 1.5885618186407686 -2.069817234812513 0.5786182818069584 -0.5896889377988231
Ni 8.389980636540669 2.8268783301904157 9.899092768892743 -0.43487973113400585 -3.7004321998562655 0.10715278112911868
P 5.176499278283984 0.796696082327592 5.496954990610237 -0.4338284070513561 -0.20949837067758112 -0.42545792359947365
P 8.614876895664272 3.998980155870308 4.951613170823766 -0.03394216127339961 -0.30123944523731994 0.8370084930892359
P 8.901569098449563 5.021151142134466 13.68528483142262 -0.40379329414184656 0.12869734006911385 -1.2481893379444053
Ni 2.4061103404402218 7.9739193270872875 11.300402541999516 -0.5227914046453255 -0.9347888318645191 -1.7774825482639904
