# total energy = -381176.0661827366 ev
CRYSTAL
PRIMVEC
9.18161236470144 0.00000000000000 0.00000000000000

0.00000000000000 9.18161236470144 0.00000000000000

0.00000000000000 0.00000000000000 13.43821778734374

PRIMCOORD
 96 1
Ni 3.380596251863332 8.439811618619606 2.5906598972153194 -0.32175993378817486 -0.19113992277505149 -0.5999047019895604
Ni 4.920857648719682 8.386145093838673 6.74753118255959 0.9927245278390386 -0.363161122442781 0.1959813100277528
Ni 4.407880961036071 2.6262441544336226 1.0965333484456679 -0.5085948014299693 -0.23345590993444307 -0.19687039750092547
Ni 6.837702880287744 4.237194785556594 8.879383151073347 0.45113733064344885 -0.07749459194305364 -0.1445391921973769
Ni 1.5283620271187814 5.699054393686788 8.029186955742743 -0.4046718400920579 1.067709208876045 -1.1756412913733496
Ni 0.43348412339817816 1.556678119920218 3.595233887988462 1.1100491072948366 -0.48740993982223796 -1.2324428737434259
Ni 0.959010238980948 8.695822518613916 2.3348904736284917 0.20019123434404235 -0.9590726441125483 -0.36204423522951845
Ni 6.591084769831653 8.358297263272279 0.11457917810884781 0.39031788536323103 -0.03738538262699368 -0.4810181773632813
Ni 5.541984549473372 6.303232037854404 12.661408680943035 -0.41310068758570145 -1.0251872763534344 -1.0372778889693814
Ni 8.519443743414307 7.874371197386251 3.816816495772155 0.3060085844911891 -0.6264803955955598 1.5883174898271226
Ni 5.356268074410254 8.94562664859079 3.93605442403906 -1.2951693062383693 -0.9409592223412893 0.8845638742706959
Ni 0.3599412439815289 6.381753187542434 11.75545714399871 1.7500915578455476 -1.2831671395711708 -0.9921547713784977
Ni 6.249951140796448 8.402525090452734 8.912776675560643 0.17560506036424597 -0.02942370457775578 -0.7662031402408997
Ni 1.1534767907106578 4.994549270258052 0.6522764391577603 -0.39397579383079245 1.5482021098634757 -1.307295142967626
Ni 2.2085634223875306 5.73699281633774 10.141850272393423 1.5332177206395015 -0.20936107376876847 1.2070069501688243
Ni 8.121889105862621 2.9103875149803335 11.074972955066443 -0.19140886016572195 0.2760441769186149 -1.9872709393781645
Ni 1.5120738466292392 8.533105982742626 11.926982518856283 0.34450545501480667 -0.8068214279828945 -0.6706560616715095
Ni 7.596003071071739 7.68045554240365 11.340472133368472 0.16489744413875473 -1.1254417877008231 -0.8211180471112245
Ni 4.227618363769338 0.6439230081490874 8.438206672763027 -0.23156820599342698 -0.02496644013735055 1.5065656652696118
Ni 2.201062045014387 0.7924071265587993 0.24735906658095363 1.626030173886548 -1.7661113303125713 0.20883142651754355
Ni 6.746226475430185 6.1186449011228605 3.1120092972937528 1.4203498914034764 -0.18305740287723313 1.8351958438150586
Ni 2.132466218386783 3.0306666380992757 0.3535095244590236 -0.8402786792000755 -0.39618308589475637 1.0925087844182282
Ni 6.905536633081847 0.8761930128267076 7.271285246939157 -0.41800249576269305 -0.06095854196124341 -0.7749160946338655
Ni 5.459469398368797 8.31539158828489 10.988337096293488 -2.687681349493971 3.0776536785923256 2.0522355171750077
P 8.19633361962204 5.558520633499113 4.846116568878069 -0.3118539875283726 0.7582419764122941 -0.6404044618758197
Ni 9.03775494793243 7.35205680983913 0.21920916096489518 0.7035731241145045 0.8743709928980942 1.5321458277315614
P 6.9803851377891455 0.06959019525613742 5.1633265885087924 1.4247842730257463 -0.14541670970632375 0.7142270042839247
Ni 5.907605538917601 4.331030864814273 4.1755228128789135 1.0996831906794804 -0.32697747343337236 0.36172953220257703
P 0.49254668181704997 2.662483978780987 9.028520082128383 0.008678758720920537 -0.529000875890147 0.672008719044662
P 7.893478132898505 6.351545682575922 9.169957312981316 -0.12283368219948523 -0.039643325423234954 0.1248381142240237
P 2.0747597841270458 7.162217790785141 1.1462986060958191 0.2319042491766071 -0.13707270861700263 -0.6482010751021029
Ni 3.664537616936103 7.099645101925936 8.967322798814461 0.838164718180866 0.6234737475587521 -0.4845570437544751
Ni 0.2596027467854658 1.3527085993028662 1.2235031125582572 -1.1530132695611885 1.3971703679632195 -0.6026277573476783
Ni 8.737507039145214 3.493814715006819 4.398919707283087 -0.5460853421762595 0.778410480940369 0.6372440618699671
Ni 3.4012089718176854 6.46432342832172 6.56589960687629 0.11291950840956681 -0.42976580694620825 0.3602637462903279
Ni 1.329938200422334 4.031388942448877 11.81728704041056 -0.6364927855262393 0.424656767854417 -0.41483901043304683
Ni 3.886301102485096 1.4680571965351774 6.260005924592444 1.4399041593863202 0.2141878057334505 0.5985448455275562
Ni 3.824086496511512 3.494512517553158 3.5374090109280965 0.8351850667272519 -0.08312453653532136 -0.5508778784688965
Ni 0.7335832900636751 1.7064118557846235 11.739143254994302 0.5055441875291036 -0.675911653643494 1.079721917066205
Ni 3.2941697338542784 1.3523780612546006 4.170389373357096 0.25242756594093946 -1.697785292242663 -2.733762203012434
Ni 7.495657228585715 5.510298804902115 0.5087962995342945 -0.10891038725017371 -0.05411272268400358 0.6152529023108566
Ni 1.615073175113842 3.935358457815212 2.828919985856512 -0.7782559576403758 -1.5260083473752557 0.33780387462491496
Ni 8.26083444709613 5.374750660275782 7.093350188428963 -0.12245907246888585 0.4909578050744963 -0.003531153081710048
Ni 0.08318540881355865 0.8034654605957806 7.856170487022992 0.7742218967803182 0.3089237012554551 0.06374150402301924
Ni 2.0843178426893982 8.472498158948111 7.804836091804824 0.20715378170480453 0.09478937446775934 -0.8389802721036261
Ni 6.0538043539880535 2.112092220356177 4.8567194949374395 -0.9283284209511561 -1.674275124935865 -1.1362100819609207
Ni 0.7863353262444057 7.340497159762279 5.929183246340642 -0.036621250767459514 1.5488382007855777 0.09431706281703112
Ni 3.335101362164526 8.259549021352873 5.142254787931847 -1.3536590749441462 0.48347229533072866 -0.7734078855194552
Ni 2.4464222745645783 2.114975246666051 7.832048554789551 -1.5331146194027339 -0.14206424829432307 0.6542282551327894
Ni 3.140662355272171 5.461360810533873 2.0735973919906447 1.365669983362093 0.009674804085602692 -1.399940988729821
Ni 8.819149937066866 1.2629491559737993 5.671048639386223 -0.13198912344650815 -0.28330960023177654 0.04864167226710332
Ni 2.702745349382251 4.1162454047286685 6.872492928028964 1.7724593840177862 0.8007525960809951 0.9954175012901696
Ni 6.271720743919731 1.4836934825406398 9.462346679671013 -0.1444990829880608 0.4713153482532206 0.7381680884805545
Ni 8.09762210415244 7.858459463007232 7.597578635768473 0.7003949834968389 0.03241826842970546 -0.28061585544969736
Ni 9.053547321349575 5.461002727648252 2.4243083609743508 -0.28242102697923616 1.6866105065727663 1.6256375664338196
Ni 1.9165514199696034 2.9371151888276037 5.156042815350758 -0.3973531949434576 -1.07771259994566 -0.8472944483962762
P 8.608275843885739 9.128744727330043 12.404160099590218 0.5983532983420404 1.7221346676213052 0.5141473558170823
Ni 7.203048421358418 1.4949134129567732 0.6653850272552347 -1.183478528029581 0.5864130952610288 0.40303713270211233
P 2.2900135064476936 1.6672706419024823 2.236495723788481 -0.021292076609556877 0.41500124704252395 0.25378459418946614
Ni 5.156549640358099 0.42001653425383734 1.7504891045208675 0.11395283477008761 0.16049031620999457 -1.0315201605499977
P 3.133877143670271 5.043450538176485 4.8051573957304665 -0.3114307839480249 -0.04463897886561344 0.5121326393798986
P 3.288284320272657 8.649005476722047 10.469486931124441 -0.08921496570377539 -0.5189961992689514 -0.11215717632224555
P 1.8230917868224497 0.5625748399871395 5.588054208111663 -0.8833482566960401 0.018134504817181672 1.0617619901536748
Ni 6.753764579253136 1.057363671564926 11.842321624921714 -0.37404820166892994 0.4422071180333545 -0.47732555900304247
Ni 3.2611802003148616 1.390445026479878 11.520126907890894 0.9793913010652423 -0.4075766724436786 1.2410750954971272
Ni 5.9929210818199845 6.281691975042416 7.6820375342291 -0.459525554707144 0.21018716921448963 0.12889737189506187
Ni 4.493591313273882 6.460246792393109 3.9782365879652466 0.46503080079608944 0.23027211288982277 -0.18529529106881637
Ni 7.306415014341095 3.153250345943627 6.386862754871877 -0.4782578410093247 1.1102031163741977 1.2748285377984883
Ni 7.837360117592934 3.539529963404469 2.2103988267166508 0.2881098498338974 -0.5977526886435641 -0.7869946230649543
Ni 5.375430099597218 6.874603780731639 1.521958770594877 -1.506431967905225 1.3832000218260565 -0.08902059030478217
Ni 5.043395448501775 4.549259429569313 6.31074810580747 -0.01796943999422712 -0.661065589769597 0.5578792494873941
Ni 5.555610062351884 4.585811428740039 1.8208918724789918 -0.6619531345808729 -0.6447413986882766 -0.43679468876853167
Ni 7.648108721735861 5.212557476314247 11.622835179260774 -0.9662336806373616 -0.8172634492518247 -0.5428426668692458
Ni 5.836824488526463 6.426054467622503 10.114342161487746 1.6867092369341596 -1.8339601716357448 -1.10573273930767
Ni 3.6674114616335247 3.8065863431783287 12.375066324214112 1.482900203331872 0.5174501949380701 -0.2869610809414348
Ni 1.9989655733372085 6.772788880253323 3.5834759150826514 -1.0923768868260542 -0.3498764895187329 1.1930684857108615
Ni 5.827459243825598 3.2962906863306505 10.841860078365746 -1.4558552833989378 0.6288164999279042 0.2940077033755711
Ni 4.3178736141708045 4.6607792944092115 8.771917886292174 0.18477464267865598 -0.24770779186776698 -1.4196505513436066
Ni 0.22727612566507094 4.725647386381374 9.790359784512557 -1.5157758710139702 -0.5500286430947237 -0.6136513621516916
Ni 1.7632460368614367 0.8833363073142295 9.70702930622226 -0.33254519732913695 -0.47074507757204737 0.09001483589725143
Ni 2.7606354158910245 6.14255381994742 12.377888751881803 0.027483807242565567 -0.11460538075242198 0.7059472807736358
Ni 0.37689692769631905 3.406424127690323 6.949588173303225 0.0886351819409054 -1.0143799013252852 1.2383229866732866
Ni 6.784366893555077 7.0960367282323675 5.618559197321615 -0.12871842311503637 -0.19499863439950932 -0.7817446875199247
Ni 1.0497337516174572 5.135367660431732 5.571606267565458 0.05759065393027501 0.4350725638711023 -1.1633290496648998
Ni 3.886851999232206 8.105757012784759 13.100636821091076 -0.075389886895225 0.31489200302374803 0.6530265215152045
Ni 3.052454604447463 3.169575252882977 10.073946739344686 -0.9899652199263467 0.22237445530930092 -0.3582027499962412
Ni 7.314035752676111 0.4094145263557119 2.7506550031558876 1.0490671682948256 0.8431284899440448 0.6171241511916404
Ni 8.525163887971795 3.1628726757931425 13.281542131229436 1.3777572535439304 1.3622869258224732 0.2742860565769276
P 6.092578303372122 2.4658413849001937 2.637116101737832 -0.9699324696451876 -0.5583063097224837 0.2491039008843452
Ni 6.166793276820244 3.6076667094094823 13.140024102186926 0.033890739210173895 0.21669026044033005 -0.3327940801151494
P 5.444126923961792 2.6395207660389657 7.868869575205116 -0.10734972763127319 0.8046095079332402 -1.1702412034037009
Ni 0.5294145284561188 7.6206924269547045 9.645240727066438 -0.14979478416936137 -0.3040478612203925 -0.40499425642848313
P 7.618644927377946 7.503158605958857 1.8831376959349122 0.3624880076351563 0.8772740254775021 -0.9945579815033515
P 4.44861977548483 5.155659023950271 10.816072601633541 -2.0366389482883314 -1.152474366338583 2.178485938365526
P 4.8562190970588155 0.8862799322662853 13.050162742959643 0.3394082429975574 0.5217498507546885 -0.06268915149910494
Ni 8.355561142761635 0.5176510465828372 9.93761632133746 0.2282918492350004 0.14212158389481977 0.9950315787056604
