# total energy = -340854.16821436764 ev
CRYSTAL
PRIMVEC
9.37815379404167 0.00000000000000 0.00000000000000

0.00000000000000 9.37815379404167 0.00000000000000

0.00000000000000 0.00000000000000 13.72587603589364

PRIMCOORD
 96 1
Ni 5.32860124526618 9.162559255814056 6.745884090693873 -1.2543988091892266 0.16241838647064286 1.047362526898893
Ni 4.462191144041488 4.976010803253919 9.666722230234083 0.9028061083103354 1.8645550137034663 4.266269270738156
Ni 6.315539376938556 4.090628697236537 4.034941220983941 0.30056658754001137 3.2269324423572168 -0.28810419340694254
Ni 3.883793518935597 6.147614158046848 13.491328345982517 1.0651234504267397 1.664893940831281 -1.7373201171124921
Ni 7.197826692258169 4.848139678514254 10.194084881103025 -1.599899024017135 -1.954428696037163 0.8783405190688034
Ni 0.5474937954502538 2.056929191888534 7.840742263074292 0.936024504043833 -3.0914844138278306 -0.050457899540235676
Ni 8.767926551080276 9.136703686257235 10.680927343584534 0.5448247302962811 0.9143583319243092 -1.0283841860241771
Ni 9.307986284148342 7.586785614046038 1.3774463244398558 1.7887812611062612 0.5757391604869504 -0.7492649697246645
Ni 5.9242828075114335 3.4415385500706828 12.285716054867189 1.5289370909862767 1.2994054558069041 -0.25709591795088627
Ni 3.843776937398072 1.6392449855331845 6.854866676208149 -1.6027508916436333 0.29700483833068203 -0.6609812575859069
Ni 1.1731038593736658 2.6251233858454146 12.44521031364588 -3.2913730293297894 4.594543608606081 0.6782742403383996
Ni 2.610071449269899 2.5202568719591714 8.991011256175232 0.9163362815862864 0.5750135951748355 -0.24902908178235178
Ni 9.206073888655425 4.719508923330592 11.204995449083398 -0.8917580780262899 -1.9276915371526349 -0.14183567722328477
Ni 0.1011987180017051 2.018488140160783 0.5650665797214077 -0.4031368915047703 2.594614357033957 0.6328032524897941
Ni 3.457528302009159 7.911879309616298 7.095687345447415 -0.29920364575421377 -1.1591476645937004 -1.7231600235620257
Ni 1.6344433708748267 8.805767400975732 10.840284681320236 0.6510043488788531 0.6205655727730216 -0.2718111126738738
Ni 0.6492214413166685 0.5023867521225793 12.840817408541778 -0.14011843742186192 -3.208019407502798 -1.5602024767584615
Ni 5.847719561279337 6.5096015099959725 3.8650147041076757 0.36445387311227556 -1.129226708664552 -1.235350534308524
Ni 1.3111877934159704 0.11423810280830796 4.0874288712181155 0.240695879326308 0.10031210405820143 1.6928091791843105
Ni 7.296053473374653 7.959051422373211 2.1461088681985374 -2.246090010667745 1.2264321487729717 0.5048882991126595
Ni 1.7924558813800422 7.66632173497872 8.866984236608342 -3.5105292348121093 -1.1246586296778953 -0.5903669377024542
Ni 0.4856298672172011 5.989264034010967 6.968901273082696 1.3041913072313216 -0.8234978601973106 1.331225171420662
Ni 5.82582157255421 0.45309517664537524 0.9397678945461884 0.2693120004011039 2.333898068721665 -0.07151523443116717
Ni 8.723267783496096 3.3422051468259055 9.02509240428058 -1.014857612292652 1.3833080081588307 1.5446236484835978
P 8.255100976152583 3.2190137207474137 12.505137653154419 0.06750585616145793 0.04388153187429862 0.8300929969163252
P 8.398296003923022 8.448337831690596 13.29621492190322 -0.5325004044029732 -0.22129382065061243 -0.35082239837177
P 0.3392744016735847 4.4707346419980585 2.2359037513866427 -0.10468940719029067 -2.3812960983896536 1.2401921786715417
P 7.152005033623919 6.807339131428674 9.853792949760628 -0.6706023256154385 2.5142699543469345 -0.16316169239457062
P 4.999690641168671 8.030428549648136 0.856099759124304 0.40357449326282113 -2.5031126521785345 -0.2885520795776385
P 5.225947975636524 0.548221540171911 9.279940915719008 -2.2984039895801125 0.7471132134889843 -3.4570973402452134
P 3.6610342357715884 6.8631391455248245 8.918552827786813 2.130099833752654 -1.0667108495185178 -1.0192290018874706
P 1.3095653728380485 5.498430229344698 12.352423799449932 2.1432260867219672 0.4668627117985056 1.4094273309537018
Ni 2.7124433742906673 6.5734573580599545 11.010033013277539 0.3757453868656948 -0.3354834540218545 0.7671084256639885
Ni 7.182737243068135 6.363508632753986 13.492782897610468 -1.642244064642249 0.494374029844897 0.6437420108894849
Ni 7.941148527094295 1.1055530187796205 1.702750090651418 -1.6649343071509135 -2.2166940740041308 -0.23719532237221727
Ni 2.46639813566435 5.200711364219257 8.431585635862032 -1.062384197118706 -0.5721830677045759 -1.50694567431685
Ni 6.22166405910621 2.6050260026171714 9.737644517057971 -0.6248307758072787 -0.10349744376471853 -0.4090059486910375
Ni 7.944871654085248 5.599939364231544 7.999783557032675 -1.5040328715454292 -0.2515616183962184 1.1033850650110997
Ni 2.3077760451732097 3.092765016585671 1.3662938241435298 -1.4237409193628963 1.5628468563598439 2.4151629263404275
Ni 1.2036860183598077 6.336677735219686 3.074925892751436 -0.7302349496764069 0.15163697958442274 1.5251413713892703
Ni 8.925404506828604 3.785773057198965 6.562464286375331 0.5634372031911458 0.35265019560912814 1.4373096591862664
Ni 4.387184671311907 3.023582377260074 3.1692776207881663 -0.8669281634668038 0.3303024240415473 -0.6342757232702625
Ni 5.519784285159308 6.420677857280058 11.575676349447168 0.4746328426622277 -0.8078861218019829 -0.5285347348870059
Ni 2.679029012908385 1.7114473903275136 11.542253547726617 2.490893227294207 -2.2162158488161317 -2.87845283318601
Ni 2.0539750734952085 4.207996289911043 10.520430560182836 0.40353618382571793 -0.3531353627756628 1.3766434516544614
Ni 5.96165474972541 6.986405596832353 7.467755274733002 -0.12256757302229213 0.5935939292801842 1.5667970992568434
Ni 7.13036025504679 0.7628574666619559 6.195654687829863 2.342688156209469 1.0373966739354326 -2.2858441506372307
Ni 4.851168822136617 1.4483057776344257 12.502392667587035 -0.02328802399366312 -1.6589940304070783 0.6445588503638254
Ni 3.476143936963925 3.870138927250892 13.342484856280967 1.0138340561241443 -0.5092131517402585 -1.7348842539774896
Ni 7.803993030261322 2.7286394456089957 5.073701153982789 0.5701601237372761 -1.269123516993911 -1.1237931963538066
Ni 9.07201318252022 5.246589291775283 0.09618515707131824 -1.481288892980694 -1.5835367806090275 -1.1526556291114536
Ni 9.378622537286528 2.2658275639879863 2.936925424276435 1.0095277154393065 1.237375792268669 1.6497038633544039
Ni 3.976918584477575 5.3163252421650276 1.7885086165173414 0.64549164659074 -0.9132838679132077 2.090056701787839
Ni 1.1682928665616783 2.0844634509450546 5.739173059908837 0.8992039927813739 -0.004729030044553145 -1.472447126319348
Ni 1.2971674537397109 4.139301314574187 4.523115381280855 -0.3565616148483924 -0.4608350175471869 -0.5741034246557403
Ni 5.660475345910644 0.23502590811153207 4.394476185758926 -0.8324933788277017 -0.36733376576323185 -0.4942043370362521
P 4.919779394090807 7.741881518772447 5.16587058566991 -1.8330924243188105 -0.32057979743714465 1.2351631008880661
P 3.303407725260229 9.06061872586025 12.11087538548901 0.1314913578744832 -0.760701236586064 0.9781623137541476
P 0.29872607882526137 7.216479839827454 5.356468428776552 1.67478086092769 1.3194497760522887 -1.8947397648169626
P 1.442556969459478 -0.05617795368742311 2.1036005112416265 -0.4895544969690666 -1.0482151047071755 -2.0296141802310657
P 6.600063179907144 5.4340585828310894 6.210807908464578 0.6708229262666769 -1.139469983659115 -1.4382699662170066
P 4.2014597168312084 3.1419534323729494 11.0161410047365 -0.10174703673251509 0.5090858821337749 -0.9438344870065551
P 0.8554057757557133 1.742948608369357 10.063166794249103 -0.1664393347045779 -0.01581434132443728 0.5382092818622924
P 3.39195625183096 4.773367659625413 3.8913823208526734 -0.37728136389424705 1.1648583418252325 -0.14258849622890926
Ni 3.4765847101845164 0.8670328106256976 2.6308384326672964 0.24659990351556885 -1.0489339851510708 0.45745607377262504
Ni 7.6774160907225415 1.1288952431637074 12.490821901638828 -0.4798354699090897 0.3154969835975986 1.2875902083395308
Ni 4.57990572840029 3.7870203516317025 8.063101099078317 0.6445629641288835 -2.9008597401263008 -3.721175345940888
Ni 1.7919775955449322 7.422142748924693 13.307785687851428 -0.8341957062307892 1.055566145755608 -2.340967573973936
Ni 4.3993012458013565 5.599404809474655 6.362780888032328 0.7896369457838078 -0.05294955561383784 -0.866906566200249
Ni 4.400670456231279 8.100727189255654 10.308420516709083 1.235907949473891 2.1878573522780966 1.85884793601636
Ni 1.2882957204061043 9.004415451158026 6.446083275462659 -0.1725171654675416 -0.08480063868616364 0.9793851304176552
Ni 8.396523532887027 5.3805374600669325 4.866303286464073 -0.35857530284431144 0.07214181227157251 -0.20130940710888556
Ni 2.9633840091116395 7.692111657460132 1.4111570354768341 -0.5822448228159521 1.4495961898631033 -3.265258077410292
Ni 6.258135698571743 8.444145797018162 12.567150694030184 -0.4647052991358706 0.09102399388805613 1.1757744745171042
Ni 7.760853523565138 7.7017430212377365 4.670311129389684 -1.072219952262205 1.6131201506930992 -2.319734889847405
Ni 1.6895118889878675 5.3703902978397 0.9723916775774955 2.988012681094725 1.0007659100862765 -1.1620494116215279
Ni 7.173452870974826 9.252870875267153 8.216803410175364 -0.4107913227262345 0.68758857576079 3.0205515342626947
Ni 8.123216001659447 7.826509977126003 6.8507909306407235 1.5717248755757642 -0.40769340052720104 0.7710170166897754
Ni 2.9893052257438675 0.24743132973277362 8.555269415006078 0.6076784323977082 0.39485613955321675 1.0805076461922942
Ni 7.2900326987444455 3.760498933167179 1.6501517782044153 0.6402499385758263 -1.2918641531245363 -0.15197610809139633
Ni 3.2583175626090886 7.378946973306732 3.317489022935082 1.9171937229451044 -0.7621194570898294 6.062360435242269
Ni 6.613323889139405 0.24188133841477336 10.617115572842613 0.049397833706837514 -0.186326303436492 1.3870949860050885
Ni 8.10460974485831 5.773660282066347 2.3682904570989622 -1.1044279044533172 0.7985437613551345 0.7335537296369947
Ni 2.3369327248076517 1.1041931865033279 0.5810338240911732 0.13738612609236342 -2.4660062342445404 -2.173166068814509
Ni 2.250756871105211 6.075383618791631 5.477324694601271 0.7110768886907173 0.8312114267914845 -0.8398891570711406
Ni 8.797870995619604 6.970753458424542 11.5095312940822 -0.004671437333740341 0.6369558412055869 0.4015793172096632
Ni 6.481166948191011 2.064975647702735 3.220117529429618 -0.016304393586978376 -0.6381992266943848 -1.1713159245251181
Ni 5.388668319263801 2.813371063652477 5.621597272223752 0.27556955127504157 -0.4110995979952727 0.7656806920785264
P 3.4241326969341355 0.7238284047016286 4.769357561133394 -0.44767328335424833 0.662527261916788 1.2297272745844756
P 2.881906610377631 4.105624364890275 6.568422227376219 -0.8202785819290648 -1.8379042438851572 0.08175208166782695
P 5.684483419202433 4.4695998854088765 0.4801858490352154 -0.7180106396960731 1.4665963239655257 -0.3874307936234231
P 7.843465678888328 0.47729643990193404 3.8087795436831127 0.6716220251292045 -0.2717108396505836 0.22996229495888784
P 0.025199098802748763 9.097953155459708 8.391162980272345 0.315010016658851 -0.0938961732295286 -0.09438571127143745
P 4.2311509512225385 2.1327421858302613 0.9134612357997833 1.1468217960384959 -0.12011705459927055 0.5973060880244487
P 0.4522492671879849 5.52831840496225 9.27508209432351 -0.124894678493572 0.17071122260705437 -0.5731135499386453
P 7.254048723267651 2.409425852364499 7.535176696806959 0.003141373842459106 0.6792839125498366 0.49621108305363576
