# total energy = -381170.5179086436 ev
CRYSTAL
PRIMVEC
9.18168567687588 0.00000000000000 0.00000000000000
0.00000000000000 9.18168567687588 0.00000000000000
0.00000000000000 0.00000000000000 13.43832508711807
PRIMCOORD
 96 1
Ni 6.885125579712506 1.1065308254152055 9.05854622165898 0.4864033529345946 0.2779344519627923 1.1959398937213854
Ni 5.298117153218781 5.847035037852418 7.903414898670131 3.4173380580694053 1.6501072694404095 1.2829879336808292
Ni 7.36258240626867 6.040410515710525 9.008770468344117 -0.7603759920361615 0.6910269120183776 -0.5583924416783866
Ni 5.460247355394293 9.116302695991568 2.4314361037402366 1.5816992131796566 2.2039128630790623 -0.9442723458749221
Ni 8.637569615153923 4.701041328251554 7.207389885640549 0.5004436330777446 2.6718266418499015 -0.048386618833503765
Ni 8.97859577718829 0.4864787507071243 5.764450367818007 0.6192249995847271 -1.4073046281837442 -0.9465135765006151
Ni 9.176029560027796 5.809592124471982 10.2526492086604 1.5397164409899675 -1.5515244893684892 1.1362373356544302
Ni 8.636697355033487 2.501008489114826 6.733877511165856 0.11537619748017548 -1.3641008391027603 -0.17678416827401167
Ni 8.790031502520803 7.562146340139139 4.669562837757811 1.1017776113146638 0.19999017407682976 -0.26984627563801916
Ni 3.443995132790865 1.419534483369853 3.4029603440513254 -1.4625373234048038 0.1490530209073304 -1.6077398602177924
Ni 3.6595719261354582 8.35074294249786 8.89918154314953 2.637858769544889 0.47444283813860866 0.9588538432335229
Ni 0.8026298904437272 3.22281751130452 3.0244022062873848 1.0988498961449074 -1.2260117734061016 -2.3304247654610832
Ni 6.084298972296714 3.6640801337052946 13.383980405859315 0.05947244433402016 -0.8904357596704406 0.9281736405408467
Ni 3.167424402814042 4.792389917074987 13.143340365664654 0.15406255830677984 -0.04233527043310128 0.3155016115832889
Ni 1.1547714009181014 5.902721960278201 5.746496500033773 -1.6407749362958906 0.6507464672317761 2.2918965274788983
Ni 3.5865958899540695 2.582248042226669 12.433540988080555 -0.7314266559916629 0.5533247973474922 1.1761655393079355
Ni 7.886186384038682 0.27221218388028234 11.431686886129055 -0.5444022980468818 -0.11978512518114853 0.8839876900522518
Ni 4.866486118884725 4.90174379112133 4.259505091623527 0.5892909310294561 0.48058597492186916 1.5176936568619732
Ni 6.868396548771076 0.6738815421616077 6.707538010034307 -1.3456783707315148 0.6364843008858071 0.9121623527142548
Ni 8.487201152076093 4.8570289828420945 1.7465383753417858 0.6525272132812826 0.09041104289440559 -2.874172203532786
Ni 2.015361599112034 3.5923160800070395 6.883741899710929 0.6332341693796256 0.25850668225548384 -1.4243245597805083
Ni 5.449725143836182 8.829751473899853 10.797586832639201 -0.39351685191650293 -0.034208270450592694 0.5101873427280698
Ni 1.6083007551178614 1.8856335649893818 5.109573996427897 0.5793407617952797 -0.03083035511729529 -0.3248658264070083
Ni 2.431337859705619 4.632500046156176 4.451713577257343 -0.37926317021096617 0.0342262681727217 -1.7089145693866052
P 6.37715801231201 8.174537216484142 8.838600782363821 0.15612381171118275 -1.1802759619318832 -0.3964990744732784
Ni 3.366253801846248 6.31508981847882 5.634232949859363 0.16911456754389584 0.4897218757848663 -1.5932174982319014
P 3.1068160969718996 9.032299455550763 11.1078635300068 0.4705399035397767 0.30717072312009036 -1.869713417975954
Ni 5.587863601856941 6.658686852447106 5.768776778015374 1.8106893740332621 0.6934347501289219 -0.40155360617805036
P 7.900372088102628 5.686796262885434 5.351356238296055 -0.5289869919330761 0.9606582434321133 0.32550217443942653
P 5.269451931155584 2.366377434946771 1.3828169231422018 -0.7394024751082878 -0.9277704915651569 0.6032144830890837
P 2.5011829411389135 8.995737983976243 4.843481405918889 0.25453741319509066 -0.20833288961457022 -0.5583497613659093
Ni 3.7190417029782936 0.13122556702416016 13.09054108332179 0.6406260909683225 0.038396340390011295 -0.03436253664026986
Ni 8.782006709412785 7.9803170235620335 9.765899598231666 -1.1649676137095872 0.1058803421745983 -0.23756247590364893
Ni 3.7011190529246862 7.102722343862322 12.270278684085572 -0.6671981850298961 -0.34195414934786267 -0.936018333396246
Ni 4.511568066721718 4.330027781445119 6.6783907494834995 -0.5844557144243419 -0.6376423257496503 -0.520147282154259
Ni 3.894549620895662 8.339816736778703 6.691425988357017 1.8610277172764982 -0.41756026601895185 -1.0751075582226453
Ni 1.7935228962712528 7.116797867700528 3.66012925444399 1.824013087725362 1.2619817637428072 0.027067545640753383
Ni 5.065095157465453 6.473813615341889 10.1898244439438 -0.45764350719308283 -0.060973197249262735 -0.07715674898766066
Ni 9.243294587841692 1.6065562348769877 10.238565421305264 0.5469767436422773 -0.6559488373683219 0.09085147286593385
Ni 8.517280353702946 3.2103028739976214 8.849365390418559 -1.4420754560060263 0.7263739240591038 1.8504859372049096
Ni 1.5562865068833918 4.165446069246906 9.031777017647048 -0.15516916110739729 1.721522487958603 0.9454722797202941
Ni 7.144223562224158 4.502423107985349 3.5637096207309025 0.47079907073843436 -0.1324454942576364 -0.6862423461455407
Ni 1.058299431597788 3.10173862490241 0.5291350251021287 -0.5200755483760592 1.513869912240509 -0.4702138876589257
Ni 2.5261846706962765 6.779022022325474 10.126960197979646 -0.8204053373149163 -1.2489221023453718 0.5446717496581845
Ni 0.7608394489893248 3.6378664216647985 11.41343828624097 -0.4327364595387579 0.710614604342318 0.8312865030037941
Ni 0.7494477318164197 0.5101610720612582 3.3269929147411124 0.27875900474661663 -0.7682363686208447 -1.045069359989342
Ni 4.653471015788573 7.328454081345894 0.9189095098463391 0.9801104386194539 -0.6529339618013981 0.8258560760168423
Ni 7.277844630989602 6.932429623296618 11.49944313411604 -0.7728088184828755 0.584318160405213 -1.0123942383538242
Ni 7.850588989439381 7.455299066228366 7.001461207396535 -0.02755991189613963 0.1156477059740073 -0.11856307984858935
Ni 0.31992113979398557 3.7575129651322965 5.011312516607865 -1.831361557670633 0.8701122176217402 2.703547627102267
Ni 6.809376674516677 3.8234099218099296 5.736122113611862 0.14608853896236776 -0.23458616688414438 0.473417739308204
Ni 5.761700453017261 2.6302498939071297 3.5284473576515594 -0.34995979326115856 -1.0975864560514517 -0.25054346154434914
Ni 6.7464637656194855 6.849087464210248 3.3563825717885467 -0.10049053861759467 -0.18010500511712854 -0.886513541797899
Ni 4.6791521900713295 1.6910001962207513 8.39817369334157 0.07643529744060384 -1.438138325735149 -1.1860753422224797
Ni 4.709093666416008 0.5124078304977938 4.91284995787586 1.0105808392941693 0.17762389056648764 1.7640547048938586
Ni 7.977856331853854 0.31486294926399977 0.593774090869237 0.26497660625054364 0.9040142696858237 0.9692953502818209
P 1.841717563346757 4.984498322337089 2.249091502815739 -0.42880858523926146 0.5905260889881379 -0.9112352129142951
Ni 6.974950008746543 6.306128493452017 0.8013986264210894 0.09107181640685606 0.8360582133608246 0.8839169847153163
P 1.0401196943507889 8.973215309498016 0.9240255449948381 0.6595830916867996 0.2991918186796718 -0.5674869477804872
Ni 1.3541608827644824 1.2691201118646307 12.217855850847318 0.03894527091494583 0.8035664113807063 1.3676057669322252
P 1.260773959764872 2.111585662924434 8.335443499985397 -0.8135201801593086 -0.49863306223156706 0.26297243133632126
P 7.6926639992129235 0.06323794056312233 2.8223032090563627 0.24945639912775752 0.011425725338438388 0.6456914213063718
P 6.530253435976891 8.412655047677918 12.857722002817532 -0.7879035080324689 -1.3347509251857337 0.7124017781497279
Ni 7.976534169144981 2.646198481582906 12.756813443074112 1.7267066032627036 -0.9981863222845583 -1.0045726854268764
Ni 3.8564364444753116 3.0669308552542414 4.9920282225978285 -1.2527731006603455 -2.9673708364746574 -0.07539631465312822
Ni 6.110016873321383 3.6054091634990706 8.387208006374857 1.7189197602284332 -0.3759418191472171 -1.20515832699586
Ni 6.436884876348238 4.474308787050849 10.491219696948257 -0.2236155268052536 0.6812150681342783 1.1410010755916609
Ni 1.3512411067823886 6.05561538686256 12.48096531174443 -0.41144541137046553 -1.4821000760280796 -1.7910674860372768
Ni 8.031201924482675 2.646363751921515 1.6584373486720225 -0.9482274738679282 -0.8630206008822814 0.41732089631463615
Ni 1.1884865499943544 8.294147033209727 11.599236119073849 -0.21048181763677298 -0.9950732305768734 -0.8381755168141436
Ni 3.5495110623072867 3.6533742884376172 2.4301598494587555 0.6500556118123385 -0.004615901505456567 -0.8183790509135066
Ni 3.2359748665948986 6.065008251106843 7.824048409395858 -3.363812832457755 0.32477686623762775 1.4058414133746564
Ni 4.348097338466379 7.6485276371188196 3.558979216372492 -0.8875977760010133 -2.298222726807242 1.4555151264506998
Ni 5.841351574541361 1.288897462384851 12.817877160515977 0.3406477718316133 -0.15239982589237624 1.2126327809960342
Ni 9.107148555569722 7.43512690323258 2.0380155716926005 -0.8864248387388346 0.5534497529611307 1.114390672092984
Ni 2.711948531292886 1.6333392114171374 0.9937650370451322 -0.23301959372797287 1.2296277728921339 0.8968689168902941
Ni 8.924800281971033 0.3281864930615354 8.058721272198182 -0.8639785939201765 1.1574201403796325 -1.3242644238321128
Ni 1.577762469217094 8.971250428805662 9.109464176647343 0.6540223097695704 0.7169922257338879 0.9716723351544299
Ni 1.642869800943595 8.114121726037043 6.685029108084298 -1.4086315745252835 -0.30887407896444224 0.6218652654210516
Ni 2.7285857453795344 1.1717483373674458 7.158219205398704 0.05211754663084572 -0.22079245553416169 -0.35376374038828107
Ni 5.543001886610052 5.591371005709644 12.68075236057202 -1.006885392720453 1.7479503431328285 -1.687299819330307
Ni 4.956466636571893 2.0583594322068306 10.814760257157781 1.03376010562411 0.7863091669621556 -2.2399759273502067
Ni 8.953768499655013 7.454555349704625 13.175202650611391 -0.9399230677672911 0.08661840862119276 -0.0869092003887342
Ni 6.8591597731799245 8.669356610279737 4.815999703113842 -1.06885514955503 0.6441731848896325 -0.8701906362681594
Ni 8.146028083074075 2.022247863220746 4.032787241119586 -0.7244139721192557 -0.5547808130677284 0.41902528060025257
Ni 7.996109522584679 5.023814299555094 12.388267933324238 1.2288086194249481 -0.7611902604073407 0.6393639364264472
Ni 2.2816396596677024 6.792445646494724 0.9935786488299232 -0.6190079984779145 -0.38441926049060887 0.6568278975391656
Ni 2.35879336274171 2.3639901967224173 10.304910444234237 1.2867042061901517 -1.2049958332760666 -0.15746798444390303
P 7.186532768908084 2.5680623381627226 10.724966127685821 0.6801200352978867 -1.433423693868299 -0.004993596559849464
Ni 0.13627457586866765 5.572879091156384 3.606645018364447 0.0021584411038995084 -0.1006247502026138 0.3052735060973775
P 1.0857251261214178 6.329165342317028 8.381147175790645 -0.6758548322636295 0.22527003168954104 -0.3760246086690105
Ni 3.0267150728593646 8.814078336788425 1.9280364248651858 -0.7426155827289469 -0.8474422868280501 0.6658866653073242
P 4.3002056670116575 4.5655931040759326 11.206554712707213 -0.7625362329122738 -0.6299174463015668 -0.1990056986763734
P 5.4188104088308044 2.3195141122656175 6.156445902279414 0.099215528559913 -1.7817840038528217 1.461881692098676
P 4.907968973875605 5.4991042483383845 2.3962280126052153 1.09050100995958 2.3993308444041777 -2.866300514094193
Ni 3.932929066194882 3.725799423490309 8.921636273155217 -1.2172036881961683 1.7506859968964363 1.62514211485464
