# total energy = -381166.2603932106 ev
CRYSTAL
PRIMVEC
9.31019629084571 0.00000000000000 0.00000000000000
0.00000000000000 9.31019629084571 0.00000000000000
0.00000000000000 0.00000000000000 13.62641336071828
PRIMCOORD
 96 1
Ni 5.1125266395623195 7.916990478861723 11.690440914448297 0.5313734898873816 0.5218652932866302 0.15962771109938317
Ni 6.222758221843387 0.5520853222893694 8.203999620067195 -0.8453293542501055 -0.4393873891963723 0.8991129757294645
Ni 2.654690713619896 8.657542102085403 6.138835182607504 1.4444804659030928 -1.2342359610881066 -0.24795281799903754
Ni 0.33086202717399443 2.2418579953454696 11.562516026105278 -0.9714905581609269 -1.1510911128378112 0.5719812361064149
Ni 5.674350427038534 3.1059373012642264 1.2580337394327972 0.6208879891094468 0.9634095809250053 1.1058864912767148
Ni 5.146992985758971 3.7866988447269945 4.053313070217074 0.9327327206664389 0.39601827818211793 -0.36935233885515745
Ni 1.1850855594342493 4.446484516233777 6.639278708818109 0.9515902196925741 -1.0388717158190623 -1.2119997753977256
Ni 7.374038459008581 8.920201356245299 11.77093128435876 -0.8562534573617769 -0.14230953153590975 0.003909105246419074
Ni 0.6474059036684019 1.1113115650360137 0.7403011789468867 -0.9274539887660028 1.039208530333191 -1.2112425855167268
Ni 9.12057539807251 5.278415714800552 11.313220627518227 -0.9566740619733847 -0.43747654532690466 -0.3598875938978318
Ni 8.736706700062207 3.9660877044020575 0.42768248115493956 0.31494342508697376 -1.070058682944828 -0.1673407634729247
Ni 7.480807788609662 3.6855435634124025 5.2632978182705354 -0.1345859376394069 -0.5041737895441382 -1.0942257671093347
Ni 0.7269308062367269 7.660988014958608 3.939287373726293 1.2982001226448934 2.9240410633387706 -1.5273342652755308
Ni 2.3584030309180477 1.8193333628650152 6.676179671311472 -0.057969120315616296 0.6453888024642884 0.7363202366385383
Ni 3.1757823928815365 1.9359621902030637 10.987780858589757 0.26712193472832063 1.8170965631111866 -0.7403542974985959
Ni 6.2067353742462945 1.4386953029233875 4.095595326092842 -0.48053995217528206 0.44445837596137644 -0.6690118411998672
Ni 3.6011093944071533 4.112136751616232 13.41599453339931 0.15103585566531408 -0.29420233588488043 0.08611318685000008
Ni 1.7151708881896672 3.961292953377942 11.417381240154343 2.3174916023391825 -0.14269314012757361 -0.14697119867763722
Ni 7.865756469374912 2.195502528648244 2.4240296726537522 -0.3723769846140942 -1.8621793143824381 -1.0958067384432097
Ni 1.6423651541924182 0.8773649558438305 4.5336987098133985 1.4105768711771127 -0.5220804946212299 -0.6246564550129435
Ni 7.9441855618548125 4.2722069542523835 2.8458625575592706 -0.8483501433543003 1.913869286557562 -0.29097714407936337
Ni 7.57091186707838 1.828438734712753 13.402422129432408 0.09478937446775934 -0.8407988133696036 0.06602001564455082
Ni 6.024283460033495 5.986698198122127 12.633988330738783 0.8310682163454008 -0.2477227042661024 -0.5800118197203754
Ni 8.604725359250825 6.617864326622831 2.0768701470958466 0.5581003643592647 0.7171588332187392 -0.4185789370914533
P 2.9164375685557853 7.755253751112335 0.26741117828166044 0.054100124278513274 -1.0401194721832345 -0.509030089195175
Ni 2.9155065489394523 9.432252835032344 12.103034360681326 0.007273650843277795 -1.221202010722284 1.7425219730284054
P 3.760006512326725 8.019691252739428 4.307486080574094 -2.6382973997442045 0.4889919395973772 1.7485003020990275
Ni 0.7374708793132341 3.855622226924135 8.851036839967529 0.39722078313065134 -0.7418020856887161 1.29910952183304
P 1.6165014292506845 3.431598652861384 0.47637108301069575 0.4812004685774165 -0.907793791332914 -0.6157043880259784
P 7.17103894186331 6.2657247771371605 10.771761032110067 0.9249129675117038 0.7950532317033727 0.15632152954428563
P 4.417548426558144 8.099284119739744 8.310708433393215 -0.2526432814961713 2.014494550980808 -1.1371073969642094
Ni 3.526590584315851 4.022107154716821 5.978507087537629 0.015006757821477382 0.10415256085021417 0.08499321431294395
Ni 5.150326035985444 4.752166186864428 7.686223301659316 1.1248254942730629 -1.3313902362436167 -1.298833642463834
Ni 1.069024654062164 4.794955848431097 1.978855194947146 -0.6019348450457118 0.5699942875833732 0.44741051661116493
Ni 0.928827065136643 8.081306130948352 0.5584339450531448 -0.6609627456431455 -0.6876032310488094 0.6983057050679781
Ni 2.4117039039531183 6.810566766811458 2.265364378618648 0.4837227207786378 -0.03385937175160621 0.3395604523047055
Ni 9.003583473084092 7.39016371876347 9.989496005996198 -0.7002733703173102 -0.24799678386309545 -0.573647053844612
Ni 3.809462274346339 1.9605783488589108 4.806308701632662 0.32389214963982926 -0.7412050755346654 0.34044285490965887
Ni 5.828722789622725 8.268087286377101 4.453070548999718 1.7328325136547835 0.0752505331038833 -0.03510275724040406
Ni 2.0638004937217627 -0.10061435891750259 2.283500640744817 0.6879724414627699 0.724774440782468 0.40757590111273034
Ni 5.115049702722582 2.161194455786369 9.267787288787485 -0.6531427353780944 3.4673182466422734 0.6150271594532956
Ni 6.913686499516512 2.8808353784272076 8.091677689474304 -1.7533913116427415 1.4208101188693467 0.7763096325472824
Ni 0.44270448266447426 7.172649605799566 6.027098863353286 0.943922161624355 -0.38311365430530797 2.1815519788853592
Ni 4.830427695813388 8.417934893625915 0.3685701836747179 1.6534119083336105 0.6398539886889884 -1.024218998902894
Ni 3.2324628671238957 7.96788001109049 10.422624951906688 -0.33174789823882217 0.25933509169405017 -1.6152227988583987
Ni 5.517911200906082 0.7767887687305975 10.935905376587295 -0.7828518045411744 -0.14263606163739306 0.4476668555963451
Ni 5.321372959898162 2.4609362212648125 12.74718262671218 -0.60517854879399 -0.901153660308577 -1.2045844567702608
Ni 3.8790187498825857 2.261185962580545 2.5585638692531187 0.20023211488430678 -0.838746301715949 -0.6689797024103511
Ni 4.3512412094829 8.981518308176998 2.588814558627014 1.112263341337336 0.9661848296772974 -0.5267686441255186
Ni 7.464980455131999 2.148011218019092 10.398969605494896 -1.2836764751074214 0.17129897678972436 1.283545348846196
Ni 7.009274283525432 8.882355408841358 2.5183112361409568 -1.442145132901697 1.8245062253116964 0.9293923434392961
Ni 6.5729053893501055 8.128248140003869 9.78234786544055 -0.712849664320424 -0.986732571921662 -1.1050441978810774
Ni 8.68587302901042 6.486395046600434 13.234422432723946 -2.1752206373506926 0.5206879851490773 0.06232071241609267
Ni 1.1312167644332156 7.7577488836841075 11.812764788779456 0.9646632508264483 -0.924441427191924 -0.07506618500721911
Ni 2.258132218238972 5.873430351599041 4.880286589326875 2.090498417310948 0.5450571580220613 0.14381516954715878
Ni 2.944898838227089 1.7361281397533255 0.2654737264600712 0.6633140194841415 -0.03777104810118656 0.2066004803044958
P 5.760330088606896 0.9203035805491134 0.9847050004697233 0.9615285618522087 1.408608177486516 0.37595621732492024
Ni 1.7322737185417063 7.971762362890599 8.456415796408194 -0.47280298854234054 0.31157707971790205 -0.17972113941514853
P 3.938901931605131 4.637138713266471 10.439930744535088 -2.4449257594251566 -2.3599333164431613 0.25972178560950754
Ni 7.282342336995933 3.95494339959455 12.218355105458427 -0.02221561686509077 -0.2917603021022911 0.0550257214165762
P 6.340504272721034 5.412072890921333 5.640408244885877 -0.7565357923544648 0.3640692360793472 -0.08317904392234061
P 1.6255323195291156 3.430723494422031 4.5706127065813895 0.47805395252863475 0.07588765246724996 0.6245628668578729
P 8.859461636475727 1.7931437810575648 8.942388484722134 1.6468072585328992 -0.41810508277882835 0.8094429247661414
Ni 9.161540261191167 0.13627706532114228 2.7961395929097685 -0.0947361526323207 0.12259714070864691 -0.23245189414996095
Ni 4.597263143098925 6.211418402916449 3.812765531945089 -0.17578966557122627 -1.8286894101551088 -0.6984710270012486
Ni 4.669957154742214 6.144189476421036 0.8431788465516951 -1.3731385238249962 -0.7424641447527471 0.6699235543808592
Ni 3.3270079091625226 4.537715128438259 2.284890653032002 1.0662606493549764 -0.21037640240716024 0.22452235489023914
Ni 7.9570615631487 8.662141338990088 0.5994286007995242 -0.3384690190127396 0.20282764352562488 -1.273396176227336
Ni 3.0350029166958072 3.6424280449800164 8.52607375308262 0.7603906473241807 0.20989946277074176 0.3843079317237253
Ni 2.7844655379405676 6.023464162771122 7.41662515829889 -0.07561125887741171 -0.0657230532294223 0.17369241672256536
Ni 4.775227542760998 6.808155426005154 6.1552686098554 -0.8377055191562606 -0.03414116465808314 1.0603381132229546
Ni 0.320078026958008 5.600408849109358 3.9139692262797303 -0.9003432485921397 -3.7258658094380217 1.1031222982680164
Ni 1.6854899828209677 5.9976376786140415 10.248234736551717 1.459040880215771 0.11228341748746469 -1.5562828299890807
Ni 8.753027473936525 2.7176741906648307 7.081878917285553 3.968985981935107 0.8000131468118094 -1.649438011287527
Ni 6.882739407469599 7.925481377762681 7.0153547726397045 0.0962729009918213 -0.8861924110130545 -1.212434806052615
Ni 6.3031424555175875 6.792868083904965 2.3814885933246437 0.07158696820936704 -1.2282969698958524 -0.1766512422405732
Ni 4.486415947578305 6.230979125055608 9.179201703313005 0.16553713460528263 0.7689012558983532 0.8165738793839677
Ni 0.6208895339756187 0.11286192197036461 6.602119853891022 -0.9776596630861163 1.7093244032305142 0.7752346543155487
Ni 7.816803457948117 6.833423298392435 4.592237499209959 -1.2754828835530356 -0.04435975706229779 -0.1973589071015698
Ni 3.7383603062469795 6.088663466502929 11.959875198356249 -1.5019225100706455 -0.041327140883561084 0.6772077467470982
Ni 3.4468580643730835 0.8262398756521305 8.831128847511478 -1.2731218395200268 -1.7614656040104437 -0.9041291979971332
Ni 5.030466570578719 0.13429399353835275 6.245162277890827 -1.154270281896741 0.3407483019652196 0.42099963071780405
Ni 8.359438931131706 9.06545903678559 8.364437575451797 1.6288858981677885 0.40367913716148535 0.5248392883132896
Ni 8.917166232296053 1.7486969045738223 4.531559226735065 -0.9269176566465583 0.6964807360440973 0.7435072413052807
Ni 7.183859081980216 1.4656017698354145 6.213480611366628 -1.069274753590952 -1.7735569879573392 -0.6792929114109011
Ni 1.3760097521556796 2.420446178150486 2.615262963887805 -0.06499208860066871 0.1577397500480509 0.31465494731227744
Ni 8.073029366559151 5.025420444258194 8.845858508861484 -1.8997930109701535 0.17397806628378423 1.928031436990557
Ni 1.3609365445672466 5.456882865055445 13.21944698219523 1.478460936613596 0.47019460438521604 -0.015714325411463257
P 8.283812207696966 8.841800194353889 5.396631930584449 -0.7324183304809708 0.3272759785103977 -0.39855595700230717
Ni 8.46415070738069 5.389849452679462 6.671424023111242 -2.7771793936558042 -0.48353400180659956 -1.9002738072613146
P 7.113325035846821 5.3312790086159465 0.7674739174691848 -0.6349516662913645 0.3801041780550228 1.118217244927926
Ni 6.020996960787839 4.598240713696074 10.276495837005507 0.27501779253662956 -1.7008479903283866 -0.6246543981304146
P 4.757882647308713 2.273996792501288 6.873557692013323 -0.29319446344565636 0.3379766527573534 0.7402715079768025
P 0.44709237811625224 6.1555479157403 8.121710520257976 1.9745416647369542 0.7524521092033944 1.1535511443425295
P 9.204851293742983 -0.021040112309511895 12.497464545219312 1.568991535805001 2.126454009469951 0.6367948901476904
Ni 1.1203983164914249 0.375068700596723 10.1516097966902 -0.06722971968193582 0.46813592208397437 -0.20342105413524966
