# total energy = -381172.58157210395 ev
CRYSTAL
PRIMVEC
9.15029639904637 0.00000000000000 0.00000000000000
0.00000000000000 9.15029639904637 0.00000000000000
0.00000000000000 0.00000000000000 13.39238370614255
PRIMCOORD
 96 1
Ni 4.148414919881642 6.790224407983451 7.47423559031028 -0.02871408010524087 1.6856751392426903 0.21000102134561252
Ni 6.4200491722262845 5.890430023897902 10.019712589300624 0.7251655055732994 -0.17108326123449244 -0.6125830687881773
Ni 9.123980021731022 8.336221865222056 11.875481431504063 0.07204591012365656 0.5208635914949933 0.36340846256689674
Ni 5.461583088433037 2.6227585712597277 11.305475620511945 -2.414933326828125 0.7903702244054065 0.6895642114299222
Ni 2.646741497793395 3.5023033496913256 9.301719951701731 0.059582487549323195 1.0297707819590587 0.33724851634207725
Ni 1.0641977572371752 6.906808332808122 2.3216900330809183 -0.13546731180309574 0.22303985680744165 -1.2625785167865418
Ni 6.9031299137060484 1.9561869386011614 1.5432715839786353 -0.8057834736366831 0.46723243643309853 1.5852828167658568
Ni 0.69278174130528 3.2034729739810914 12.015190900101544 -2.1443031218362294 -0.09313538380410412 -0.38094390034749875
Ni 6.413323704465032 6.074067319817085 7.113578492737136 0.2078554357575194 -0.7392831759216042 0.6152331048165146
Ni -0.1472767636159267 4.315938544062638 0.5517500548962317 0.172645977735922 -0.010132717558627711 0.8027107482486304
Ni 4.2067389083309354 1.3646202844990531 3.222931079007358 0.3270296668275465 -0.8659696562082763 -1.4638802105859434
Ni 2.2952786179161797 5.889999959973032 9.502859934333467 1.3269535406285018 -0.3451924537795023 -1.1621833660962306
Ni 8.203688973992127 5.52218550065451 2.7738839494884204 -0.8538178513370908 -0.4576897870499859 -0.32702503884185613
Ni 2.783044311088136 2.7205203366491615 11.596692949722364 2.140449038197462 0.6780019605136195 0.26532139118447207
Ni 4.923234557459433 4.720162032254668 8.771635968322638 -0.6305139422349851 -0.5476562862078053 -0.3420238262435335
Ni 2.4722361975554787 7.289446272090223 11.326742739111545 -0.6286452644573625 1.4589812306224292 1.0764242201515397
Ni 8.390885735161824 7.912837656632658 3.968779048522998 1.0821482671195106 -0.7914567726013659 -0.048054432305065634
Ni 4.7539174752087705 6.873144392816759 11.343388958092868 -0.24410593344912151 -0.6617353621431119 -1.0287731939324798
Ni 1.7073263308422282 7.880244301305331 6.825227036319674 1.2594489700186244 -2.08313246386418 -1.2522694215510497
Ni 1.6848257523049182 1.3885025577737091 9.324205889765002 -0.9187631458602241 -0.13504050867832226 0.6529630152671206
Ni 3.829389840295099 8.486186070853602 5.357422520859323 -1.34542100330507 1.3958007413092026 1.8836783647964785
Ni 0.4951618776500806 5.989701588172515 7.60704756557656 0.5534325265699501 -0.14630039786285773 0.7019175907889524
Ni 9.181590287070957 6.589878671068282 10.340982236563136 -1.0039720757284 1.874653792700365 -0.6859294428908123
Ni 6.362759167255932 2.7008929511418294 8.938277503942837 -1.9419115374067586 -0.29892750927469164 0.29194979240527785
P 3.657483224198946 8.113796463398172 9.604535281439212 1.7594362322852408 0.11637249995517378 -0.2833661645013249
Ni 7.439328125055305 7.627385014074741 8.42631385227478 0.2878702230192655 -2.091779855126533 0.42847382760766206
P 4.070637401554219 4.4139382171551915 10.916827766637201 0.17937044094394913 0.46983593549421665 -0.29747586442982965
Ni 7.135108224839795 6.167180734699421 4.924392984967699 0.6584338085737047 0.07570587547374703 0.286247599814178
P 2.299963569608373 0.9858529205407754 4.532022790568767 -0.08397762856423602 0.45743241962354125 1.2331013332630312
P 0.6773698972912943 3.568212933751612 7.673420154628301 0.44169109762888453 0.8898932569034093 -0.5368303992368948
P 6.827484414410423 7.157187889748508 2.3477253710688024 -0.005628401930370952 -0.011900350982011762 -0.4757929244086
Ni 6.8236687408642425 0.9252413580230281 10.77154759766822 1.1166997798421348 1.2217414281655217 -0.2987045946306081
Ni 7.450271879398787 3.2578348841438234 4.347783405154768 -0.3285075369246536 0.23341451517354642 -1.6056282131914283
Ni 6.503820134613057 5.621338111077565 12.660530185286351 0.8795959887424594 -0.23314352090034687 -2.070691152777034
Ni 5.840487706835422 -0.08945695649132018 8.730120159098712 -1.6395194666222344 0.049415317208334246 1.0516428994418017
Ni 5.589138218490011 5.314611029683028 3.461475642747193 0.9072515456761988 -1.5401131622077542 -1.7064139144519386
Ni 0.8113595156880148 0.6949860476776419 7.116659397492529 0.4064042494021323 0.020880957214067263 0.9495194532064744
Ni 1.752977158952289 8.179083827311839 4.08714087591367 -2.569332699649033 -0.39482580053591354 3.1379990124496024
Ni 6.786207427919247 0.08149253861459205 3.05038302714241 0.12650598884474987 0.8372897717750806 1.261697399733169
Ni 4.646218488065973 2.8492009531478146 0.34931530534175115 0.725648358746989 -0.2985991794009954 -0.10353009677486688
Ni 1.1556549684939512 4.407542160059795 3.0375671221813056 0.06398035950670272 0.8498994901192912 -2.000071947797575
Ni 4.895500009453501 5.1869186451819465 5.557410481190186 -1.414288772811061 0.12228809410866036 0.6442192076362195
Ni 8.720827118203028 0.08268756730795222 9.175898802788645 0.4229577828854393 0.025084967993085832 1.6965601615863104
Ni 2.806093907401875 4.8923431572390355 7.3630787062056084 -0.3897566135431223 -0.16105081669915491 -1.1395486594158504
Ni 4.005285985566635 1.5655790912645677 9.602352020748281 0.9606816404708809 0.3403700926901944 -0.4374816875332272
Ni 7.302412241910218 3.0782603197702136 6.731373362468786 -1.7047360125288835 -1.105343474289051 0.2947414962178021
Ni 8.331875474491994 6.652155587507864 0.4846298866389201 -1.503320933080069 0.1441877223952291 0.35382853218794547
Ni 5.232944635439233 9.058189391522294 1.5500080320954175 0.37399086606843335 -0.047205968261841286 -1.7951385707828567
Ni 3.862394958954748 7.830219631576387 -0.017408438660932106 -1.605822074369789 0.25780528531308505 -0.7586291845483839
Ni 3.210436349445464 5.93902724740813 3.4320126037751373 -0.4661939678662551 -0.1980477056384783 1.0454195442399092
Ni 6.1597506941250835 8.216499388775468 6.096386722488173 -0.4549744450013519 0.19769237918158855 0.33489210029475874
Ni 2.1237197130784313 0.6306924059393116 11.688658002422338 -0.09003360495032882 -1.7473646458326875 -0.4526139151889753
Ni 7.492710953516739 2.644325819577108 12.935019857878613 -0.15890008890473925 -0.1861267858311762 -1.3793091714120826
Ni 0.4099598089260842 2.32792687502115 5.574124412363936 0.40415067748126526 -0.1361165153513204 -1.2341441727052487
Ni 7.256962720318183 3.9157503365273607 10.96206774644457 1.2853919151366315 0.12716856212941327 -1.2805731535917495
Ni 3.845832922699144 2.312188365430189 5.192910259182041 0.4562944493643561 1.1496201847192395 0.9623495150916072
P 4.993710139360353 3.4921648214199394 6.868953557123351 -0.12573517211699636 0.2344162169651834 0.7047686870845024
Ni 7.832708512162865 8.974573984172178 0.8241067934270659 0.3407521586199615 -0.10628760491534599 -0.059367029104407436
P 8.93149438931506 1.4606251930039151 11.070130915379064 0.29596148466783223 -0.7257136647672857 -0.6314824767958416
Ni 8.974729539208832 1.057701046882767 2.7074710991330746 -0.2974198143809136 -2.0534328799172186 0.07443909294618146
P 8.603428817009988 5.322141723516378 11.900136904813856 0.41744096683226817 -0.3801571427801453 1.2946080344182607
P 2.8245683555787062 6.368953917833306 5.46891339077799 -0.4733966562622815 0.12434780485116649 1.8716229762938412
P 8.70332260143122 3.099900770457785 2.451381757317828 -0.1186795508217956 1.3032477123711297 -0.5702835366890179
Ni 7.669430625452918 0.6662669277926476 7.12306094476569 -0.9453228986266236 1.2005815062584548 -0.3887505408761111
Ni 3.3068621715789215 0.9251864562453853 0.7605534106572871 -0.6170904697402276 -0.5244839618563999 -0.47301793276662407
Ni 4.48465170675923 0.15799450564144565 11.363785883516828 0.2695827375639874 -0.491848949430198 0.5256877523565139
Ni 2.290767521853189 2.990344273171404 0.7129471642335125 -1.296950052287876 1.417511650623733 -1.1023252562880177
Ni 8.736025760313833 4.523879026885073 5.8538645249581105 0.9513945587420002 1.3562623168949481 0.21890346604156496
Ni 2.53355233288631 2.4648519084625105 7.12026186913553 -0.30693161052609075 0.0957314266660545 0.4093137097394435
Ni 5.119471811347659 7.650489512166122 3.9113664295825763 2.1427285782602583 -0.9172757626814203 -1.0322526678406483
Ni 6.20925379696642 7.816668042794868 12.930962616510804 -0.2884016700427033 1.2086442286619312 1.9794750974828295
Ni 1.8808250984900252 5.070362171246097 11.63901215495913 1.355570433034246 0.22244773174939753 1.021947429259898
Ni 8.551510035952363 7.760485223673647 6.439607015481936 0.23992711948108358 -0.390839819304972 -1.2807528737027234
Ni 6.009896292048824 1.3695888953757347 4.900889533958779 0.6735410965287885 -0.3664426214075302 -0.32315012926748216
Ni 3.5207320463867884 3.659660994712114 2.5697710355973222 0.4920844624797719 1.2118434523255195 0.16891067906320587
Ni 7.840870576439108 4.706592142880601 8.364038765894453 -0.8619343097966381 0.05480383521375722 0.24617875681775023
Ni 0.4354049528043076 1.269777463620966 -0.24458375928055237 -0.06666613386898196 -0.49050040582210364 2.0513240611043315
Ni 1.7244007836891662 2.2573140386761232 2.953649755054153 0.8763782531361101 -0.9868197323188296 -0.16104181783809038
Ni 0.43283737966987523 4.5066947704828495 9.896636529269683 0.1783391714659574 -2.334177547635296 -0.6896390305319156
Ni 6.8777652924350345 7.91807162610128 10.877012997490581 1.13031865617715 -0.8146720343755646 -1.4470885929499013
Ni 2.2667662947269736 4.079165477681414 5.000313908181165 -0.0191824864657218 0.47382243094579035 0.6849848195893559
Ni 6.3098796050895585 4.4774961750731075 1.0915379274737058 0.2636694574033459 -0.5657997898860514 1.7507356191874495
Ni 4.617825118728327 6.6561268160906994 1.755071661769365 2.0866926704116127 -0.7778697779455507 -0.8636201821394933
Ni 3.194340978299824 0.249761911941904 7.800594632360285 0.8571008929637367 -0.6400195677325751 -0.2180334047317858
Ni 4.269299483955006 5.2045512661015865 13.055203509257401 -1.3713068699328963 -0.38681372886471443 -0.024022845277158627
Ni 5.32960836527581 1.4064096875815644 7.07692423592349 -1.1160390063296846 -0.11740222677126878 0.2718324528301125
Ni 1.323288396230233 6.759378759244422 13.397204982787494 1.8322239056709282 0.044048139359149946 -0.6018240304994603
Ni 0.702252297948678 6.04651577773663 4.468288231932768 0.2034778755151141 0.9125611308145704 2.475344995146963
P 1.4628304144059046 9.096099068984708 1.2972246923239 -0.6808628270011823 -0.8612995044261168 0.0837472577209848
Ni 8.546715280704884 2.4029318535776074 8.978950570879944 0.9570075340534033 -0.0956254972158095 0.3115500831347086
P 8.12945262032267 0.7027647145400117 4.891675185611047 -0.24307312130923298 0.04925385192980549 0.5578422256018716
Ni 1.6145789278108444 8.034856857443975 9.258810552355305 -1.1260426545096156 1.2966428054601025 -1.1801551200833031
P 5.777277460175911 1.0111992412192417 12.966064068046784 0.4016461658918567 0.12566832343480291 0.5935468780923326
P 2.7878116154467936 5.568595803355298 1.3230559787048781 -1.1899890754545892 -0.48850908642368773 -0.7766161080441076
P 5.541025960682294 3.165636498888868 2.889393629530545 0.9783057813105475 -0.4182187255385571 0.3158651655702947
Ni 3.265786491605768 8.28211616335499 2.680498770806752 0.32911148905723964 1.390240730722922 -2.523411768747202
