# total energy = -340874.92509240273 ev
CRYSTAL
PRIMVEC
9.26280440787099 0.00000000000000 0.00000000000000

0.00000000000000 9.26280440787099 0.00000000000000

0.00000000000000 0.00000000000000 13.55705054953791

PRIMCOORD
 96 1
Ni 4.421997842917437 4.6223337702280975 9.844560080773224 -0.628024343043912 -0.20905254138941418 -0.0002470830137995745
Ni 2.4353394056227904 2.8478305982896273 -0.10604984426575534 0.060003377136825686 -1.2925503805582836 -0.3416541016089406
Ni 3.759753663008259 2.17986200543991 2.0820782875627266 -1.0586902932068865 0.4014453627349602 -1.6693180380409056
Ni 5.384384664432281 8.44678811995103 3.9359238606739786 -0.8162090398453814 -0.054594033195796296 0.7493701278439611
Ni 5.581978801726113 5.621864436227672 11.955691153429806 -0.5397349744781995 -0.4051382382055152 0.6978467631536884
Ni 5.5705855526697 8.51298011812756 1.4741391493145537 -0.5871556298540083 1.04778444492766 1.1363715472394493
Ni 2.841254007370885 2.720856079537337 6.4133932782344 0.005548954842687218 0.0714985222606188 -0.4525630073463819
Ni 3.3806826675735686 1.986519495232983 9.151944092464799 0.9496603496597128 0.4573696847064058 0.15466342511557235
Ni 8.986466875864709 4.8515418579524505 2.7799953786638234 -0.6090783980690285 -0.6600060381568311 -0.2741616151839214
Ni 8.539870038461519 4.782765537428979 7.1139938036864265 1.2030219973791476 1.78746305651547 -0.39596402790541485
Ni 0.6084337719876954 7.517562137153228 10.820342769593259 0.5160492008254854 -0.47842059183943403 -0.4522961268382404
Ni 5.617668385965432 7.1612128002025885 10.030345995386476 -1.2646138020490154 -0.8813921614109336 -0.3798900051616877
Ni 0.3930541245205132 4.076856498940993 0.3322938346746185 -0.47735332691718435 0.32435340554696396 -0.17218652160100023
Ni 5.629145000258844 2.116745258228201 8.888679452865881 3.202194316180588 0.416522825893373 0.3507632629990604
Ni 0.8024107842762198 0.6394206305799071 11.842096755215717 -1.1312568517207033 0.7639745080206972 -0.5930827939717206
Ni 7.694129709115306 2.734037049787155 1.327938754349668 -0.7124460011241021 1.8968946063764367 1.0150195917918132
Ni 4.98402774515073 9.017210122708804 8.88747343577064 -0.1274902071348901 0.6008763218742104 0.3755870069109596
Ni 2.233113866273505 4.030273857067249 8.365377334620284 0.004652154060030698 1.1724916900007742 -0.07999807509119772
Ni 7.408613035200759 3.2259289992926727 12.33245571064088 0.8324812946428436 -0.32311387671290803 -0.7034697657674207
Ni 7.599862151678622 8.669280674694976 4.687824574133432 1.2602586104041136 -0.7205172081680107 0.7244941905378877
Ni 0.421791974274597 9.188923985316768 6.352793234899624 0.43021163623437514 -0.20948988603714888 0.23541097677828493
Ni 4.412651673569533 8.913022102069341 11.380275572975844 1.6019049987035703 -0.6318737986969892 -0.23951677141654235
Ni 0.860557110802017 8.369304763563306 4.01980133073946 0.012924421371151936 1.1694593309323538 -0.640297246873994
Ni 2.0078609959045086 5.747217964260554 3.7186712742155716 -1.1712007391034926 -1.9555954626517547 0.22096137701185817
P 4.074642688758486 3.973363188609847 12.358159065768234 -0.42578496792158926 0.931861373805079 -0.359912019377864
P 3.431813346265766 3.6282125818292923 3.5006202340428043 1.282096275104495 2.842209020362628 1.2116318505353456
P 8.094292109510528 7.098021950557992 6.629397238698657 -0.1062112431514558 0.4861336442129756 -0.49067935460212914
P 7.693434998806988 3.2555514468393483 8.39513594538739 0.40423860920938126 -1.395883530830996 -0.930705662934081
P 6.453701296603416 1.0126745850329488 5.439508537976689 -1.155401567287707 0.7555250917017633 1.4442413533090934
P 8.422575150005125 8.64209434462947 2.6354632147193118 0.616017548391023 0.8539839446013099 -0.679680633767623
P 4.377202922237099 7.400406190758497 13.27277204880067 -0.12344766163440032 -0.3016112267544418 -0.5068693340984303
P 8.89583960044361 8.37291725716656 12.966966128761598 -0.9571692564422483 0.17845512821853138 -0.0035990302051679955
Ni 1.0168150584705236 6.754103296724187 13.163394079017866 1.08979704191402 -1.9790534365643786 -1.2272183921196929
Ni 0.9796990023981259 8.265746613603385 1.3556697372968964 -0.46516295549857956 0.6320625176690275 0.87309546861978
Ni 8.169015150273202 5.776099387478357 12.17882654677905 0.03914247452741646 -0.14641661172574783 -0.6366637638864648
Ni 6.891211323173808 4.28473234879793 10.088966577482752 -0.5668182038482368 -0.6772825658490916 0.4586266970419585
Ni 5.335940198932246 3.951641912969774 5.395123033238053 -0.29325796969374013 -0.4454739617100844 -0.7463971612585661
Ni 3.3242907161463764 8.388126781516666 7.122847191855629 0.5129157974028263 0.7881804158429393 -0.35144434822648507
Ni 4.324099266269278 5.890893318824807 3.2377622315443544 1.5696152854319292 -0.23528242162022056 1.235396299944795
Ni 4.709496756911717 1.2315083321530877 6.95944391709597 0.014742448416497191 0.1342565793244462 -1.5702919997839795
Ni 5.745671075974033 6.012921500181874 1.1803498650485575 -0.9108624029559087 -0.592219931750793 0.056751702968747424
Ni 8.908566693291995 1.5532240445330523 4.637758191633577 0.5123146734837176 0.02609129777041313 -0.09248926557967298
Ni 7.709996892557286 8.519288087727086 11.005816527707974 0.5649107024128788 -0.9023193984819042 1.032531889643964
Ni 3.1146271450960343 7.080765346499375 1.5031650722764867 0.5307147732574602 0.24330374926280035 -0.2118509300701577
Ni 2.568010548903288 9.138163818789005 9.688613363322844 -0.0024106663240216547 0.8686024658454332 1.3462113604168493
Ni 0.4707968394233418 9.103595033847107 8.774488530067051 -0.9890175113010967 0.2196460006345443 0.5482008458573655
Ni 6.740199827753718 1.8444280801716946 3.5402474363096683 0.894835174289717 -1.4614808571158315 -0.19283068021391309
Ni 5.241681904299672 2.5566914022797618 11.147216937582588 -0.18586350486746053 -0.23618462171951585 0.9961600358831489
Ni 4.3563523501834505 1.1648068797504585 13.363956945029246 -1.751194561101739 -0.9712200781083596 -0.14438415467675134
Ni 7.75904344032453 0.9358674133453219 7.46837572104391 -0.26146627910444004 1.2232282971236934 0.15032057476584432
Ni 3.6197000648513704 9.312360112898691 2.6832250115563725 -1.4527612178546463 -1.5336141847469718 0.5622655514805478
Ni 0.426038043679036 6.595088738552275 8.047058292507787 1.2800856724323695 0.4021621862963267 0.5123100454980274
Ni 6.229485860294841 8.530421978268395 6.930187350311676 -0.3348044256769589 -0.5447118588675006 -1.2318198954474462
Ni 9.380349095072738 4.216308014830672 9.582312497065685 -0.6962246541692332 0.7150618414803943 0.6110938858371605
Ni 8.837261627246246 1.0689924340272534 0.7429898959047619 2.88944147098703 -2.6637042698530835 -0.10604952076261093
Ni 8.31796104037656 6.542262966707781 0.8729840887972077 -0.2482299829198241 0.0960939522117958 0.9539980578031183
P 2.909669078534032 1.1939847126998102 11.5648008199496 0.007623320873212677 0.6487374072215472 -0.5829017396736607
P 2.1957106632736694 0.7734497009430631 1.1192561142546702 0.38614344227056724 0.5572274748360081 -0.5002965659769191
P 6.328486710632197 0.6864108358345299 10.583744816749226 -1.3773291648675763 0.7959718868629001 -0.28601774319155904
P 6.85828205455954 5.125174354192706 4.012710654192562 0.2691788172573493 -1.0931734145854206 -0.6542745349896926
P 1.8272363157418543 4.930247904482814 6.273741685775925 -0.8871136372757432 0.1024800582437977 0.3805487217916091
P 0.2503309862188614 2.9103637888423495 11.781171587456651 -0.08821892033909323 0.2529060482392548 0.598884488255162
P 0.3075954937933004 2.5366281685755405 2.6259595777015226 -1.0804423401719974 0.4305813608689681 0.5024447226681733
P 1.83824052702561 1.1702719341758927 7.843729553188893 0.22976123469167528 -0.49744906922579496 -1.1231812738014206
Ni 2.7987099480894964 0.3673933782920721 5.233129557264074 -1.13829216130093 -1.9237243249747709 0.5896048627254491
Ni 5.489156241730731 3.1577269726240766 0.2994497838581703 -0.45212386292643425 2.6945873325851855 -1.7198607839854638
Ni 6.2385819339317505 4.947661976211315 7.6960934235868175 -0.9455645823237846 -0.5390585172364651 0.06377389992285147
Ni 6.464455412176177 7.6773918220869 13.197449704612023 1.7582900344959398 0.2762848321745113 -2.36484463770185
Ni 2.0759148177073303 2.121478551128874 3.9746831381956516 -1.7570106535628836 0.1810894805175849 -0.7700911624413964
Ni 8.334393254869305 1.704661628942244 9.976280860351944 -1.8652271000698264 -0.053496686366559486 0.12637023459783397
Ni 7.525880135244821 3.1228525151465183 6.089216438802168 -1.4404173515773129 -1.7102710834144996 -1.3004842906933798
Ni 3.5104360275591304 4.49508136735248 1.3899096926928578 -0.3544826208321766 0.7098628137779581 -0.33349984793292237
Ni 1.709357870626473 7.135943870588039 5.8878134364579315 0.7894888502417178 -0.5551826764918374 0.3893892029013746
Ni 6.738384318147981 0.9319677728146306 13.156805446453781 0.14910212897771094 -0.3434898692660988 -0.6238537566059901
Ni 2.9395230961834793 7.122688797905332 8.899471545935496 1.555946786805901 -1.833947059009622 -0.16742715253914392
Ni 2.5224190270694113 8.54847518348055 12.762769464697511 0.17125758202882765 0.2868939751489253 1.5327302394801217
Ni 0.3525284302548912 2.6314237058465455 7.021033227909792 1.004213759425561 -0.6266950827095271 0.8813304549350628
Ni 6.156004035283029 6.417372578880444 5.528511117556734 0.6873679751095516 0.5590388170131341 0.31157090907031504
Ni 3.004844390773584 6.6447651569990605 11.39398174421875 0.6717035290994173 -0.40176237975474677 -0.16562378078181797
Ni 1.2840654826783648 2.24544265854512 9.944895701182961 0.9379769997845137 -0.9186536168655534 0.2675608220379521
Ni 5.856370847903462 3.657381151974533 2.643814558905704 -1.4582821476728758 2.3598338147508198 0.5889484600883728
Ni 9.04878702192288 6.402422413045444 4.762429051003486 -1.5769136188655553 -0.863429663395242 -0.029335258629007543
Ni 7.712358907605568 7.902413122353122 8.669652113139824 -0.3215730145883494 -0.35748129844918436 0.36988789964365326
Ni 2.082370992172631 4.255452625003358 11.448793461264621 -0.5837954551325236 0.5835779398050789 -0.45726452658710925
Ni 4.355342704535362 1.6718898279978607 4.423963409949771 2.1568382781887627 1.0606307047627088 0.0996112213364349
Ni 7.113518621835537 7.0220484312403455 2.9070514100922895 -0.8259535208266549 -0.8103623512566172 0.6796657213692875
Ni 3.911978585766877 5.732703150218765 6.0587677491287995 -1.125647733064042 0.1833926747294648 0.0612418775296171
Ni 0.4986445337023676 3.8374685894987546 4.9344819322419085 0.11982137773572267 0.1991972458618892 -0.3073576423199158
P 7.180525746773826 4.668221701793522 0.3502599695281305 0.7578866499554044 0.6306466111581075 0.1675942742446275
P 7.471553789134361 6.270371877640377 10.20249335722683 1.542138420167899 0.8147221708872097 0.2017560077280009
P 2.8989612769818254 7.563042505337773 3.9762828244656045 2.1021624839124375 2.040286058122615 0.5927570352011856
P 4.428639273464956 3.537576043604083 7.779211343715205 -0.2626387021459864 0.3419194394551853 -0.5343737101662861
P 5.6860556687162465 1.5804289002067813 1.5741496452999988 1.8917984228004514 -2.8208441815336065 1.0444314692950272
P 1.6566154640189779 5.783565207591747 9.785885774413106 -0.2601244203645649 -0.9379973114994878 1.033928255770858
P 5.0595473870669405 6.770053845403167 7.635303492767767 -1.1116447339167306 1.5702860862467087 0.780793379350249
P 1.3545368963541327 5.78421360387951 1.6208406619818392 -0.5063412295091021 -0.5919237406666128 -1.1199280569714456
