# total energy = -381173.76024326426 ev
CRYSTAL
PRIMVEC
9.18064746792345 0.00000000000000 0.00000000000000
0.00000000000000 9.18064746792345 0.00000000000000
0.00000000000000 0.00000000000000 13.43680556337084
PRIMCOORD
 96 1
Ni 6.467215136532481 3.8875634319387773 7.878536756240833 0.8786673062806029 -0.5900519775651967 0.11883638811463404
Ni 8.554031336385771 2.2230661854323017 4.024148511141778 2.0859884452557367 -1.8350973705639815 1.199448421095276
Ni 1.2757519200892768 5.221777713605248 3.2798302909529333 -0.18899048053221645 -0.0016696743929390599 -0.7819642597298985
Ni 4.09603756929665 3.9892115580981207 5.528090008520935 0.23967000916495498 -0.3458313729150818 0.6346395343675844
Ni 1.8552160121165002 3.1501279429802125 4.209536074903832 -0.15034551446650882 -1.348978381639025 0.5420206851885826
Ni 8.2992591950339 1.1964219473523834 10.001443916494921 -0.23132755073753067 0.21117935792442985 -0.9671369091779214
Ni 8.09859778847097 5.531174705991088 7.004901775263037 0.010445877923672332 -0.4777454201492804 -1.0121170734330376
Ni 7.980874349007344 8.150909116402323 10.957499994132826 0.44278227381053414 0.09525088748521016 0.46611477788888755
Ni 7.846901163942018 0.49424381602589396 5.949441321649434 -0.6385527533790616 -1.556000522861972 -1.6473836998616598
Ni 7.967957178351077 3.428154663772259 10.620236065137155 -1.0208395409076998 0.9265636157412495 1.0048277388604758
Ni 8.042265337051738 1.6132875962430346 12.315893346415796 -0.20827581112438967 -0.39780776598237294 0.5154812441371573
Ni 4.697498492093181 7.282695307615376 0.3485818309040218 0.4905513136646972 0.5095869901399095 -0.009778676653318644
Ni 0.7801796644088256 6.408458994243843 10.619819263752794 -0.4253771909602094 0.37678976896980915 1.1090474055031996
Ni 5.378629071574213 2.8511509852033727 3.480912171159116 -0.48311568332225835 0.9310933852908029 0.7237382862084697
Ni 3.511230340580054 4.765784146209258 3.4695309227848625 0.7743861902723244 -0.0027485092794146213 -1.5863385117238809
Ni 7.563494583871668 5.843849189438966 11.656227120164582 1.284375300946659 -0.8177535015143659 1.9096812166181434
Ni 4.542657695868156 2.5881254419893938 8.109918444573488 0.3360498680482858 -0.46109469896647687 0.8702083768799723
Ni 0.681294913066495 7.286138050327601 2.2217221386774493 -2.4106814935303067 0.41185601654532294 0.12514536105179738
Ni 8.67660215758821 8.740481101032637 3.606022359386091 -0.4674985456102916 -0.8535849093906783 2.975540002549011
Ni 8.724084465075215 0.4512995024659627 1.672049246920012 -0.040638085236336455 1.0890429373568147 -1.744400163887725
Ni 6.8520495072285925 7.7639540161954805 2.0213793005734906 0.5038272048379968 0.21996147499243404 0.48232815442395643
Ni 5.401984638133946 4.570217998860421 9.866444335068989 -0.2300859650209457 -1.6632237522177096 1.7749374132446336
Ni 2.5467207229703694 9.164773893534463 2.06167591547154 -0.5239774545336265 0.14197888766936836 -1.2008386165745835
Ni 8.926545278495734 3.550798930152558 8.558546378694764 1.2182861226270696 -0.3880709983105833 -0.9338755760216303
P 5.493635039456988 6.122316581298179 8.617412688750193 -0.5779035151281209 2.1092556433137934 -1.7477053170015575
Ni 1.0588499485718779 2.5928718366086474 11.421794702756534 0.7036985939487752 -0.4354304614311533 -2.3071333990333107
P 5.642132008444288 8.514104701571197 4.16831221463529 -0.2518742645406307 0.1280774470969278 0.03700768757260078
Ni 2.928543841374188 2.4631309299175492 1.9068167579520496 0.6045095477514234 0.3592520171963619 0.3267926111160759
P 6.763952016384566 6.417905880246189 0.301623738373998 0.9747131788632827 0.4364519607171322 -1.889901462888055
P 6.0680497755062826 3.356306918529935 5.733645618123564 0.4279372383779017 -0.11413846841833247 -0.7292347905466667
P 1.4444830355772253 4.430883315811256 10.400825940795809 0.4078096143900912 -0.1128932831573217 -1.231641203777737
Ni 6.234366380772057 5.272408983093036 4.1346256657447125 -0.5481129141292496 0.04717151547948005 -0.7050221978562052
Ni 6.938898430048985 7.898175078736088 8.775013187533338 -0.3386813921338619 -0.24217374942341519 -0.23959416162169705
Ni 0.6549427832500411 5.797514462856036 8.34031872171698 1.5870152260759314 -0.4999654078897454 1.045938907078489
Ni 3.234121684511266 1.8909746330874755 6.378800913358931 -1.9475916185106719 0.12293292678151088 0.3865846435730439
Ni 0.01969340637864946 0.9719092192791595 7.61552406593298 1.3579530743338097 0.913016216074118 0.6441312759081036
Ni 6.820266106509332 3.879567088199183 13.032800908162267 2.436776133734829 -0.9397245786032397 0.5317825524003422
Ni 4.527941118354299 8.486140450100699 9.445778816288765 0.5423523574963884 -0.4324999180479197 -0.9521409499897214
Ni 3.927333995750399 6.402353863834165 5.063848547651177 1.0757616468668763 -0.348145108649923 1.1073268232676672
Ni 5.709123191300567 8.172355108337674 6.607710253391847 0.03139548359214593 -0.9776876881105742 0.6087271853771968
Ni 1.3734248259969044 4.977609219807029 0.9180720677777487 2.3584654736483834 -1.117417631844766 0.8381186954342793
Ni 0.5492707794086497 3.1596666354548835 2.0821001013699045 0.5779667642658884 -0.26338740738655286 1.4756165251862652
Ni 8.386925195457994 5.22051078428715 1.2741049119757484 -1.6620166192834862 1.1610469384989424 0.3081410574531596
Ni 5.13787577854652 5.20794247822572 12.532159099079974 -0.7546182636167779 0.8076336394715445 -1.1213501341299525
Ni 0.6617869557619441 6.673614447615786 13.150950329657485 -0.9425761891194219 0.2785818557388041 -1.1776279827860752
Ni 2.6855504704217403 7.691041315874174 3.9130929757631905 -0.9221289770086635 1.2606234499427 -1.35939752008982
Ni 7.543563398729694 5.552657420515372 9.360803663568547 0.9168818696771114 0.46763764229131716 -0.00976504980656383
Ni 8.050895145450383 2.8481580942055453 6.307585714710932 0.5313650052469494 -0.4346938403754449 0.8709431981634679
Ni 3.5571794799792147 8.79516103595 5.971235260114903 -0.6854432472830131 -0.7576534508986758 0.2698347056737933
Ni 7.306197764530832 7.142626172787603 5.289734700550397 1.2528404635631714 0.6722630011473132 -1.3027630594252273
Ni 4.847996842177187 0.36805031142547256 2.1752441939976905 -0.16292309402120328 -0.3008211267529787 -0.06630026588913097
Ni 3.371748767175167 0.7478913280917728 13.208084251580123 0.35130165200103375 -1.1191685530976017 1.3747156385041293
Ni 3.3225772205973634 3.250242901051711 10.4183343531331 -0.3738180879359949 2.4601569745526146 0.13433499797086543
Ni 2.2421527510288763 1.967577953596287 8.769167869440341 -1.2340914650904424 -0.22208289221081107 -0.1565794111913626
Ni 3.477418016822389 6.477405654960667 7.414913152929829 1.73792458346571 -0.6262091442120441 0.2413340271309392
Ni 2.874993126066434 4.337727288342068 8.305880277818051 -0.8777561073202431 -0.15381290418981897 -0.3459139053265591
P 1.1881685454902764 8.718410825085469 13.558811599742402 -0.12077474278792749 0.4126872541973667 0.8182078154429651
Ni 4.6398715694141535 6.893628658545036 2.599604923289036 -0.23534258543419467 0.5354214347045101 2.292048222565414
P 8.096137375012633 2.503534958388221 0.9737692184084842 -2.4412611660893764 -0.4423724399666253 -0.23654020528672165
Ni 1.9125858766730153 4.704081016158956 5.93206694676174 0.32079654143364106 1.1870415627904911 1.1367181319455908
P 3.0351954202752975 0.11045144879068286 8.109380458645658 0.526965590627673 0.4066279353771642 -2.043724394380203
P 8.487701160130241 7.673221679595699 7.1862452639191305 0.3318396866216801 0.6843901234281503 -0.5357466792544129
P 6.141935624434244 2.313523102615106 9.631085590355172 0.5308574694829115 0.9784317653654504 0.11623057506067079
Ni 5.906791706865669 7.1018549184276285 10.81864362280448 -1.487037365428697 -0.3049603457323328 0.07561074465677946
Ni 5.366804397938625 2.7438108577598177 1.0773709862989245 -0.5569112291471698 -1.1289870818499201 -0.04998455944824295
Ni 5.862421638790516 5.641571988963099 6.377873667988438 -1.766994247138157 -0.13406657480082718 1.2163007167659248
Ni 2.5553046281328498 6.902019770115633 1.3462473559942396 2.397433113160832 -0.519465425595886 -0.8240971843442065
Ni 1.059419148700299 1.7271827058106657 0.31298203513017014 1.2145330833425405 -2.2754018722579845 -0.5455626369035701
Ni 2.49632815031063 7.83391054810789 12.08398744312616 -0.05912380274534979 -1.0494926858680182 -0.6246626256605307
Ni 1.0499355401090238 6.580752200858041 5.074315403561064 -1.3938510737819996 2.053334406666141 0.8175976926627919
Ni 2.221597281875086 8.195058848943894 9.635183831279804 1.1910488841776712 -1.2233699649078802 0.9296494537554247
Ni 5.731230189836666 5.051348178379269 1.4857886036061374 -0.43979285216490716 -0.42768964114346986 1.5452000898123581
Ni 1.5885549325984112 7.6051196384242745 7.3508864010649555 -0.6212165760934591 2.0124479528644246 -1.3804425136855776
Ni 2.7689474698826757 5.2641923038198595 12.549895191468634 -0.15422633757815374 0.8907694888607757 -1.2001485324860945
Ni 1.0098161117025632 0.3331831313007824 11.035782455020481 -0.10281970097140355 -0.46498426382887015 1.4830079325543297
Ni 7.549338025838999 3.797804243945651 2.9313870878221238 -1.253747548758473 -0.038566290308972295 -1.6703971300376972
Ni 5.465808497694979 1.1415124962542051 5.945544136899195 0.244184866316173 1.554493342188826 -1.17883768682346
Ni 8.79879657225411 4.510562153142988 4.837693401788041 0.06474423425592074 0.24822586915476605 0.33830858217547544
Ni 8.039419336409633 8.264914393736746 13.21867229203348 0.45206344200214404 -0.6304800036732561 0.31718748392614404
Ni 9.33469849316265 3.6239503273019116 13.07172685242849 -1.5136606244431803 2.440221411970952 -0.4435559187517651
Ni 6.295573755871799 0.4366609604535826 0.2099219254264533 -1.2354608346341431 0.49528368614335994 -0.03151401144788121
Ni 5.32147954255128 2.955314608704448 11.540737332172647 0.313076547081564 -1.3921096656108605 1.2501991692855823
Ni 1.2283338771328998 0.04658627631710355 5.25533573343457 -0.0026880883551244025 0.3771458667576473 0.6386545690642486
Ni 3.540149379362742 6.006998471409495 10.00067825051572 -0.7872409347478055 0.5972189276272811 0.42798069002132744
Ni 2.8844491927160116 2.9406806570156845 12.926085982795252 1.0750049712065097 1.1700712534847397 -0.1981757465759103
Ni 3.7112766437783993 1.1617007395186918 10.921703732508197 -0.7910014302315023 -1.6882727247665377 -0.2667118437740955
Ni 3.595435236997457 1.4028304390829207 4.119159947416675 -0.1655273644132698 -0.9508158034203948 -0.4127980687436181
Ni 6.615409144161104 0.9197080591145981 8.065589689410881 0.0668309415816204 0.4849560789651068 -0.0697267750721767
P 1.2433258740637347 2.8703660798612036 6.611875513041277 -0.9760581229269514 -1.0778681516869177 1.189276622768597
Ni 0.12187768233637636 8.33467813205727 9.15746518027259 -1.271962786214919 -0.2890578155694635 -1.1376190464933054
P 3.5466309163089575 4.674647861131241 1.2464436218639257 0.14054884009106117 -0.4200426661211734 -0.7092881722214107
Ni 6.076936642027438 0.5023723610856377 10.80254627594684 0.4453047831220718 -0.4031420337110928 1.148165454550584
P 8.38345491080407 6.192016055088074 3.5131867365053204 -0.28884210001423155 0.484124841313063 -0.19548174468351495
P 4.509139152821935 8.344685037540803 12.030388070388074 1.5031970059076951 1.919194041204585 -1.7176997717784028
P 1.3839366670782307 1.1172664069129095 3.3868546041316865 -0.6964431979379425 0.7752657646638003 0.20903660054981418
Ni 6.798094843442604 1.050229320820467 3.256852967059183 -0.29890256957402717 -1.146048151097265 0.09591243232860902
