# total energy = -381174.52046769566 ev
CRYSTAL
PRIMVEC
9.19896317364207 0.00000000000000 0.00000000000000

0.00000000000000 9.19896317364207 0.00000000000000

0.00000000000000 0.00000000000000 13.46361245007040

PRIMCOORD
 96 1
Ni 3.479314619696227 8.120761846490492 9.87790270563333 -0.02296895009134754 1.8930754897406623 0.8170258793197219
Ni 0.44893055758495826 4.096390264355527 0.06277464418716974 -1.0107605594051432 -0.12338775493074233 -0.9585211424844524
Ni 3.8407510794137116 5.921151781454063 10.006184086052569 -1.0114832965037805 0.6630774779933032 -0.2686645966250921
Ni 7.489391013151825 1.888519530442606 8.367244383548497 -0.6909590348949197 -1.3840806246587969 1.294378434905958
Ni 4.314240108824476 6.579447979827803 1.2061919608294989 0.972522598969867 0.15979071903980868 1.9817988605199996
Ni 6.93931141685277 1.6758671001331433 2.987965803399369 -0.3802607582375451 -1.163303852853919 0.42924027346004145
Ni 0.9429949077931093 7.512158446859309 9.966465723014666 -0.9587348011571553 -0.11957815137666503 0.528466857763548
Ni 7.831886807817305 8.427758842498523 5.261472059027956 0.5158031462529504 -0.2994288743911424 0.43157072136543095
Ni 1.4115808898640403 5.323219179035277 6.4617398876119525 0.3005146512561534 0.5096296704523867 0.2879008191468848
Ni 7.638285430117216 6.208352608840476 4.19792749931304 0.4841132713488372 -0.676981489668905 -0.3675764779016573
Ni 4.257813669082371 1.8919047488686074 11.957437785244641 -1.0665403853789246 -0.7204591012365656 0.11224767915352281
Ni 3.4347364444451283 8.321685598829431 3.3923991366086326 0.159447476767777 0.06766320767492863 0.16838643112861967
Ni 1.9355262319558366 3.399403227123735 1.7462308888894746 0.6066728739513293 0.8973419998719707 -0.32582433366553565
Ni 6.437342397640643 0.9898912217489703 6.426531776188911 -0.40884551185377327 -0.6275173215005064 -0.20238567089219983
Ni 6.268145869082355 2.1067925272148047 10.659761216348757 0.7613802649309598 0.028346155242860858 0.10152643608127676
Ni 5.620042121839076 7.926047394253592 13.179637781685358 -0.9058186698844143 -1.4454556853321687 -0.8442728879611332
Ni 5.849537853610521 7.720248191464161 10.641653057458582 0.4582605719517914 -0.13067348995887818 -0.16273823170390683
Ni 4.989444001401997 6.948482783077563 8.05348890934051 -0.5148297265960875 0.48083228660472027 0.34833357051164526
Ni 3.6596418936226187 6.602095827014804 5.385431766576174 -1.075069505895858 0.6100500179536783 0.4795608760914644
Ni 5.345572659402626 9.035175575887983 4.577870433023542 1.4563278521599823 -0.5103061276941212 0.4246534254203073
Ni 8.25766081555505 8.106761024630778 11.736257916128375 -0.7240349915132821 -1.0272701270243922 -0.19785692978391087
Ni 7.7962040298975746 0.591033380083184 0.6251017399763835 0.9738731994604903 1.1821646943141642 2.2343853206363065
Ni 5.2096303825019366 4.547525813398944 8.307923950010684 -0.09338118126632305 -0.7087482405575407 -1.4029502078697904
Ni 6.044187913105621 7.032901667575981 5.888054832065715 -0.07337774156120266 0.458023773350637 0.667279946110425
P 3.3264186537761864 5.188601552823024 7.571006973589366 -0.04922556979503135 0.4935602756943499 -0.7118417918811999
Ni 6.208941342479782 0.7666195084205503 12.550631081867024 -0.5633515854558749 0.27772902082020556 -0.3830851150602177
P 7.3649842359962605 2.7411898194180218 13.10160297758815 1.3502924724647583 0.0789583209727737 0.13363051570467308
Ni 8.677501492084179 1.1714235598433136 12.033964879287444 -0.05860649678929906 1.1071432465019513 -0.6607362314546363
P 2.740187132438581 3.0998205953856957 12.986744724145058 -0.07242694761215913 0.6191573795715853 1.186533512805821
P 6.541851817580333 6.351865632384099 2.1046316907792946 0.759245477976144 -0.7836323914609408 -1.5972932109631717
P 0.09769482806473821 4.634327229343923 4.998487502039503 -0.20819405004386082 0.8081242059547179 -0.7166854931267463
Ni 7.336338664858843 8.334416963779393 3.00501056215355 -0.5169156625908388 0.022661189042941617 0.17945888689269737
Ni 2.2348788896160228 1.2880664121305474 2.8138542688491985 0.5762536382295238 -0.43438993598178094 -1.5757892754531249
Ni 1.688083323148715 1.5954589635524878 6.268725403758545 -1.3795871076638175 0.5264104894551515 0.20666295811131505
Ni 3.131327044051608 1.4824405027322232 9.902702190292727 0.432758571025945 -0.3018696226221511 -0.6005842445550883
Ni 2.880728890896338 8.344287451200861 0.9952652560002482 -0.35321403853239813 0.92213386210467 -0.5873214660079111
Ni 5.396038171046771 0.33142484255761856 8.89841091168489 -1.377674464022137 0.6769357240326341 0.03133814799164925
Ni 7.753465647269302 7.5655124329212935 0.7844415795578757 -0.20468372289775716 -1.9596038124801993 -0.04168169600950241
Ni 5.865424462908632 2.4831405061403022 1.179826812648076 -0.17647923543908317 0.037789817154263945 -1.0385624121087598
Ni 7.921263933434242 5.582068802103927 6.493648330965953 0.08420902784875174 -0.05076694614022225 0.4676859790307494
Ni 8.341178201668283 5.810046704961538 10.506397023206206 -1.1893018195795775 0.6021245924590146 1.1531212558939623
Ni 1.9001930146344432 6.108911817576676 0.46614549715675085 0.23484533408280198 -0.7957363738133263 1.3886345625780665
Ni 8.137080807054968 3.4515613479808813 11.070724893472745 0.4961012969486488 0.5418080549571443 0.45085168108223
Ni 5.738598358454051 4.040580155142069 3.0229043852031654 -1.4066685372616419 0.8159501297570398 0.5616695697677617
Ni 2.197613890040661 5.0587673874301196 3.89433595944986 1.499347807364934 -0.030594070736773112 0.848397708762784
Ni 0.2294101814144825 0.6480927084875415 9.482812759259094 -0.5968414896832043 0.6202691245785253 0.9661542335496781
Ni 0.28110651432329925 5.332832095489549 2.5867769444804605 0.42488302493261015 0.37750042188358857 -0.3324940323762273
Ni 4.973143438763749 4.806587012619219 5.745798386883484 1.9375555744309083 0.17028827613702285 0.18095346916035288
Ni 4.532117550182767 1.3188185458211013 2.92949351426068 -0.6276049961183061 1.7064473387930352 0.8453450379793893
Ni 3.1092955273932543 3.598459589950506 5.836731977059332 -1.2544990822125168 -0.47387590989154516 -0.528486912368206
Ni 1.5474955698753872 0.10023190209161668 11.452431268412226 0.9513878738737809 0.6105364706717937 0.11856925049617645
Ni 0.6514668881578063 8.306774079621418 0.03250637595641941 0.22248141320081039 -0.3184288125324129 -1.06990647363768
Ni 5.050515917516741 2.515171295703721 4.830259624297134 1.8331718714064944 0.8509436151130894 0.568072387970312
Ni 5.793718545433949 4.860161773795942 10.445946037101669 1.7468447687734754 0.4769419504113786 0.6814917188344328
Ni 4.195757463914416 1.9847958783951445 7.242683101497523 0.1967762951252224 -0.9079100051958042 -0.3581662403313509
Ni 7.832337557009898 3.6045769004214057 3.905618487709347 -0.03747408568605804 0.3301502147343991 1.1655191153376832
P 7.31090353184826 6.260851091332846 8.66096635588652 -0.6582618017722147 0.16835814899384555 -0.2264781930650293
Ni 6.771402743130461 5.918879637564872 12.420882466831081 0.30755253193954124 0.2234959705082538 0.3715850848404181
P 0.3978625138568369 6.27102514453708 12.330905568819103 -0.760309143353968 -0.36881035030875836 -0.029571285899213588
Ni 2.3146247008524607 3.2413926377122353 8.21113429991638 -0.5990888909564844 0.19223624116302376 0.4206126796920304
P 3.7525974158909543 8.84481223320407 12.160711872659242 0.6705035952540452 0.5411578229676551 -0.007757532458231802
P 7.472446523095588 0.32266742967296186 10.155885252083069 -1.6907386698085267 -0.9836786155866866 0.4821409781138148
P 4.349076582137706 8.740689169715173 6.855980769690754 0.1046194731843037 0.5496180379198664 -0.8008598110828208
Ni 0.27000796532609517 8.717424991999525 2.214306328507571 1.1381772329896205 0.6094329531949697 1.3249563076928148
Ni 1.315957668292605 1.3971661146641903 0.4291058721776856 -0.49026257877968465 -0.21813779152013402 -0.7889805431467315
Ni 4.1941200484801 5.73588466433538 12.586215430881433 0.35999763711313487 -0.49717781784227927 -1.221055972062723
Ni 1.0448182305034714 2.980878002319928 3.89802566355494 0.5407821847957912 0.1651501835795091 2.6892175836328396
Ni 1.22671852712238 4.64766572585942 10.639431507866517 0.7275129227595535 1.6025999678880658 1.2564636621380554
Ni 9.120762728701896 2.285804349415875 2.170415315801098 -1.5622105083274258 -0.8368552553408232 -1.3305893376088762
Ni 8.871774394091599 0.5128329946499209 6.94840919137265 0.25959657288555293 -0.007292419896355182 0.7396765547052809
Ni 6.785440360842632 3.367510422007028 6.540959518158261 -1.417245798556856 -0.21624237426963402 -1.3050762809394363
Ni 2.1942930643564584 6.984873881157081 8.25147083327555 1.7596820297474598 -0.9742475520807737 -1.215533756692913
Ni 8.980073786834312 3.024002741398993 7.004404199744702 2.350776589644558 0.37201420195803675 -0.8917544784818643
Ni 2.0519115132758747 8.23692635269579 6.138962990277932 1.4750354558718144 1.6607763191184817 -0.8726110727841938
Ni 0.24916587459839917 7.436634959692259 7.078265434277028 -2.132562436360534 -0.4165277109893794 0.7508991628939778
Ni 0.8573111658664974 7.025524099158445 4.493857222798457 -0.3526885050462313 0.33030293826217955 -0.36439268085703697
Ni 3.4098532492213924 1.0051706994815488 5.045596312043301 -0.5008508958184923 -1.2490452581867972 0.13879123397000612
Ni 5.560681212863562 9.160272275277107 1.6815649378860387 0.6796029864521522 -1.504676418666699 -0.9420812517608743
Ni 8.436930208723316 1.4909127477603417 4.8407206851505284 -0.23396910212543579 0.2400461615574511 0.216508226336511
Ni 0.4306917734185625 5.292743014238147 8.711657242126963 0.8316390012472064 0.7958376752778811 -2.4146224804559253
Ni 1.416281560015363 2.583004449707354 11.390714504983183 -0.24155308512028073 -1.588122085986865 0.1685887769474129
Ni 1.8984728085321 0.27080275573915646 8.211376232646279 1.6876597737728871 -0.6272879790985196 -0.7663574064305769
Ni 4.045924752711382 4.270821002925759 1.2133478342359847 0.24028964502682487 -0.742459773877373 -1.0135149822218288
Ni 3.6573237549178566 1.3704983205963126 0.811982355225285 0.454584665762101 0.6768606478203245 -1.037101511292517
Ni 7.096760869514307 8.283270728864803 8.141042800468226 1.577544824691651 0.04134282461284493 -0.7684310011301541
Ni 3.472075035725403 3.831036974365185 10.595930531196084 0.5297071579285522 -1.340876064246865 0.36867511028247474
Ni 5.354817617332332 6.635874419569908 3.704001133551601 -1.561964967975523 0.2256099315274631 0.5621483091763931
Ni 7.600440895865664 4.3887701079751995 1.7444260523264812 -0.3356058385323317 -0.06604135580078949 -2.283612947313867
P 1.0272482109554733 0.5102186493328837 4.237873996636172 -0.555589682122269 -1.3805582133278353 1.7890939072506735
Ni 7.6559106434438995 4.187395606443667 8.501908004576322 -0.8309111219422465 0.09561264170000308 1.8956198534290707
P 0.3301323882400826 2.8700764916101695 9.30905170520357 -0.10061832244471057 0.8906057095894016 -0.34680530679257693
Ni 5.614209979224714 3.7716668664265565 12.453800956335016 -0.13554110246382464 0.0011060885799851917 0.7230278904050064
P 2.2250911928625827 6.808437768627969 2.634734818779693 -1.0093935038542874 -0.33293471945807174 -1.1119098146526591
P 5.070882421851436 2.5511300425168755 9.091654449719838 -1.4142689753167192 0.2841747764455493 -0.18167286382488065
P 3.580604402545969 3.4015833813817853 3.3375080038102767 0.05074072088797713 -0.2598328572660751 0.21419243371914076
Ni 2.3758989941557145 7.153766843932603 11.88639051352893 0.4123735796116898 -0.6850953770252911 -0.6988479507246932
