# total energy = -340863.98074184044 ev
CRYSTAL
PRIMVEC
9.29343600350771 0.00000000000000 0.00000000000000
0.00000000000000 9.29343600350771 0.00000000000000
0.00000000000000 0.00000000000000 13.60188298604057
PRIMCOORD
 96 1
Ni 8.268128435724941 8.175389237254379 5.629723796186612 0.1680413890843751 0.41003413284523577 0.3658314701860925
Ni 7.2999103863954895 4.2234206056061785 4.157755974417337 0.3608270749929657 0.712812126214269 0.7439111616119188
Ni 5.115571880761711 1.543277286022655 11.722782999406801 -0.06353812976296154 1.1322053316769016 0.8983601567238398
Ni 0.15160568117947487 3.4180142626607104 5.478403423494265 -0.6942238216891204 -0.5132986346635418 -0.2381078068841577
Ni 5.5400216926213695 6.134606438482489 4.518463967009544 0.006555798840646773 -0.5944380224480343 0.6389219637930222
Ni 8.180909538275674 5.727916382938819 6.84994916319987 1.100176585376131 0.28727038465173754 -0.9947883523466029
Ni 3.1989865615329207 6.934975739081925 6.271488528907688 1.2817576608181538 -0.3412666363625349 0.5694409861830645
Ni 9.078376658859122 0.3566913695258701 7.855250810450667 -1.1339997045731631 -0.6580368302456022 -0.33551045060504797
Ni 0.17663197515295695 2.547154249525026 12.62041182577774 -0.38932338266044564 -0.10899677631639293 0.13667958694364202
Ni 5.172280427616844 7.421552171021322 9.961842288670374 -0.3542059701320222 -1.2700496283526062 0.8260375959000289
Ni 1.6648075494157348 5.15540354772682 5.45492634531245 1.3513684791377565 -0.7279114437495529 1.0898093832091942
Ni 6.213544884399811 5.862745553337748 8.497817566703961 2.030203219965317 -0.5072783966113908 0.4794953129608516
Ni 3.7708023890402096 5.434522606436598 10.634088562333787 -2.9458836131351585 0.7824481413448525 -1.1004956592784465
Ni 8.48031616791052 7.286741587494518 8.595355895557347 1.0624831845904155 -0.06041501075294757 2.443781618518385
Ni 0.18827943857044926 1.0442104760148712 5.545691617963276 0.7695833695670423 -0.22260225504939082 -0.18737814173977407
Ni 5.019180361918472 6.284453801558883 12.335520613929363 0.028073104087132296 0.8372308935126871 0.8860368592717967
Ni 4.724243875029829 0.06983273726300236 2.6719269927604126 0.04860593393316145 -0.6692758934945312 -0.7265572437145035
Ni 6.801856560918549 7.900303529795852 7.377552397982051 -1.3591658636949884 1.314337394526388 -0.20186065162666525
Ni 1.9481458280980186 7.683562013939507 8.622831939276981 -0.2281686933935748 1.3092355545234484 -0.9460970577884869
Ni 5.299851424450735 0.1020883951497273 0.10837075792817205 -1.460460643381433 -0.18396834472727672 0.49635249372750645
Ni 7.733616460573684 2.874933739459562 8.870331940470335 -1.1210883958281337 0.3877915193969515 -1.3343346635839213
Ni 6.762164295494381 2.6017253060857173 5.8664238953314 1.1379268075417113 -0.15330999641147147 -0.11976018548048407
Ni 5.861035561102195 4.656206629614158 10.579911547462158 1.2946540571648477 -1.5901558285874422 -0.3061947323600662
Ni 7.014592605831831 7.080418013464559 13.343406765749222 -0.6296688206258704 3.633517440311587 -0.5446689214447071
P 7.842944442416323 3.681092850726116 11.547440953179358 0.09397176366247043 0.6194893089897073 -0.7427747340146305
P 4.189304401819683 3.3542334109617955 10.579789803449735 0.2033099824786821 -1.747805332914532 0.3417070663340631
P 5.49989263570225 3.975090700572417 2.9140944203409385 0.28819289646600693 1.0656844651365323 -0.4424542010471541
P -0.1967522642288932 3.836711437597503 7.473853770495482 0.7213211921265448 -0.6276512759752093 0.42569420797999596
P 3.2358164486497496 2.436376491656591 5.765906090876284 3.124658072366322 -1.6038297265301087 -3.477652538688746
P 1.7089420772779156 0.2536671253646201 3.8252572776501164 0.7195527873722124 -0.42212860211592457 1.1565449368635308
P 1.260747536277834 3.379530143924705 1.1947158143645118 -0.7096514690981004 -0.680200510826835 -0.7346994132056638
P 1.6927993788368527 0.9394734515872492 8.45501200019876 1.1600174687931635 -0.3128163514416419 0.0753160962344961
Ni 4.559257504607152 2.28924281191053 3.7649744752852348 1.8981971272379436 -0.5958865819691028 0.6202446990984932
Ni 2.2984804873569415 5.450237806818773 7.99978418678636 0.1458784798340907 -1.0138769935469378 0.6607169481809266
Ni 1.1448026279584895 5.419467240014881 0.6420221609000155 1.8360383943210121 -3.08626841684453 3.3321949484421585
Ni 0.49254839395334427 2.842880678479006 9.83748031530896 1.4605490893301813 -1.5661388968475543 -0.5800820108366784
Ni 2.3501705787381693 2.4560228154933252 3.8342347368867697 -2.92184354146682 -0.9656932347528595 0.22177538827272128
Ni 0.5208933739448479 4.195735459575133 3.2781489792593557 0.3484353861968322 0.36425229862443076 -0.7681327531634449
Ni 6.82762725912066 8.951149519159554 9.581356934792947 0.8561171888942288 0.5932951670928428 0.4214539446464032
Ni 5.643680678465707 4.620138804254477 0.7927477536843444 -0.47395664253080955 0.08758437207888786 -0.5216009838816501
Ni 5.724459224723461 1.8817349339933347 9.39764986676539 0.4639614789913106 0.1942854103825686 0.44656205256794057
Ni 4.965928973278697 1.845462653040273 7.085343534577838 -0.7443531342453439 -0.4527702382611815 -1.1294496233086355
Ni 0.5416576981399355 6.749348647163797 10.570730561975731 1.685310299704104 -0.6465897647509251 0.07063874536348479
Ni 7.021283879797039 1.053336630228529 1.5685693722675327 0.389064215461788 -0.4960907554256876 0.9294563639080121
Ni 4.094399832746491 4.457828943417883 5.901530779402187 0.9071975525098119 0.023108303882689234 1.855285415476082
Ni 2.6702086364324034 8.57167993784379 -0.010577788926665417 0.6253622228307165 -0.4431951929782368 -0.07131468838458686
Ni 3.6599595771193356 5.739533178017304 1.7966321519355652 -0.20074453574435105 0.9893273292320316 0.313026410569919
Ni 6.44339943854075 7.255664337300555 2.103164058999749 -0.05699467221748894 0.6972083582387412 -0.09094891767574659
Ni 7.577198638200898 5.9508380337769164 11.01507669110221 0.31458655596818724 1.128296997761431 0.9429631401451954
Ni 2.7669068386657134 7.757677166540243 10.708735299477313 -0.11159641872276911 -0.28416114959879446 2.365075265655417
Ni 6.569725114942228 -0.07726283939520144 4.251241435803741 -0.7372296358266851 0.2697215771346968 -0.18293090460169786
Ni 0.5748761560027652 4.8987653108529265 12.191299497045382 -0.5800416445170461 0.14183979098834282 -1.9576186637293704
Ni 4.714216257518081 3.965286125526176 8.069806510145044 0.5146212101297073 1.06716696321933 1.4576655971347994
Ni 0.2458810846312162 6.604129415246669 4.585358119789492 -0.7837604323983727 0.2784345315276624 -0.27384176995065745
Ni 0.362494191003475 -0.1392974544579183 10.182302108295437 2.5121184552215703 0.7243052144555333 -0.5594396519959784
Ni 4.063610679070474 0.266736484499719 10.040379258149782 -0.5476496013395858 -0.5840003720544781 0.9670716031576246
P 4.8664427402265495 2.5407046048974506 13.794078007460037 0.3675507668700444 -0.19508630901730917 -0.41124795064767883
P 6.990299563963703 1.040047016658742 7.68583890577489 -0.26546023075518155 -0.007614322012148176 -0.1812180356756492
P 6.373419864987954 4.826499552028686 6.638249336407589 -2.726966006026207 -2.0515459473071505 -2.0574975369048953
P 4.283697831909422 6.535469509614791 8.290348112007463 -2.740763831141248 -0.06611308957898936 -0.8947940366391364
P 8.470520886300342 8.51448813231339 1.3142656465326117 -1.0812830909057378 -1.4239309238865154 -0.6352977367768735
P 1.643395472727071 4.5762459057299285 10.138571844901989 0.1519380557646093 2.17932308955484 -0.46827913253005804
P 4.428034187400584 7.676108678217151 1.1856751597626316 0.1856508746360222 0.366686104876904 0.5768727598707614
P 2.232459917566895 0.5418547189844666 11.888059325034636 -0.42593383479462776 0.25333696512908627 -1.3764243936651197
Ni 9.304402317342191 1.9320867705815208 2.1821638415950857 0.08189297812106541 1.543218026385323 0.509788050407122
Ni 8.864590455670745 9.292850576316146 3.307991131800575 0.28988802478024267 -2.692887576285259 0.34484458352178027
Ni 4.465114997291109 8.864925019369005 7.781800138528421 -0.35866606278590485 -0.7273591707905086 -0.14606462770296783
Ni 8.850854757169945 4.930037723204209 9.32307097170512 0.2043847036000996 0.5006488071100152 -0.5016471664675425
Ni 8.142732102929742 1.451876342345134 10.606067923260875 -1.755861113339473 0.486212319969711 1.475552247607233
Ni 2.076200083607176 3.1612459176819376 11.651127819331885 2.7519229330818606 -0.9019049366523048 -0.7728512416850367
Ni 3.5816809651624717 7.342028238632045 3.953060610385578 -0.4274926946413154 0.38959334849238064 -0.8931418457476941
Ni 3.287692408752233 3.0973163710060185 1.7606275219411116 2.0763735478737915 1.1155304421243821 1.5223262705379783
Ni 4.003937526111312 0.2902944155752805 5.043224339700117 -0.13646104317493274 0.27264080766402077 0.2311527157225632
Ni 2.533585832873355 0.775646901985208 1.8430826040645927 -0.13803738652311712 -0.8246044629979282 3.234796932706958
Ni 7.582068398697799 3.895120683252126 1.8417220450250007 0.7075763317366266 -0.4596638800572213 0.6373939571842699
Ni 2.020801911236896 8.936828334186798 6.278261585110248 -1.0570758975319148 0.36245021241868547 0.4422135457912577
Ni 2.2363074000968894 2.9536863166556286 7.266751406523461 -3.9761094803537658 2.021844820698292 2.418505103339783
Ni 7.316722212233072 0.5778807238818646 12.741659568714512 1.496080706577888 -2.2105221408654643 -1.0050002598825982
Ni 7.2417706503866865 2.674409269532783 -0.23409514901638834 -1.5866475583238673 1.5706239292021014 0.6212271176164204
Ni 7.989353234149487 5.297741814464483 13.599911177143811 0.893509513499758 -2.8350127597245045 -0.28198162544897243
Ni 1.4695245774283685 7.958610547653784 2.094350164237801 -0.41013003499315176 -0.4398838692168166 0.6340744058927339
Ni 2.65349903839151 1.8365688347281846 13.654249897802933 -0.2437403225795867 0.5867203420888024 -3.888994334601812
Ni 0.29441140775109564 0.643310231138318 0.27483943140286393 1.0051272723787659 -0.9808856262225816 -0.6212757114661688
Ni 8.891123215630005 6.216379382398961 2.089357730384871 -1.4718467737311878 0.8944027147379887 1.1448932115572152
Ni 0.486694458577394 7.159681729644079 13.348888034339055 -2.362558155660518 3.779051392322066 -1.5692884982201296
Ni 3.4864232455188935 2.1656865794557625 8.934995668595215 -1.4386119229374579 -0.5342382130296864 0.49930900525266914
Ni 3.504591913021644 4.545382404565409 3.859806555557137 -0.3283134186359765 0.7171056113833005 -1.9126359283710932
Ni 3.2991605088537135 4.466276676798957 13.43493317081359 0.24452322349219824 0.013355595371299578 -1.3790404911317282
P 1.851865830487534 6.02151461503442 3.334229289836644 0.4681978856701614 -0.1334829343832153 -0.9118116542430555
P 5.334311485371554 8.061089267118147 5.861785541392463 -0.7613674094151534 -0.2533361937981379 -1.348680133672316
P 8.353981198072978 8.03509552645053 11.307979774180316 -1.7688575255991406 -0.019893396489817354 1.47220261440871
P 0.5709719835127879 7.067927635396172 7.016803514271168 1.937167080743238 0.7524940181849233 -1.5886527616793542
P 5.716067251958764 8.626650612155181 11.605629944399293 -0.12105679280472055 0.6428588369535831 0.8792108374888987
P 2.509478659726483 6.4931936689651675 12.993864836586454 1.4093190875106114 -0.31841904234039997 -1.6818066574262196
P 7.504403153521078 6.80155917096454 3.9417031021732454 0.28462420527814203 0.3498860026004297 -0.02022378324604259
P 8.061609699537664 1.7071112703735463 4.137271382647739 -1.6336563229732382 2.3576249800249593 0.2941362585336354
