# total energy = -381162.5626228827 ev
CRYSTAL
PRIMVEC
9.33025108259294 0.00000000000000 0.00000000000000
0.00000000000000 9.33025108259294 0.00000000000000
0.00000000000000 0.00000000000000 13.65576557561506
PRIMCOORD
 96 1
Ni 7.799707229813076 1.1618121749554153 3.2892092186677746 -2.4923821531349075 -0.37169641360730177 0.3288258394960208
Ni 5.315294665777666 1.8157881225222914 12.680238327366649 1.3200838100918622 1.5722085000804018 -0.6843494999982019
Ni 1.1087417077157817 8.367425007613704 7.085266591151536 0.3735550640825954 -1.3976146545894899 0.8103739212208431
Ni 9.349004725524816 7.108904781860329 0.44676040485853913 0.30112734513948786 0.46175495825829505 0.9096017910759303
Ni 6.344178755859126 3.386843763382208 2.755542191603967 2.562909569731509 0.9280278589916018 0.6925968276086588
Ni 2.1404528638263574 8.856330155883184 10.47148709377221 0.45295741457132316 -1.1951377095350644 0.3215938405239558
Ni 0.5241287115470921 7.249987506039389 4.6836273481633155 1.1808279777806114 0.6709257703931284 -1.0101409235432732
Ni 6.661295324167963 -0.03310093119304637 11.973962591286226 0.297500547020178 0.40082906930719997 0.9082753589550229
Ni 4.350266813000716 8.890077673465067 11.572318614757021 -0.014582525799865208 -0.4406667701294281 -0.2869250854971768
Ni 7.491155831849875 5.756456920083502 0.2688614435696207 -1.0318880854123778 -0.7324291291142483 0.12159723868922283
Ni 7.861146932129001 8.435032005788527 7.4536304956700095 -0.12001343914187074 1.4772484043627332 0.08729949384861739
Ni 2.6711108849680865 3.2861050441863 6.7775745092981765 0.47877437563442704 -0.920828255919369 -0.5782943228086362
Ni 4.172758789225395 0.40464925035091576 0.1305535360145168 -0.388892208660298 -3.273738089856846 0.7146697482482983
Ni 7.088751439870594 7.137240753907932 11.808359034661231 0.8476896269521659 0.41917440458360716 1.7043012389843097
Ni 4.445780591680767 0.845192909020677 9.310732969271255 0.19426407022632994 -0.7230026935940258 -0.1142269143670807
Ni 2.0294415383662376 4.497927364079204 9.66847345009088 -1.2915049700129049 0.5158969915183372 2.7326998231861905
Ni 0.5996393652772393 3.1164810824393707 5.193041320982625 -0.5499414826975562 -0.7603060580301745 -0.22766681405649178
Ni 8.367798217650552 6.448397658648632 6.305181106083899 -0.46182206405080456 -0.017426165896247407 -0.9555039529246834
Ni 7.359198093071722 8.01302475662386 4.708999099493263 0.009727511700409053 -1.1430913824617863 -0.3776297483726012
Ni 8.992178609295467 9.259676903205504 13.174890910203569 0.46773123044638804 -1.0294540220495885 -0.2765689390738334
Ni 6.029040200745579 1.1925553517406813 1.368375533124362 -0.3131446813153381 0.4859894053256275 0.3475141599341434
Ni 5.768269017749708 9.063209809558359 3.1505486276278503 0.556577499956835 -0.06551556520430653 0.6410459521145605
Ni 6.842488797057147 4.2511795482178565 12.066452435642725 0.7907543472177027 0.13566374408461795 -0.09132995516424916
Ni 0.576734532290851 1.2781417434406035 3.010741348749714 2.559327251696889 -0.9524037167328048 -0.33680757214991675
P 5.273261885377781 5.38116623728115 3.9957723264765677 0.31105565999679335 0.03965412405651235 0.1626991509358553
Ni 7.990968043446207 6.1053616532807755 10.159302496100306 -1.428020777685173 -0.07637153408220396 0.22136092644312202
P 0.06835341824851529 4.903289445600498 11.019205478723304 1.03919464637612 -1.8395209535529737 0.4413038894927948
Ni 1.5836048283488946 1.6627346864113652 9.817388919918267 0.3151272589630057 -0.0032493601752331134 0.47755258741218404
P 5.678148124102094 8.819354371482575 7.619875973558382 1.1931641307484613 1.1250903178986753 -0.40920032409003076
P 9.284439389150297 0.4780643297241675 11.141192911367092 -0.6364745306937941 0.03901006271461023 -1.3910663119480107
P 9.097853031228674 4.615964368482967 7.0416635295216174 0.8358543248801347 -2.747040922399211 -0.8239794278194196
Ni 9.160207098134874 9.230613171586048 5.4956260234817345 -0.815268273198667 2.258235387781027 -0.8723385358490976
Ni 8.951237468253357 3.4615324220062003 2.778838895129045 -1.0985719598931725 -0.4257618279931378 -0.6170776142244212
Ni 8.735876616490836 1.284859524103848 9.199902650679007 -1.8700713155360051 -0.501874194876684 0.1495811254966585
Ni 1.7095912065374972 3.588470485788762 12.244674223613517 -0.2600660563228037 0.6734156266945176 -0.32441305514030583
Ni -0.02289550273546706 6.155539742734845 8.368690189638617 -1.0086954493459983 1.589809758101933 1.1499924804569934
Ni 0.43174429902600286 2.4411295300120863 0.4702222538249214 0.5978671027342413 -0.6172851022495369 0.35159450065110415
Ni 2.7531891023216475 6.414323582284506 3.593501357085459 1.1533531693991104 0.7391078266860045 0.21815193258752102
Ni 2.3633245675804226 8.024659579522563 13.004603567616144 0.8137232973090501 0.02631884040018693 0.1481906729070351
Ni 1.4106033157685 5.26553643761505 5.4199185014571505 -1.1051439566837356 0.015186477932451264 -0.3337872972663542
Ni 4.311770197699955 3.000468742485502 2.359702564172823 -1.6453471290476052 -0.5258340481263911 -1.631354671423255
Ni 5.658181387130784 4.376671423107637 10.03539023269148 0.07152140507875424 -1.1396792714564437 -0.9382883603773454
Ni 5.36129280281905 3.9532739665557153 0.28860332149373125 -0.105169946371135 -0.07168467012949589 0.06421972921101843
Ni 6.594863937609209 8.02813043286524 0.7196450526253697 0.26245281138742543 0.9398215091924202 -0.5431573698961871
Ni 7.657364921759656 1.7374606660390417 13.416870967844199 -0.9779329713521608 -0.9362625881965682 -1.6585988518511887
Ni 7.065752371349903 6.7134700873191635 2.5587625345509624 -0.34133888436136695 0.06462467795892096 0.7449673707905751
Ni 3.4821429462910714 8.942513683642062 3.884600520700604 -0.49249223944115184 -2.322767763136458 2.290033249017914
Ni 1.184046162900571 6.276870325713783 12.158519619632493 -0.12720841422841317 -0.714639152120679 -0.013100799048016146
Ni 4.383482506280093 1.8793644522991657 4.431446527190569 -0.6332567950874449 -1.1422660583470134 -0.35516370605960124
Ni 0.7326794131622487 2.7523120587350567 8.02015400135273 0.1252230083672682 1.173289246201405 -1.3428133904788937
Ni 3.5510841703476212 5.334589624682653 6.054474464756697 1.9561176537038116 1.8706858091915526 0.5163371643795495
Ni 4.271528825476936 7.876989698193154 2.0259828143497587 -1.164945245112084 0.2926545317817863 -1.8913777903232656
Ni 5.162334532175952 6.51813195403348 12.771868855613306 -0.6928621654549035 -0.8183764798103456 0.23902080561673028
Ni 1.9446202272418516 5.418636524980582 7.727005914635294 1.4157615007018456 0.4274348448201865 -1.396913257647091
Ni 0.8256329709895295 5.335149439737923 2.7908562583155163 0.2677711382765453 1.6905417233063724 -0.09386197755748352
Ni 8.340637857219017 5.558655600554629 4.14048265221378 -1.0191348995117675 -1.114414583352384 0.2652339736769884
P 5.608320526208034 6.428234986407976 10.385182272751356 -0.8403054186729527 0.9130748372261953 0.21011260722281233
Ni 2.3797458092016877 4.190458275222861 1.5768721192841761 0.6491181875997337 0.130687116805633 -0.48376360131890234
P 2.695509491126954 7.427001026515889 5.650973768294177 -1.1730766159699668 -0.8581905264834897 -1.450009109030806
Ni 9.155420679412313 8.124166705596876 9.745669147137392 -0.28229478581401707 0.8729280898039806 -0.18653430568224005
P 7.483001192544771 3.480985995176846 0.6784706553102321 0.5565517889252221 2.5566605034980032 1.7723516547953284
P 3.4243607023362457 6.35375159330425 0.32349379481345863 -0.9347952596224224 0.06076956587888888 0.3143230178941554
P 5.290261602556158 3.7952661672056465 7.890356215662827 -0.32754902966612626 -1.0169854572689325 -0.8075585632592349
Ni 1.2856899164358326 8.165565028934122 2.529156715352988 -0.5282328873758709 -0.3801095773716615 0.3227832328463667
Ni 3.3690416446246094 2.4252214521914865 0.10749661993811346 -1.4972163628442279 1.4168807019079535 0.12435680371223098
Ni 6.331051092813036 8.488037161271711 9.74674772414388 2.2579080863485954 0.47432868115824767 0.09590523323975741
Ni 4.4417405930318985 5.744066346860184 8.189799422676776 -0.3319206763712606 -0.7362765278847966 0.9049712342824543
Ni 8.182630057868947 1.960957496604826 6.701525500089877 -0.3615801511089063 0.10676865831682257 -0.3215395902472527
Ni 4.286821106736737 7.870094642762407 9.151342426734669 -1.3674216759458773 -1.3901916226525415 1.7622508189159003
Ni 6.862800753312541 6.4104328676503775 8.084691346974484 -0.05714688152463706 0.015602482423947323 2.836791706001798
Ni 5.793609979251613 3.125932626622519 5.633973118090708 0.840005628044347 2.078336328027117 0.49126890855701205
Ni 3.461112560714747 2.90725020553206 9.193142883886617 1.670948374555477 0.9851965948931098 -1.4278210029695408
Ni 3.5086968404127306 1.7875641134857423 11.201005417922364 0.34237246783220393 0.12300260367718172 0.6714178795381984
Ni 3.398693182052098 4.17996174293654 4.2233865967738655 -0.5635798994165971 -1.0277858903185462 -0.9701759531145613
Ni 3.930134944271206 4.009768635883419 11.782043994963153 0.9489000744549208 0.6323358259350722 0.2611718877924728
Ni 4.934788372710378 5.762409620171209 1.8119011399885303 0.19367554471271162 -1.4388890878582445 0.3222523000435612
Ni 3.293783840694426 6.443695212184361 10.866876070083862 0.18263831306194353 -0.06474063471149497 -0.01386955889324063
Ni 6.5067397176587285 2.0680967679326585 8.52696016903957 0.07934732888107625 0.04783794541888536 -0.010592430803865627
Ni 1.5571722274892108 1.1828798815354244 12.278089584262606 0.6690267535982026 0.040746585789742724 0.7651340755464371
Ni 4.65614042894954 1.7172140215400957 7.012125821155367 -1.117997672717952 -0.9522360808066891 0.2242652445741105
Ni 8.246840844708462 3.908012919337104 9.358514117263677 0.08226861629292928 -0.9204742150140599 -0.6297937762395089
Ni 6.737999316990928 2.0032142030268196 10.91629561013804 0.11316761986463089 0.39235085663285973 -1.2226153461300426
Ni 8.861956297188652 2.8262076460307495 11.522748857663013 0.2656978006872843 -0.5221100623075847 0.061096095980372196
Ni 2.171737195165051 1.0619131783424132 5.0424324106130465 -0.9524407406183274 0.3512476588346467 1.7939928872141877
Ni 4.840907387941533 7.847590077540537 5.367344403566523 1.167982746386827 0.13244703691953316 -0.8526094328512864
Ni 3.1459180240956717 0.837501050161262 2.2567656378598873 2.260628570603552 1.9414502814996242 -0.25737822507799546
Ni 5.85323028263791 6.067592797551866 6.269771870812954 0.025035859922705267 -1.7035250229399177 -2.918003856005755
Ni 6.296211935873375 0.6594145508288279 5.292428086820055 0.36438291066502404 0.5721406445024146 1.1323251450842178
P 1.7586030146264204 7.048752654171524 9.243396548373148 1.1365463822544168 0.0920002417583964 0.5514381218477407
Ni 3.6289824352884965 8.552303929616754 7.178426347524176 -1.7861003718399884 1.683131289774914 -0.49958077085681707
P 2.112396799306389 0.7935630325232728 7.778077842127612 0.44250150934532184 2.0226143518744655 0.2733841135879485
Ni 1.7659272615995414 0.35067281574683634 0.872691957560651 -2.655779101468736 -0.11836973289086064 -2.401450976070974
P 8.620759980625401 9.171440720243968 1.5930815642095304 0.13809523634424603 -0.4844876239691205 1.0219715976296142
P 2.3395697487351157 2.442043894602362 3.369013653871846 -0.23117302743753734 1.5197302276760278 0.49741127400932394
P 7.6896849109506 2.915843366630461 4.659032806735103 0.7030912993820794 -0.24473919615774628 -0.40762012408710446
Ni 0.3953843111861907 4.7162738961365 0.3643509635972763 -0.7471016435247585 0.684581156393034 0.26524245831742066
