# total energy = -340857.5479877017 ev
CRYSTAL
PRIMVEC
9.35303047279908 0.00000000000000 0.00000000000000

0.00000000000000 9.35303047279908 0.00000000000000

0.00000000000000 0.00000000000000 13.68910551575089

PRIMCOORD
 96 1
Ni 0.478829327268995 4.904747854355506 2.3334585632106792 0.3611744310300554 0.3941264604760438 -0.64859111145167
Ni 6.659862717314684 0.27435805290697335 2.222796313279561 0.52317629878857 -0.07135659736611581 -0.41253735888306375
Ni 5.632740976509427 6.952434861646884 0.5884861264307731 -0.43454188817861295 0.5004361768785769 -0.08611344396031621
Ni 1.4608591731527352 0.6494482433561545 10.631192166052175 0.7413855669765876 -1.2631472448058183 0.7779695367482085
Ni 4.279750303103607 6.9193718991388335 7.239565412885114 -1.0408910602419363 2.795745843804082 -1.3023619673320668
Ni 7.245783307503319 0.6773707803495163 12.15695201723698 -1.2333337609888113 -1.1803651792115801 -0.15526172082120357
Ni 3.2856167005631005 0.0702169405185116 12.385874919006296 0.8724040989797105 -0.5669680991625397 -0.21114927601744282
Ni 4.5050928648310355 5.35895907027586 8.721903820380067 0.9065989996938645 -2.5031607318076503 0.3563536126026443
Ni 7.980005547911939 1.233683417464464 6.507773089777651 -2.371071335337852 -1.3618776061991964 -0.4569768201433614
Ni 3.2195188346382366 7.99805689660799 5.25829988637087 1.1122880239276844 -0.057938524187997 0.820981007312728
Ni -0.30284831884637153 7.383469268205161 7.273664691162867 5.379193385587943 -2.042592337658289 0.8186626435921965
Ni 7.306718300640504 3.3526218104379732 7.4695283716363 -1.4183382602900863 0.32439120076343486 0.3545116742978991
Ni 3.83127249482609 3.8911880076483167 11.108736386942498 -1.4413907712341756 2.5227463672490615 -2.5311160793699954
Ni 5.838002581941302 2.286741111603476 5.263803209465563 0.33184122928357684 -1.2417281557000936 1.0313975189292044
Ni 4.001787592275671 8.710954227676199 1.3890194818576618 0.0073798374038389035 -0.8251909316290176 -1.005787531670584
Ni 1.948301706128566 2.65266907346061 9.59511863983915 0.9918395541309241 1.4663155595003132 -0.1769672308190952
Ni 2.1746543951405406 7.080702320723377 13.536143334737227 1.5015648696209107 1.0489270431725355 0.14202542463658765
Ni 5.6801234285789555 1.84176133670022 7.865964983395841 0.10969045994930786 -1.9569776877112617 -0.6640210728534951
Ni 3.7203268480734746 6.562179667686938 2.3842043650165285 -1.7384375185463867 0.697239982807625 -0.15673830536673006
Ni 5.878398320292721 7.466159410081731 2.930509259590143 0.2282499402534714 0.14700667990126295 -0.6222445031373413
Ni 2.1912466710922467 4.301486745782167 7.501999287319241 3.0732190398597394 1.5961562691452509 2.5912163870960017
Ni 0.2384489632444109 6.08565212120245 13.044293653831044 -0.9035316736224503 -0.0317459249530292 0.1714540143103499
Ni 8.750031188739463 3.9753746343908807 4.260295999845687 -0.2914031758731884 -1.374095488421627 -1.5260160606847395
Ni 7.979070244870694 4.831934512594494 0.45392688379581697 -0.24281035456614958 0.7196103800830251 -0.029706783035813353
P 1.8652187369746724 6.766917503415716 6.6944520943860475 1.5678561366489772 0.2471902288014001 1.1865461112113111
P 3.8466114647025265 0.8969471988276628 10.353193913708672 -1.2610183713882734 -0.34387759162282067 -0.670907001340051
P 1.300819469765111 7.725687297966705 1.8064695470448797 -0.2750193351985264 0.7302452340890521 -0.10190747356977932
P 9.28089984192035 8.487510331122499 10.224269871897222 -0.9581660731378788 0.059486328291091094 -0.3288456369903627
P 7.358908210342038 4.298409598776467 2.3507205161399174 1.9072306981951217 3.7436904963242683 0.051413064364653385
P 2.260356212809923 5.02116502389941 3.8558924767808116 -0.09295129281775605 0.17350524041242374 -0.7221943387601174
P 5.713064801691643 4.3965696529552485 5.040054404120418 0.7970792609944659 -0.09215656483060258 1.4794158443276972
P 1.3273727231060883 5.094511488393932 9.393683359149014 0.6605732235142108 0.7883130847660618 1.064396342452728
Ni 1.3013900046202709 0.0007753662211930377 0.045943020689050915 3.555445121488193 0.9832901218990163 1.3922356496657635
Ni 5.443239227322549 4.622136687412576 1.1212637331188446 1.8176179828322954 -0.22212248719949487 -0.1014924975195478
Ni 4.940195839618733 1.5618999606985542 1.1791384147050723 -0.6264546845639469 0.8982794240845755 -0.2278259653421754
Ni 7.918630962345369 1.231027156827325 9.091797467132086 -0.0994016764287901 1.362456104410486 1.3287859658515502
Ni 7.379194933306666 7.416953117081773 12.581013739622765 -0.6793844426834428 -0.5166647229222973 0.8266307493993376
Ni 9.114135309666166 1.9004328964775892 12.897532447719989 0.34855905625889005 -1.1793521645660334 -0.7272396144935088
Ni 3.881339266623995 4.9935268190305875 6.049353010171688 0.09844368339089497 -0.42983394117998236 -1.2776420959878836
Ni 0.09479576913941852 3.868357260411499 8.037927929953272 -0.9449981682973532 0.6826790542743146 2.240905638253328
Ni 6.451972910336908 2.751867314015174 3.071753113060885 -1.6053471916158997 -2.7572600290240574 0.714255286418699
Ni 1.4552005897531963 4.410879789486313 11.580668789585342 0.9091767877233696 -0.09690256415602021 -1.5475184535328896
Ni 3.705333940322299 2.259102906734653 6.452181482915106 -0.4124746239659284 0.7582244929107974 0.2729367416378848
Ni 1.4155530938347731 2.5900785939404196 3.3174039097228913 -0.2129801585785945 1.3078692703035413 0.35192283052480033
Ni 4.551381012342307 0.31966413222493567 3.463905101588478 -0.28591592750637207 0.17931207690218795 1.4645427838706069
Ni 0.8247464805586682 2.385527818819892 1.0891220441064218 0.05141383569560178 -0.14857248172648607 1.4966311797647192
Ni 8.432776397148777 4.064836370286073 11.9586518723411 -0.6660473592549045 0.2416806118370805 -0.8099023809010631
Ni 3.3196243191428096 6.436980002585732 10.415259688222724 -0.10233761912866246 -1.5649225079419498 1.4027527471470036
Ni 1.645459934403483 8.651618602739545 3.821723986078008 1.0173929771199963 -0.711022124193382 -1.2405534186657021
Ni 4.793530969720929 7.563103570306891 11.88311586342702 0.642010887130991 -0.13959753192138538 0.5488719037824612
Ni 8.792147884686775 8.251327607147028 3.6051218312710245 0.5140303706232437 -0.8178571169717656 -1.3493763884083922
Ni 6.02652226293487 5.114564385598248 12.590719379281778 -0.6192753932066883 -0.5932370601613977 -0.2186306719961525
Ni 8.705136642759648 6.356646824373103 9.475749653897074 0.3615079031100742 -0.43934959397990136 -0.4110805718318791
Ni 3.5614188613657576 0.32158056815644903 7.846978331658545 0.7983632699132122 -0.48910969612216415 0.8214075533271853
Ni 3.745748384734544 2.8443033135815288 4.004432629276315 0.3371893809693677 0.7547948984039581 -0.5947285571052596
Ni 1.3758027145818128 2.0404384087217218 7.325834024197492 -0.5863079371417322 -0.6467167772470926 -0.44196774832903885
P 6.735126553043759 2.7551128155682987 12.410542601416122 -0.018318595803529743 0.6693265442268085 0.5330647615468754
P 7.709282082623249 7.584119829643692 5.859018841278102 -1.935090143609551 -0.4616675407508114 -2.616982183206196
P 3.681118944584437 3.341089523939408 1.6414877023873107 -0.09046992115679903 -0.5073377890944166 1.2498078473844347
P 0.1548553186299972 2.3724803413945086 10.919690130336706 0.2525980300805327 0.4972662637910275 -2.0416122331332063
P 1.05540530477254 4.083953964449143 -0.11588872332560114 -1.270731227800663 0.45439337568690125 1.4151755462913886
P 8.488754284167356 1.6528862405509772 2.7605590851774746 0.6676183032864503 -1.0229038796358965 0.5401689766918246
P 2.768085468750382 1.0948002688698268 4.8371413446251115 -0.9199468817556801 -0.9688019555851702 -0.3261092118958061
P 9.138369011464853 9.527745020566028 7.822995291074911 2.322752593627806 -0.5424855406401431 0.3774978507804273
Ni 2.274993705405425 7.7664384514738 8.963106315777907 -0.8920334431748638 0.4818450441399508 -1.6149368921868636
Ni 9.281114961619837 8.638028649550238 12.392364051506464 -0.8022651760707796 -0.4711510547612143 -2.1522920535789773
Ni 5.589838626007467 7.1637385247252094 5.127364007717701 -0.268850230273337 0.3345977089827915 0.7880153510199848
Ni 8.784599989143919 9.09324999275514 1.1003344569648803 -1.3714914751398766 0.4337119360781498 0.9614115766583701
Ni 1.468846661124977 3.8710696392311124 5.535435789310345 0.2035002441126173 -0.41704321717321724 -1.8442183590286434
Ni 6.456247245235402 5.626034853703692 6.80134974957615 -1.1298825970809963 0.34396320935809155 0.6723784436792549
Ni 5.830052506090709 0.18101574469365134 9.65262668263321 -2.553940533463679 2.3606455120188374 -0.5072262032172168
Ni 0.737354570293754 6.4969516335904345 4.953279793862725 0.44838496470929234 -0.18107842477399136 -1.0707690787482915
Ni 4.136892116583674 3.717558351071386 13.24782307803053 -1.0927795215811116 -0.06782415873282513 1.8265656789438864
Ni 7.762257646879429 6.048960182894365 4.313833681229657 -1.6357998516788024 0.40092008635910953 -1.5500347921968403
Ni 4.982415418900583 4.911753274134439 3.1834694495194875 -0.24380125772450914 0.14149577738536276 1.878404517992049
Ni 5.799065916334225 3.2437993015889863 9.97462159003693 1.8604906138261055 0.29165591531394286 0.23362508852245573
Ni 0.49564420534451786 0.9747915356475365 4.786477849486891 -1.4383658683649228 1.1087830960982195 0.34364207857324686
Ni 7.883323272538328 6.9540997010603025 1.6711386794008956 0.3424629706634812 -0.32957454473658726 -0.11999621275069013
Ni 7.206706346440056 -0.07034320642907982 4.609491390294928 -2.286559431536701 1.20128778829686 0.897636648294254
Ni 7.69207250666432 2.537645505448162 0.9004817090205319 -1.4347704377041808 -0.8370624862556227 0.006790797669588304
Ni 8.578823967039359 5.157120673974947 6.286146487033093 1.236498531870038 0.20067280196615114 0.4237514824313282
Ni 2.4213686313604437 2.1082385261816534 12.954109863988009 -0.8085116712011235 0.730627042908503 -0.08387684132031362
Ni 1.5432687241169314 9.168064883024417 6.670290410921537 0.4304247806864458 -1.3998664267381438 -0.45205547158234405
Ni 2.262348408287777 0.7719972596384692 2.0799502856991645 0.9250052701151941 -0.11595520991209707 0.01318590256265471
Ni 1.1048454235328102 6.871344087970845 10.979607513765016 0.33149515879806773 -0.13690250158772552 0.5640061883207383
Ni 6.750942527471231 7.757150892274225 10.17946511500937 2.2046427992665514 -1.8073752220583648 1.2566212707618423
Ni 4.735336414494594 2.1031504776372745 11.876393840469584 1.5161959892705241 -3.292297083805956 0.29650013078012166
Ni 7.305203109713685 8.40212651648714 7.861420345918425 -3.70008458670886 1.3434808488595635 0.5640280426976092
P 4.2492500709285705 3.218377764927917 8.526820182643032 -2.1089039164013292 -0.001067779142882032 -0.39608229865083394
P 4.844542397590492 7.443562488605225 9.193479872564199 -0.13843462196153578 1.4001171092963693 1.1428808091128768
P 7.16640413839276 5.796138417815125 11.036402855641645 0.980078556940254 0.4453603189503555 0.19818577387823935
P 8.9099305966709 2.935074473734465 6.114348153810922 1.3989130616859393 1.024098671274946 -0.5821692323830103
P 7.156489926155552 4.914811715079313 8.993756196439541 -0.8156907054480662 -1.128624813414495 -1.8840558027405552
P 5.7099595955947064 9.167681408777508 0.008886314194879435 0.2938693780254939 -0.9026747249387937 -0.5189905428419964
P 5.218888086818841 -0.0478304622262856 6.179412509875209 -0.18415500681678607 0.3325148583118338 -0.15714891054158742
P 3.674796296025613 5.716637659309203 12.752839196633133 0.7458793410818831 0.9369105061932121 -1.2156080615742741
