# total energy = -340865.4792671716 ev
CRYSTAL
PRIMVEC
9.35987911290527 0.00000000000000 0.00000000000000

0.00000000000000 9.35987911290527 0.00000000000000

0.00000000000000 0.00000000000000 13.69912919281925

PRIMCOORD
 96 1
Ni 8.143553384858006 2.4221775734397823 7.467929237276426 -0.13916790058313452 -0.9237929949746477 1.337105541460839
Ni 1.5113396659878031 5.479198301554048 10.496190801101882 0.13158803135334757 0.36766260985756033 0.5460159223909048
Ni 0.9446645102443242 8.772443656473294 0.4295323363096122 0.20826732648395743 0.736669392447841 2.596003009851368
Ni 1.3505556641153904 4.731315887908024 13.529451476313998 0.7685698407008634 0.556863663738686 0.45976286752893075
Ni 7.7440643882392814 4.673509275056468 0.6934200855697047 -0.01619743569546888 -1.3722352952844368 -0.13760698385391784
Ni 2.1611773468585604 1.419247816271732 10.702403911804657 0.07697342933226099 -0.14548587238136235 1.3552521304628788
Ni 3.1949666251683824 5.971153543049798 12.474194379474978 -1.0208644806083644 0.11216951761741971 0.2884808600200709
Ni 7.4353381385152355 0.5752525488809734 3.213733182611285 1.5816632177353986 -2.23234026518182 -2.895659941092916
Ni 5.000084814079076 2.1236255122147067 6.376601974643035 -0.9434747896742912 -0.4175983183457389 -1.9188135179367147
Ni 2.9300820487922454 8.849653298541377 12.802603518798366 1.1777850771892298 0.2784242471150173 -0.504761286616492
Ni 5.9956389865763 1.5055271811139663 1.6299770686035338 -0.38279278063077943 0.1771754901751594 -1.3311938039620945
Ni 8.73441446799922 5.789309813373629 9.15823727810426 0.2517832474887212 0.34421312058536846 -0.08488522798016994
Ni 5.459177520321943 4.040594255460907 7.990305021587729 -0.31112328000993517 -2.136582099042888 1.336759213865014
Ni 1.9197299075582488 1.7313249026863313 13.18154851694755 0.2859830332988817 -0.12001395336250296 0.839058176529413
Ni 5.353850801666089 4.668838695423546 12.579581001356585 -0.8722740011597494 -0.41456210262257637 -1.0556070262958723
Ni 2.917792527633875 4.124533650547169 6.942156752867355 1.6227196214560762 -0.7597404153346916 -0.31841235747218066
Ni 7.748632009202941 8.23666546138768 9.479304528321306 -0.9660727295794651 0.4306358682559874 -0.08889254936735012
Ni 2.569324231574385 0.5957544278949061 2.126542986506454 -0.9893705237651413 -0.887115437047956 -0.36209051508642154
Ni 3.304392970836701 6.9603523576898 7.820682485953054 -2.4431013046219086 0.07451494048943941 4.431257474818504
Ni 7.1791020903571745 1.7122401093566162 4.970647058561034 -0.6993596002537891 1.7635044888173437 2.8363453624929993
Ni 0.07939798178386906 4.059997284677435 3.462577734304179 0.4945293244758386 -0.1541980554433796 0.3397908231479568
Ni 0.16015782596571437 1.7023373573493386 4.0082830170825305 0.37415490245012334 -0.09045603719972808 0.9073816434961599
Ni 2.685630088325264 3.771188857516231 11.799375181489454 -0.4049150664511155 -0.7844741706359457 0.4226507931679818
Ni 8.527542421813166 6.1402959168905475 4.647676008950527 0.904082661029914 -0.04928239117489577 2.4127262918744767
P 5.408578014318785 0.9084436503976677 3.7602602627679347 -0.6071174176879157 2.0386094417511407 -0.9502751004255762
P 8.867783384210654 3.1301494629279314 5.750784551311291 0.8318282344398771 0.8533349981634014 -2.245670663742139
P 0.1559524323202798 6.892596193435847 6.788329013085498 0.5519711115330752 -0.16528156695105084 0.2289870755298121
P 4.016305369393908 7.581024655522111 6.149757818595798 2.0102807700097767 2.4828549303707628 -3.9360730332571694
P 7.363828662772702 0.20213220344835697 6.953485950437873 -0.16638791264135214 0.7671541913002595 0.26355992840867515
P 3.9568139783180523 0.8301089508709129 0.5503103432581068 1.077436463466138 0.8355185388072707 -0.35513850924862067
P 0.3535469664178541 2.5397657336169344 11.977504911168943 -0.28799286464005885 0.1459612693558841 -0.14832231338889296
P 0.27571208443097495 3.768774008728067 9.362340672075048 0.946715408098776 -0.04428905172536244 -0.3382031669458627
Ni 5.246726986237649 6.143169399750882 7.135793930113627 1.332966322481485 -0.7614661397765468 -0.9098439889937233
Ni 5.841856174213758 8.554180637515161 4.784654094513574 0.22460385886045192 -0.6215865578383681 1.4133456921715013
Ni 8.496589301881155 5.918672701362838 2.386580081536117 1.301746702345571 1.0315139899024104 -0.54844561487832
Ni 2.9905843068026816 0.5636088593752522 7.142054753192708 0.7600039534087234 -0.17177025999918805 0.09848430682084329
Ni 1.7962731032331163 2.3605146904303838 8.439143044372019 -0.4779516226228156 0.267194696947785 -0.001167280835223796
Ni 4.866294703311567 5.787802872850783 9.763177491273213 0.6229623551399722 1.7758226440630642 1.252052163333921
Ni 4.851187858567005 1.2501616017051274 11.778360381105012 -2.3390068507031394 0.007178262915994089 -0.5132068462806839
Ni 4.0521724258134615 2.3945659303193016 2.7909923745214087 0.4709150274910084 1.4361225808567009 -1.1091268525908835
Ni 0.960501425552749 7.664496056657177 9.054206902693215 -1.111699755524382 -2.490951591335968 0.03442450022645684
Ni 3.177847406433684 7.799783748068509 10.321403484221825 -0.33746217501478015 0.4343053466877746 -0.18767099038984453
Ni 7.471851026587437 7.352858884556702 7.097902331861206 0.25274329740914536 -0.2353022191145625 -0.30895378316244215
Ni 2.5534779563869363 7.057573421110964 1.0696816064027392 0.2492517393161191 -0.19086275785426485 -0.01557214340664415
Ni 5.5338693549326 3.969365576089091 1.3475324231906736 1.267662101957036 0.5722162349353564 0.6045002917800427
Ni 6.161832998524522 6.1645192838043785 2.2447114591830872 1.2220291346092695 0.7239164636575468 0.42254949170342715
Ni 9.147007295251395 1.2934136026745313 9.90352513328486 1.1007869652666205 0.8545925247195862 1.1333769833874996
Ni 3.3408029002396398 0.9074084477776253 4.317691601987418 -0.542953224305181 -1.7652860061977986 1.8947369366034854
Ni 5.441693266305314 6.247092136553152 4.735227381352109 -0.37359594462285983 -0.005094383803771871 0.007246911370400422
Ni 1.0843607046759087 4.631240061384573 5.547969076694191 -1.2939120367925008 -0.29530662469265273 0.6937227136829859
Ni 7.473891480214645 4.665319380910563 6.675928097863387 0.8383266976800271 0.9243542667947565 0.059168025719723905
Ni 9.232547229650741 6.788907453609174 0.11505069697377518 0.649184779171611 -1.945434462958353 -0.5976992096978094
Ni 7.190989136717517 0.6897107655125364 11.566298282000208 0.7958245626517585 0.3122489089739461 -1.3804476558919
Ni 5.8108562548866285 4.250732899426302 3.7038473359030366 0.004479118817276157 -1.5306072795998478 -0.18861381391908807
Ni 6.760313023191186 6.394725508396997 13.08735350241481 0.875014540019364 1.8047760938726207 0.9936025595686178
Ni 6.707570104891555 2.7933529360112344 13.047612392067268 -0.621562132358336 -0.0069216668204977565 -0.4680315352956262
P 4.804631820302168 6.0064122073328 0.5474967636235248 -0.9837657759838542 0.6510989654751884 -0.7316333726858303
P 5.596898780279487 4.068121659670173 5.834335511418061 -0.22478357897142576 1.294804466699783 -0.7456561693274835
P 5.477045529378552 8.596197134453412 10.346431800731711 0.3782617255296453 0.42630947296649163 -0.37036663905228473
P 0.3031355939830754 0.8730661156510641 2.021059957870901 -0.050525776663693636 0.1262095406502536 -0.39947846881657656
P 3.0172225225046776 7.862588536318823 3.1475391821664203 -0.41858073686366626 0.10641230341866834 -0.42987713571309194
P 3.3603182480044542 4.645588755928199 9.103304148113038 -2.43381473711366 -0.3655033974227125 -1.2917327697529948
P 2.0559535868719694 4.357136004169903 2.1957789476340834 -0.08651145072968328 -0.41977861382650933 -0.34514745947417974
P 5.874288155031543 2.7912750428679303 10.892643452965256 2.2659906062464135 1.2095729111237878 0.773931619233409
Ni 1.1954156692943845 9.34204845435125 5.525174027319404 1.6028673626168395 0.3101884269004916 0.07127226518242565
Ni 6.976891263925016 1.4213163495360122 9.172497989785061 -1.8606929596448984 -1.4040149016888788 0.052651821867760934
Ni 0.1578375119556916 0.2287582513076219 7.81121590430829 -1.4436895945706816 -0.155032635529533 -1.6313739546969646
Ni 8.296924362543496 1.5740602153269019 0.49465088665463197 -0.475243222552717 -1.6777363440115882 -0.7276029113701986
Ni 2.0308784709669636 6.727291369994894 5.720510022608513 0.2635802401236493 0.9936115584296822 0.11375820226077826
Ni 0.714737210046618 8.294266156900711 2.9568335190304302 -0.4414105902739881 0.12377522017714812 0.3355510740349963
Ni 5.117729133530371 8.237442331346664 1.5953735958522057 -0.9650383747776801 -0.034359965537108565 0.35054677611288015
Ni 4.858600882753928 7.306480683993318 11.902913227263841 1.4818414230500543 0.24060486227439853 -0.00405745789882527
Ni 5.4686777975311935 8.516806640572762 7.927507721240634 -0.15602559557042162 1.2937140618490819 0.588746628490212
Ni 8.434664342259088 8.89946657470653 5.0892947570436915 -0.6652603445772349 -1.0304737215633544 0.6335840965198766
Ni 3.910819532794648 5.592415398227042 2.5484900768551046 -0.34796487431831685 -0.01946350804125035 0.26602741611256114
Ni 0.46093473043476907 3.0947878399756683 1.1143010856975337 0.5026493824798117 0.29436174428088013 1.3318059836247969
Ni 1.6787504622091312 6.129803492504764 3.483249963116346 -0.4922729243414941 -0.41462560887066013 -0.4468055360373143
Ni 3.93626904386061 3.073971469026533 0.2001591409501206 -1.2627795770537544 -1.3544018666474416 -0.7141059053250282
Ni 0.3611303404030112 0.012634900694351492 12.146154955373035 -0.5006560061988669 1.9049727553988804 -2.190641599891453
Ni 7.874569181469404 8.174244428177348 1.2970995230341398 -0.9985727590896996 1.0386683415590048 1.2816278201085087
Ni 3.9304191194706775 2.860510068007658 10.14372583669919 0.034299801723134474 -0.47534735223074903 -1.742325283636567
Ni 1.480817100490892 5.533644717836026 8.071527243793353 -0.7527938088135293 -0.9458911124252678 -0.5641661109373703
Ni 7.508363914659639 3.701139522901425 9.779095837529146 0.2621843882173872 -1.6349809553219325 -1.4355487106311018
Ni 2.9370645185440685 3.955896710173711 4.322978997648015 0.571701500082467 -0.041836990640444084 -0.6014769315726868
Ni 7.060362665060084 5.467704370112709 10.921466264431428 -1.7701124810521645 2.0392411617978685 0.14169092411530437
Ni 8.69970803657863 4.860660056139184 12.288269742544392 1.0498894070858047 -1.3089841006342746 -0.26762304273445525
Ni 5.707317273124338 9.203653283103987 13.161643798215342 0.6829662464974302 -1.3728970972381516 1.8490697735836734
Ni 8.822013575783824 7.243039423969379 11.438485389977357 -0.29723135251919136 -1.1347378682907683 -0.8746787539465001
P 7.58838152043489 3.376847794360647 2.6315337315187795 -0.784072821432469 -0.06860603120417216 -1.2709155758973274
P 1.4851413645999303 7.416234625427473 12.158867543063284 0.46232497182915216 -1.3387718734196685 -0.2984045468916861
P 7.827067795423154 8.512650854286154 12.89694922738339 -0.24101058235324946 -0.37296448168644797 0.31194500458028207
P 2.380526111783464 2.279514297357624 5.670604083641025 -0.24626206056017588 -0.17710787016201757 0.9440879977782578
P 1.7863890709838866 0.07935586232826154 9.115153754957285 2.1934759840164544 2.4263590521665632 0.31357611242580186
P 6.718324605890007 5.855446718556449 8.647437792169706 0.22661497575320969 0.059153884652336834 0.6517731087240775
P 7.56291328961088 7.602177982116106 3.4950181390130854 -0.9685355892976611 0.39502866057533903 -0.7312788175598889
P 4.933788790952851 1.70671778073252 8.351057222878174 -1.02751798136914 -0.5780420975885142 1.4952877783629472
