# total energy = -340864.40115268703 ev
CRYSTAL
PRIMVEC
9.34166151208869 0.00000000000000 0.00000000000000

0.00000000000000 9.34166151208869 0.00000000000000

0.00000000000000 0.00000000000000 13.67246589255889

PRIMCOORD
 96 1
Ni 8.717769359748582 3.179397148470759 3.8955588176916214 0.015111144609825588 -0.298888171396324 0.8367061313574686
Ni 8.113102289689833 0.08912412220206871 0.9460674337710085 -1.0069733244485692 -0.14099801181333782 -0.1653263041460572
Ni 1.8164393838458415 7.599245511746412 4.8878926987169855 2.0438876594309443 -0.579775278229537 0.6425215082188225
Ni 6.253411012778053 7.478056136207664 9.162220394730447 -0.8642107645356407 -1.0749535491432842 2.077077773029668
Ni 3.4359191751642038 2.3420199470587537 6.03186790366476 -1.257244763278454 -0.3267620149884566 -0.9202379306335378
Ni 8.310192665479283 7.881102124615846 8.284270488790584 2.081254530115177 -1.4082711058620714 0.44069016716819587
Ni 0.4369907840526085 0.9634055576436609 9.639567156762505 -0.8146452949026874 0.7426711185572307 0.17738349242090742
Ni 6.082243747843458 3.420804366745049 12.01205399886343 0.3177716385643882 0.8256066790101975 -0.674262290965529
Ni 8.419704964056384 4.151070076603266 10.920431333682423 0.11046050534611299 -0.16796888397522686 -0.8949220775765684
Ni 2.963445957972858 5.03344606179467 9.959693754582958 0.028562385018725 -0.07430950934685267 -0.31313002602731876
Ni 1.9270726818112625 5.243157022364268 4.003953853545034 0.6844556865587632 -0.7454358257865613 0.2301751823006423
Ni 3.339345077860605 4.642142541979121 12.485312849792756 -0.41768984961828065 -2.1232110770526207 -0.7013234088483792
Ni 6.701670643181729 0.6070295762696302 3.230611873858382 1.442775567396844 0.007926711046244412 -1.2450554203011137
Ni 7.785723759993118 8.937223673334977 10.605281038979944 0.6927420949372713 -0.024332920318409706 0.19264890322041014
Ni 0.7381706238781728 6.3200731097367 2.1877452087399543 -0.16249500534484917 0.6489811478012371 -0.3664158819346528
Ni 0.5717900263316957 6.315617137168135 11.282203992945046 -0.24328318043751007 -1.4184737574266861 -3.0205494773801655
Ni 8.766056408400381 3.7986091855929356 13.135097342732834 -0.6043869061306301 -1.0719183618613861 0.2179012500292957
Ni 8.623399894575343 5.750044920776977 9.026452422146622 0.2610782996374019 0.05943310645565249 0.3553344273095106
Ni 5.337535829199077 3.9988196763465376 6.2482759014133995 0.6261983455787667 0.33510524474682934 0.16721503652833783
Ni 3.72838791557638 9.174828835350555 6.3560282309508445 -0.7229805821068388 1.157977298434683 0.4867563653986391
Ni 5.149282665254201 8.968387456330218 0.3918621511773951 -0.28306817364493186 1.0582452352496678 -2.2035225696191794
Ni 0.3200873628418619 6.540966039204768 6.663536112323463 0.10715869466638965 -0.4523951143099499 -0.19859946437689022
Ni 5.2281543138839455 8.453064037520416 4.886211199634509 0.3363548008832143 0.6479437076756582 -2.999082308645325
Ni 6.163675011743194 3.6135602115663352 3.396842070653594 0.7256139059646277 -0.6378685828278434 0.5066960417453595
P 6.977912917448002 7.552200904083333 0.35346698796134535 -0.8725236552767102 3.9813406468457173 -0.22636712140846174
P 2.4739522334022177 2.5160644437566986 0.7365713314175057 -0.7108408614205113 -1.878744674940287 -2.43342752897757
P 3.1758006087665724 7.173527310709499 6.948510971824733 -0.8815991352154171 -1.9773732206484784 -0.2808572820365421
P 4.051786897444565 3.6717961297894575 4.189736148004825 -0.4841580085438436 -0.11226593398596794 1.4871029285593098
P 9.017001463136944 1.8224554138964817 12.235271133729945 -0.7991083756093528 -0.9106137772802124 -0.4841934897674693
P 7.2562477239058 6.534819225892158 10.880972155213628 0.6598276035974378 -0.7010048491666959 -0.7114877509758908
P 0.735639033592888 8.264642723667293 10.491047464645709 -0.41224502445362554 0.0003956927765218992 -0.13514078170161242
P 5.72456086801588 1.9739304562429565 1.1681663717476767 2.1422434110937236 -1.089663344549633 1.8488190910254483
Ni 1.5801513961115377 6.5670199333215935 8.734969227030009 0.6789550684555081 1.4912331486775994 0.5177304451826502
Ni 4.983384097444701 1.4407364388510508 4.230261210058679 -1.4356775228994825 1.855145033243476 1.98604658005276
Ni 4.238993795293677 1.9458120549193125 10.749293027898693 1.728114539353824 1.1878478607418703 -2.181236247417153
Ni 2.663989654706833 5.247089861884951 0.8683233236926817 -0.09002434897894819 2.007252267596098 0.9369799259785669
Ni 3.9687395260933367 0.49808057988515697 2.377614480136322 0.15849642570841735 0.42398828103248276 -1.0371189947940138
Ni 7.326758585431006 6.260183717415808 1.887730274112084 0.3304574615621728 -1.4225186169200212 1.548704760531507
Ni 7.165110473635544 5.840098538305193 12.96021209649365 1.1090530619301544 -1.7190801970656975 -1.4647171046649419
Ni 4.621534836557208 5.358928234192813 2.89354510694813 0.6258286209441738 2.384465754366887 0.9275038681673317
Ni 7.456037839888784 7.802987150573216 5.3363774631644825 1.1301258234400537 -0.723371132677038 -0.2868196702675641
Ni 1.3822576374271265 2.3384234073545667 7.527512760887942 0.16669567368975807 -3.222005951589877 -1.2003999863752681
Ni 5.760161940256547 8.098155631178926 11.781167359848503 0.16613131654585583 -0.7935308815215752 0.03627698005416333
Ni 2.7406379878830793 8.209526920408322 0.5515092790647086 -0.3038123481708187 -0.7704596015244086 0.3837070649149327
Ni 8.986603696390386 5.881192507548618 4.393250784455494 -0.9873558073279576 -0.04261269246420404 -0.03551001998115175
Ni 6.677625206302307 0.9931120414340888 12.723952133744055 0.7273391161858506 0.9838876462736991 -0.41207584586561286
Ni 1.6815551324464735 8.952964373079276 7.828170401831781 -1.168838409518903 0.2746439541369786 -0.576040236667137
Ni 5.268902641649306 1.839382504660084 7.269322313438217 0.8913251042539294 -0.7952846309878885 1.2264095230651522
Ni 5.542491884029892 8.117296695734456 2.334559696129497 0.7568713213170126 -2.370649674419401 2.02886676054208
Ni 7.161551300577635 6.099628580023957 7.025678701384233 -0.48134984967108707 -0.6160807975287906 0.2610633872390665
Ni 0.7481746092527544 5.644708344921359 13.331474949744546 0.11180673496136229 -0.4691391665375082 1.7284048169007329
Ni 4.964046857996214 5.704224070779477 11.174328353474888 2.5677499285429453 -0.10727156609517009 -0.37583280437317856
Ni 6.728275695331144 2.3348175259888104 9.72605879873434 -0.7756339466364965 -1.826884752846202 1.116946091524986
Ni 2.5102072219527365 0.03956941007531289 10.250739759938126 1.1147969063924672 1.1244426570123474 0.3028821230470655
Ni 5.790587731987812 7.921915844012191 7.0423731847747595 -0.4423685833118833 1.0975260351271614 -0.1255639366464547
Ni 3.313160400481809 7.25434202494566 10.888506205269282 -1.058917321616028 0.6661710293169624 -1.1629665241191582
P 2.949909890358918 6.757393654442705 2.598766173629862 -0.40363002909110485 0.10902557267179934 -0.010979124719323026
P 1.3922718986294345 4.131050895860219 11.302015788801256 -0.05852859236351211 0.05556385330823334 0.27982704099981487
P 4.898412343810194 3.887924811857175 9.87663423907169 -0.6889512604362715 0.20864990663435676 0.6521168652167415
P 8.819995162301618 1.034467577201455 3.149889642071758 0.5522703879410489 0.44392075829035155 -0.03231619563420241
P 5.902454129280383 0.23772099861903706 9.583715230571872 -0.2665110406171991 0.34523153454755384 -0.24113682351846857
P 3.1822930635572475 1.3410142015985922 8.05848346282635 0.6858070583803351 -0.5603868464005961 0.7553451144804734
P 4.3195095763596205 0.3931961404494935 12.018658553592937 -0.5192844199333315 -1.545263853170758 1.37492544052209
P 0.5903164095559652 8.503574401625713 1.310666879824509 1.0810483491871126 -1.5049175881432273 0.3911990024166037
Ni 1.1423731099886356 0.661686703945547 5.075643281269433 -0.6614258013224932 0.040943275181581106 1.0346476504353859
Ni 8.282662788834505 4.037746380105881 7.08675355055827 0.2705749262739276 2.0770469197917327 0.47057075677771215
Ni 1.1324429237404516 0.8312042314470006 13.522793112850314 -0.8421036482239562 0.13313249302233202 1.0981760100063345
Ni 7.705506912097394 0.6216305933024726 8.089929364000986 -1.9172328037131563 2.5608475449961574 1.4740414673896616
Ni 6.730723210662305 0.6159760855545651 5.838949513932167 0.6271234284961974 1.2988205298377116 -0.096216336722273
Ni 2.2092842778203288 1.8858759542905748 11.890684329256391 -0.18386190105639946 1.2312753357978858 0.37633005572457123
Ni 8.760264578227405 2.005944330441006 6.436504777038195 -0.044220146160639975 -1.8842010700691678 -1.9022689833144724
Ni 3.8827775563324813 8.275824692565765 8.596740660788825 1.1212979407357786 0.24969808282491837 1.3623478609673958
Ni 0.4418615263948504 7.944989748088403 12.83412488779411 -0.3431301719338349 1.170375929209352 0.42599502704986636
Ni 4.81585073886057 6.345566504159366 5.483698268611082 0.44767096936140327 -1.3550644399321048 0.05520904107197589
Ni 1.9403284995781234 2.6160202225483906 3.966533025630664 0.8509299882663345 0.596088927787896 0.7755449864671159
Ni 9.298839392683238 8.284325604593844 3.891238299215812 -1.327398084365088 0.5569461961501634 -1.735382790880463
Ni 4.460335124517074 2.2676416376438517 13.296951905248976 -1.9839716998016026 -0.016843039699267766 -0.6549707897257687
Ni 2.268295553953704 2.7660940156594678 9.661046439208835 0.2750918403076746 -0.8908844171720851 0.34652042856230647
Ni 5.179381498830541 6.210523444513319 0.5149777773317376 -1.3053009953557329 2.0662747688768928 0.2596055717466174
Ni 3.225021823575303 4.727525328722678 6.163383551902231 -2.1173921563779983 0.97653172012926 0.0031321178710784765
Ni 1.2073910745110819 4.280498797646152 8.236471074872703 -1.0342373023708447 3.6395394781359514 1.332496324823602
Ni 5.834764449549113 4.211305110402222 0.8795305150773913 1.0472146884671192 -2.4977889259727757 0.25769549920809814
Ni 6.7004562271777175 4.471292893537883 9.0055065485759 0.10201211746844367 1.4048574521948323 -0.8518761542296879
Ni 1.6331279588711343 0.9199761730079061 2.1814012863682315 -0.4971377086329632 -0.07019523006816297 0.9437830649433295
Ni 3.5181351386357624 3.623032656397623 2.0763963394983236 1.1166316456083607 -2.2055059185977948 0.7537893399575792
Ni 4.717249500996429 5.700702264367845 8.01653566571549 -0.27971288401945377 0.2536341846545309 0.22042015979640744
Ni 0.9757458925767286 3.3789163562682316 1.9953873187015208 -0.21886438527351337 0.7465925650988239 -0.5202408703093299
Ni 7.984290118310521 2.4996604860409777 1.5386856287376534 -1.0732825891987643 0.16719215371020238 0.23135608998262092
P 8.647809656255967 2.7027482085579293 8.861070448221906 0.2584128369900969 0.623607702033455 -0.39554210987664784
P 3.0970317184140916 0.19190108278769422 4.340119150113847 0.20914381555163983 0.20840925137846042 -1.0239834858533203
P 7.018343628720006 3.0543963750117284 5.547411203012294 0.8936871767282029 -1.4622329047905076 -1.0839650086132753
P 8.968985322670655 9.045278672707267 6.656467277013961 0.7448683833188656 -0.11501341482411806 -2.243257426314956
P 1.0669298511548315 4.112180739490198 6.108037009602499 -0.554980073562728 0.32000849831470696 -1.6324437907223757
P 6.49226795744392 6.341390781437881 3.9157807124907213 -0.14232135861045167 0.6029386037198777 0.5471297242803739
P 3.673365528933103 6.691478890409604 12.821286642299397 -0.671472644035534 0.6536690401952097 0.9083928583694936
P 8.704588275274277 4.655846759501309 1.4159614182030655 -0.4066459330992932 0.4993632555293723 0.25761399523788536
