# total energy = -340864.3209698546 ev
CRYSTAL
PRIMVEC
9.26822825906501 0.00000000000000 0.00000000000000
0.00000000000000 9.26822825906501 0.00000000000000
0.00000000000000 0.00000000000000 13.56498890401067
PRIMCOORD
 96 1
Ni 7.272343043995895 1.0750495909685118 0.8374817322141009 1.0156006611062638 -0.9225051294011597 -0.45072775390985603
Ni 8.03351481951227 0.6160526391848069 9.818243763889765 1.658235554974499 -0.24718791480855498 3.189679214432713
Ni 2.397718434149707 2.793657141883577 8.415963621134093 -0.04760500347247285 0.854942194749521 -0.40721671800109865
Ni 2.7201878971221913 3.722722870831579 0.2592592199805427 0.3137735731485886 -0.32917525241563955 0.033498645978077786
Ni 4.219490632906198 7.722018938701698 7.695661951411118 -0.7384354832093283 1.6831798836246625 -0.19803305035045896
Ni 8.129153666073735 5.173515700335644 0.8569014507139788 0.209622040739639 0.0008507780360695026 -1.315763071229321
Ni 5.6728971027562585 9.130928645072585 2.0085677767328844 0.23781495823408721 -0.3464363534889324 -0.3146006970355743
Ni 2.5933521945159645 3.3641073179676595 2.7455133306166393 -0.18315870434178777 0.3045029464799401 -0.10101632921407763
Ni 8.994732032007294 2.82423302664046 0.27990790553672923 0.21637581452370477 1.238513505417538 -0.26949223473271006
Ni 6.009407931417339 6.475562735822367 1.1625416649621385 -0.29721335479706235 4.503067614782271 0.9165928776817828
Ni 8.074128195385159 2.4784910427147975 6.002846952690636 0.4287803031044874 0.5617227916032003 -0.31480047175120623
Ni 3.97664451820482 3.642450746588062 6.349743757847189 -0.4157592082544711 1.0688024419402238 1.6152042869156378
Ni 0.41991190673725126 5.6132189815226825 3.307578540668726 1.4179983604521644 0.73516786820165 -0.01241302895237217
Ni 2.959224770042703 7.4660490129012755 1.2005515955400268 1.5530946620690864 -0.8502337335302582 -2.3800010337273143
Ni 5.911600319462389 2.6444942775982563 5.652625634086888 -0.42076643166107536 -0.9952493511434215 1.1834929262072844
Ni 5.075772965977933 7.074447835954378 11.069613981348695 -0.9441833857055417 0.7706508915996083 -1.8313700423110653
Ni 8.20892530599568 7.048246554897176 5.490307446726721 -1.0728282752701654 -0.4464684644128698 -2.0168771922803717
Ni 7.0192462689304325 3.205527933854211 12.44811555789271 1.5882133601490906 1.355076781227279 -0.9004566342415524
Ni 5.688022851141598 4.528224581719937 0.5076857348674677 -1.6246435779516664 -2.777224902181759 -1.580002285093208
Ni 4.180971876601377 5.847260279455635 12.694021114715412 -1.0759138561740245 -0.5091450175064843 1.2753245035983003
Ni 6.629128008491901 8.149719864399145 7.023150973461525 0.42101839977088135 1.7180106181506025 -0.9279070171430213
Ni 5.383895211731972 1.803328424683682 12.999925473466623 -0.7874869893203404 0.22241070786387504 2.1897627968309257
Ni 3.171291098967298 0.8886238152963927 12.378269263525826 -0.8531555351627436 -1.0773274486920994 0.703224482525834
Ni 1.9260304975228373 6.645375212486692 11.405197987192047 1.0581292784970937 0.9029788864427738 -0.692643364575878
P 8.474988332281171 1.287319820913007 12.151814937178806 -0.45176262293227354 -0.31518228057065717 -0.2229696656911386
P 0.506226915752362 4.745536727792879 8.893939123756438 -0.7874242544032052 -1.8884912128040894 -0.18338213320650354
P 7.114004633815055 7.3543112539958555 10.771971321194721 0.265856951972968 1.0537483758205788 -0.8201729095891359
P 6.661029249878136 8.897619537165639 4.919763661538048 0.0989879859301392 1.3046949863406176 0.30558358113862855
P 1.6943989389159813 8.218304752911097 13.065512090163223 0.9874424535044929 0.2847543030981031 -1.4143329957854351
P 0.9591689340678429 7.86224723102411 3.4186758650070956 0.3989423938074484 1.1070769120403903 2.530775151090809
P 7.463861711051434 1.3333736467259658 8.07997181325094 -2.0602930973721616 1.0543623552554937 -2.462681540746681
P 4.334963487767066 3.925113169539082 4.217775083870581 -1.6192339769003208 0.3113479944262315 0.5626108506351085
Ni 6.3403763596284 4.571266233375277 4.396385889543609 2.212923808328421 0.5712602987799904 -0.7123827519863345
Ni 5.631644219139137 0.15003500455680402 9.171804311802891 0.3478070085842139 -0.19349428193984095 0.06630052299944711
Ni 5.614831653225531 2.5008552773066004 3.452832066308866 0.233897625457552 -2.001755763257901 -2.7141215459633705
Ni 8.67725814402237 0.19708609172163938 5.7345308201352445 -0.3793721849850047 -0.3586285246797501 0.6265881248180177
Ni 0.9436817247835897 0.8669157712595417 4.043261761874734 0.39563518381108637 -0.13886605307199956 -0.4724450909822896
Ni 1.381475750966106 6.558717279029021 8.324521428291305 -0.1315083271553477 0.8764397025016648 1.4543270196798694
Ni 2.082682090175409 4.35585407407868 10.651107138003121 -1.6021137722802667 -0.07617253069752043 -0.04751964284751816
Ni 6.793564912813396 5.083456327136908 10.260950877829062 -0.6746937220759929 -0.5100497887089409 0.23109203768795683
Ni 4.745138193981255 2.3384481149559306 8.376624626635582 1.2198562953276668 0.9646953896159643 -0.9206475073671305
Ni 8.96282152239288 7.276856671118234 12.203999695931042 -0.9752559387406301 1.532565431767483 4.83331938809154
Ni 2.4245036135820777 0.32790157150719507 2.204283097507102 -1.155231874479062 0.15281557327355616 -0.5629594922237788
Ni 3.106061309055524 5.813394173695813 7.0816974440346545 0.3889739697408269 -1.071963613277025 -0.29669913416480515
Ni 3.0943277321830736 7.01717018581872 3.358271114684419 -0.11654553519792832 -0.35942890909385844 1.9445762287231156
Ni 8.213559420084325 3.7693049856506438 2.7827892175228857 -0.9851156051435291 -0.9099265214052006 -0.6034425399394897
Ni 3.927513640637 2.524415113333274 10.679295527181536 -2.072215302731044 0.26601533192770316 -0.37595467466302346
Ni 7.692870361084118 3.880959330502468 7.872631353873947 -1.4752030917979304 -3.0838657209403078 1.6017671875741253
Ni 1.1067005901939606 5.669523467699726 13.473072229208599 0.11858827665956996 0.11655633383120573 -0.6167140602374154
Ni 4.565723832925256 0.6921123537217453 6.129543631874204 1.3251000323595308 -1.9279617600948862 1.0948885975043143
Ni 8.136772149635469 5.887808777731283 7.572397297121601 0.7402681655426929 2.1020475556011284 -0.6847508492016788
Ni 4.122294724010947 4.532469430225136 9.697718797849456 2.9848263129469434 -0.10772845112693061 -0.8613270152299425
Ni 6.500383050881152 2.638785049041045 10.091470203733486 -0.13704159826875106 -0.9535537711768483 -0.4183557653370537
Ni 2.5121625156828955 4.961514249008291 4.6999157282357995 -0.04370078332206022 -0.3216403774911751 0.1341529638670464
Ni 4.116576227225559 9.326803379371453 3.6740637460779837 0.4294130515924798 -0.33136069010273256 1.2302990879275455
Ni 1.3576934774631775 9.210412969921032 8.588930075847152 -0.2736062569010836 -1.0915585046898169 0.6849817342655623
P 1.7560697292076755 2.632807041866692 6.179191676574315 -0.49100485626234797 0.046373959278849165 0.6931665840691998
P 8.017147128551175 7.519554494168776 1.126733865399175 -1.803507254462526 -0.26016530090482937 -0.9943890600256552
P 0.2614641314639202 7.775746857445454 6.9913275851919785 -1.2494774606282093 2.442827739245548 1.4170143992723405
P 0.8328290816691009 2.2056992827725925 2.037583818687529 0.2710408101667526 -0.43599147614094586 1.2315098204061952
P 8.824521021531346 4.767437550975817 12.145589468312119 -0.8241293231337226 -0.017382714252821674 1.5213315107248768
P 3.2435740105219897 6.349459223242145 9.518702043782262 -0.17381608678462324 2.3981504509428313 0.20396381401259708
P 4.8062621588104895 8.08052327282749 13.902214364387612 0.2756798516006607 0.1251564167953909 -0.8970059566887906
P 3.5565342713845745 0.6254784272411118 8.090647885288362 -0.976037554101661 -0.637699918460463 0.9717150154669072
Ni 0.486377151465058 3.3655809662478484 4.487176525945534 1.1455717256814788 -0.5083312633559375 0.05596263140854878
Ni 0.7578342865497334 4.650657875941952 6.632641593793911 0.5560344829691715 -0.6385545531512744 0.3664976430151817
Ni 0.2323183343147933 1.9592849002229573 7.7454184343809045 0.9230643443387393 -0.0010778064452110468 0.5631471827545528
Ni 0.9114560954111489 8.92392276873279 11.156091184356908 -0.7498336977439409 -0.5728124737584587 0.2214185191539348
Ni 8.01925101634742 8.443902694974536 3.158607528706675 0.6137698900074269 0.5145530758959332 -0.19555733511645676
Ni 3.2858463992386144 1.9632980430237241 4.9175114820909664 -0.8763795386876907 0.5404643964450563 -2.419859046264516
Ni 7.856667757661381 1.5264493761152915 3.7498648770487755 -0.3583675577088796 -0.1521321740532864 0.09306210736400747
Ni 5.797054287419249 7.308600352625456 3.8645972004782783 -1.3330979629633428 0.6221002642499932 -0.2311149205060923
Ni 5.073548591215384 5.973020867593295 5.622294430553886 -1.0527204487766966 0.781797138024415 1.5486955045601263
Ni 4.891335225249843 5.297014840798047 2.60789589817177 -1.8287909687299795 -0.6291692552816326 1.0255968530870272
Ni 0.41386438785156887 0.6088632745876823 0.4613408866897418 0.378784945022967 0.4968109214211637 -0.8693501426447351
Ni 6.693106587599741 6.289808906693101 12.661641632755227 1.032812654109176 -1.5282056121368908 -1.3269815656529595
Ni 4.057194689293656 1.8245341307533238 1.513323711370612 0.5650981358333365 0.20526093555746586 0.21664629457627205
Ni 8.884523530751128 6.175346288703557 10.476864448270051 1.9947322807522163 -4.040773239080738 -2.3261649617434648
Ni 1.9970158571327088 0.10698223102765198 6.370918878763845 -0.3600621718024831 0.9580339184353888 -0.6412421272857667
Ni 8.454792863082854 7.666344692040711 9.002187394753108 -0.7262235145241686 2.573435666073813 -1.0246900250020419
Ni 7.4293375610910255 6.180295522550231 2.8635961185322327 0.9939211192503011 -1.224693054594678 0.9231427629851585
Ni 1.5874343175218661 1.4612751955725813 10.283319746534955 0.3099539422921823 2.6712070059880317 -0.2539812835813045
Ni 8.937778769857841 3.406843118093148 10.472863354165915 0.13084652520163273 -0.747214772063855 -0.16672652692769352
Ni 0.771735701992852 7.871635946167706 1.379125328300345 -1.4547569081284366 -1.544150051281289 0.18327826063878758
Ni 6.043431597056175 6.590813153206979 8.469843538819957 0.0990607481496036 -0.1554308994092162 2.0950603256500178
Ni 3.355626889185438 8.63237211495975 10.183318344970438 -0.15444488134686304 0.2038260028831522 -0.3344766100238949
Ni 6.582508820760127 8.660473382793295 12.619929971843328 -0.06538880981845514 1.1935901625422864 -0.1873881690421031
Ni 1.4263710482569036 6.936193676233729 5.531897693849496 0.9660999832729749 -0.21071064581812743 -1.602238213673273
P 4.837801939297811 3.8774281355669196 12.010048118978963 1.087159861401489 1.0989221441437396 0.43338026377034394
P 3.382430605074164 7.9978321410297 5.541908307103788 1.7393178642688112 -1.0983457028149795 -1.00882683271754
P 5.435269000518696 4.718973985836763 7.866174179302829 -0.1806783611220953 -1.4743271169508803 -0.9047717166771386
P 5.061981842450125 0.9577508951567173 11.211978600265972 1.4189789791978789 -3.759942696517073 -1.891868613916755
P 6.598070175869799 2.917527011473071 1.3687476932102323 0.5147019427689716 -0.00745131407172265 1.4010833298643806
P 2.1778667935561877 5.358852459196932 1.6751404875863882 0.7460107244534249 -0.3666048580170073 1.7716741691123294
P 8.294786171830102 4.844234089652851 5.234268009214969 0.3131138280774027 -0.39516235793972593 -0.1401310358273522
P 1.9946061178066132 2.6799452503763943 12.032213086664953 -0.28274524308787435 0.05814292688931923 0.1755559522938654
