# total energy = -340859.2075242878 ev
CRYSTAL
PRIMVEC
9.34119597134788 0.00000000000000 0.00000000000000
0.00000000000000 9.34119597134788 0.00000000000000
0.00000000000000 0.00000000000000 13.67178452662916
PRIMCOORD
 96 1
Ni 6.4685539674598 5.813119616405346 3.0532651579472843 1.3374657530137353 -0.3396630393208408 -0.276558140440556
Ni 2.6207285550613335 4.478542959119054 1.2209372727650434 0.2006162376966029 -0.7801961120858822 -0.9462222705124415
Ni 6.215248758419188 0.7907864113102597 2.72488195515286 -0.9504715327070986 1.1600177259034796 0.032363246822053944
Ni 2.5979920842568616 1.1566548991052035 3.3225858473470864 -0.18606225114182792 -0.42950561130628606 0.7471003579731779
Ni 6.964468716243114 1.810996330240133 13.33533525940878 1.6050466296563453 -1.85027073587031 0.9174775942795811
Ni 9.097390680556583 0.24928569244769416 8.613552229824222 0.7367310989237119 -0.3460445173671524 0.4682045705383807
Ni 3.720093899752476 4.787605766447215 12.520319654190288 2.4597258005524667 0.4134125623991654 0.35156827539885904
Ni 4.115301215609327 5.925363426260123 4.637537586180989 0.6785076965054444 1.1717455558633691 -0.013922523618363119
Ni -0.14703415984005835 6.428330777942933 8.66464390076303 -0.10457165066550378 1.6503304411948094 3.0969518647003054
Ni 6.332163166220652 3.1754554731893263 2.239123888664412 3.2831611829429583 -0.2940331572968678 1.4890083731121388
Ni 4.248842952100997 5.6574766104299545 7.0959292342897395 0.5976081926458998 -1.43026637918624 0.22137121085576714
Ni 8.451886020736783 9.256966330003083 13.538977066362683 -3.5619764948488073 -3.765409376058599 0.32938094066854245
Ni 7.295091003693179 5.545382259709471 0.49595211356688634 1.4424719201134963 -1.039786257213532 -0.36466933155719133
Ni 2.6440535212070873 4.626386066523479 8.48745729469875 0.41218563197059976 -1.7239524375563342 0.3911092709162748
Ni 4.127631594188581 2.730272759302926 2.736038145408316 -1.0191698665147608 -2.155056760808308 -0.38060425761989286
Ni 8.801302794324318 4.916149963135929 7.196431160906546 0.3351384119776099 -1.9460399577528353 -1.5521423254581463
Ni 7.679761450582306 4.785223761494405 11.963180839282625 0.07447637394202011 -0.4386199149027285 -0.9550761213586454
Ni 2.6269497915263202 6.967626040455073 8.807651071053455 0.8355599335681673 -0.7955237435818879 1.0802245677342361
Ni 1.4666611672185943 1.2297404157749585 9.774957127041207 0.9836570183201319 2.206001113066659 0.41597518092001906
Ni 9.000802715019098 6.650669922597013 3.1743009013769052 -0.9992944677470725 -1.449424954392562 0.751399499569164
Ni 7.180502553669165 1.7800022422659194 4.7544174315576475 0.5830390365824732 0.597664499805132 -0.17006433305167487
Ni 5.824684016921342 7.388297456317262 8.108557838632551 0.5906433312922924 -2.566484431566961 1.3344027978176953
Ni 4.095367103572868 7.253662799906067 12.914763794342651 0.07358651513789909 -0.0633416974814393 -0.24665338246132362
Ni 5.195610520677989 7.748241757676628 2.89397534909512 -1.2763799414460082 0.9121086166581841 1.2521434374961469
P 1.8956369062299916 8.824515666119352 8.376565155889743 -0.05039387907151966 2.2734437200903495 -0.1034388226126412
P 7.7902024096296625 7.953486513845833 9.54312452500069 0.0460451151845207 0.4023300793327587 0.268064501147248
P 0.5258682275350047 1.606536234525971 3.911005524942889 0.018639212367742092 -1.101028648963781 0.0856159354986074
P 7.137103357548551 8.425478459946216 2.064425777186128 0.3300252591207607 -1.2292855590613667 -0.5917705029182001
P 5.229677862101122 4.169648293316976 3.704684663006767 0.06854355339735292 1.2947736134618475 2.885265742342786
P 8.658784168579116 2.328012840546577 10.111296226378016 0.13028036828551756 -0.4408228360913182 0.4375989298373818
P 3.5368196363244855 6.650819381731306 1.2649819455218896 1.4760279016920708 0.5226733910102225 0.07851891944250994
P 5.214573148341537 9.169411300894492 8.704031987367028 -1.529211684803902 2.6458921813723273 0.8821413808721325
Ni 1.2988092182105633 2.6049699575892116 7.458067782564458 -0.5438844778701988 0.1055052182233667 1.9446952707994831
Ni 7.429529494990613 5.4294486774768105 5.296941011370538 -0.45191046136404756 -0.3147109973611935 -0.48711657695153526
Ni 0.7328121472372149 0.5635356658554446 12.195122733315094 1.2323906803492517 2.7847975723226943 -1.1204060250491286
Ni 5.9731716668424095 7.161362443283642 0.7295810275776969 -1.3730174248660998 1.7949783910559087 -0.18652145016643362
Ni 0.7175953391269092 4.0193951573720605 9.546514444990397 -1.4318182970543922 0.4060563791444104 0.11297273024500544
Ni 0.928240240642074 5.845262671474444 13.137518622213983 0.3236494375014039 -1.8614203247292262 -0.8812571784949661
Ni 5.889100903802047 3.5728486288852275 0.1260005890469489 -0.5987718739366978 2.396086112214635 -2.8933480051302882
Ni 1.1531332682534017 3.855765428907835 2.7629174365914984 -2.3661481870046215 -0.08269130565264468 -0.08454609947319632
Ni 3.4749155311390987 7.76965177866424 6.666854478601872 -1.473083474351766 1.2766375659827691 0.7570191597487865
Ni 1.8329761641772413 2.5533598502783224 5.341497581662341 1.8074562118079454 -0.6443073964746516 -1.5676134245105517
Ni 4.527341366466039 1.9761673560267656 5.126222249342831 -0.19962944830330134 -0.33003965729846385 0.38552663462217474
Ni 5.184298332451113 2.556115503066868 7.99658585757827 -1.2585688814065163 1.5324278777483544 -0.0012408143856365728
Ni 6.484985131036245 2.2028408155753705 11.190916151189747 1.3176111801816535 0.7414449594596134 -1.3816920698219624
Ni 5.685219962233274 9.199331151340969 12.591959153735749 0.6265133057160243 -0.00822830144706325 -0.5899789582354161
Ni 9.065565226147859 3.4773442420713754 4.815558361038547 -0.8965539567530366 0.45593140959798256 0.28613472838539755
Ni 9.210269691732108 0.13687934578437186 5.712973589352076 -1.5936589566446941 1.6739601647986073 -1.3969240562803684
Ni 0.5636468260865757 3.249521815427886 11.819106904421176 -1.0003560762423673 -0.3546924228501375 -0.5919196269015548
Ni 1.48113067965743 6.371442894952288 1.6820943657487024 -2.0565940512540193 0.20131043555015007 -0.3337320185483865
Ni 4.471976098406014 5.201999898669056 10.005914459026513 -0.8467676293585288 0.9942119110178426 -1.0133581449289901
Ni 1.6395947267926203 0.1157943984138489 1.5330994888906249 -1.1480695524026678 0.5097844508626963 -0.0517719903659689
Ni 2.522767433727524 6.277872135688364 11.427301652108692 -1.5062193376737867 1.156429751441905 -2.1864440168703374
Ni 4.406952033792239 2.224568437223357 12.257629345635602 -0.09444304687193411 0.42549726147784145 1.561081536929305
Ni 7.8094172495823315 7.226470578660456 12.112653985370443 -1.3255528036262332 0.0284651973192284 -1.6745780008882645
Ni 4.299304092317001 7.874058325164477 10.517676546642933 0.39766121310217967 -0.10513729336098668 -0.21517485223706814
P 8.610378091459655 1.7297185847718892 7.08961271762664 1.323411074692882 -0.2944499331193123 -1.2474059228111616
P 0.006428611013819735 1.5360662527063604 0.3064584819130875 1.7118628533816518 3.8840717004892134 1.7235246059902962
P 5.084973396516871 1.819842442751158 1.0685440688409567 2.196051715163431 -1.1832874950646977 -0.918166907037122
P 8.345835423759313 4.693502559017369 2.130132683219707 0.33703897143443245 -0.6466303881808734 1.0107191646442464
P 3.354096503454204 3.5088894606032985 6.7349807543718345 0.6330631910194001 -1.034773634490289 -0.09246124055521496
P 4.756013841935825 9.007537717258222 4.9378243399673245 -1.7581632791100883 1.8815924288017274 -1.084400553488797
P 8.94639959013609 7.247796528885029 0.17532583984231906 0.7253064020265381 -0.5810973394750703 1.9139988701568904
P 1.537131149038205 6.406705909449774 4.288742936239953 0.4044093304592906 1.5039331127427713 -2.2214465010874513
Ni 7.1679199628007915 1.6101979833161735 8.621509060486199 -0.37069316915376804 0.03311529449673006 2.39963552012879
Ni 1.6742038575775695 4.91338496915149 5.576693948344059 -0.11735311870088823 -2.2214153907392 0.8306936066148016
Ni 3.131150181067055 1.689140429811074 0.6702663018939531 -3.5388085413727763 2.9747768991307413 -1.0230049239901349
Ni 1.089715889333288 7.627226564877972 6.167957085969804 -1.4384594565199935 -2.3195217453953343 0.5276325347877107
Ni 2.96384002142084 4.246264782034426 3.8275933162130094 0.26816528839117043 -0.06012139077192872 0.47249702726614756
Ni 2.10161027567888 0.06972175202855146 5.655826021115596 2.5412210290144817 2.685707256486736 -1.5526984550719323
Ni 8.913434509828376 3.654294515879552 0.19390828083300723 -0.31571655580757235 0.33938947394448005 1.111105573583809
Ni 7.981341959999873 8.15665752452671 7.24649716853626 -0.9484642724690827 -0.8452537638171636 -0.4906009359557099
Ni 5.471932436399874 7.398255171139598 5.89443939725511 3.1039707192202997 -2.141232967551338 -0.8797857361557623
Ni 2.7526355822716626 3.2382096272010106 10.831976962508508 0.42922896060613175 0.14056298115844826 -0.9118813311387263
Ni 7.83452638414372 0.2720352409264163 11.097264123521551 0.5877068743717878 -0.47515631926586555 -0.5292309896230821
Ni 4.186630587451129 0.9813953817537273 10.2968226521359 -0.13938001659394061 -0.05672676326808295 -0.7942703307907611
Ni 2.5675117620567836 7.757508224002855 3.0351086754893344 1.5137328724420123 1.718309894558576 1.1914147521575222
Ni 4.119953131164228 9.152933431338582 0.8826654799978934 1.0996708493843061 -2.7378960226751494 1.0787729228893743
Ni 6.0699557974936535 0.6170280241388487 6.877440530582908 -0.1506843858631663 -1.0195647879603342 -1.777857929325538
Ni 7.339676531692252 4.136692554205154 9.058090401193981 -0.4260947858525242 -0.04795955859841417 0.5360575256266122
Ni 7.245620030241873 3.1950252785859443 6.6324695365183635 -1.2942269969297582 0.6804231683606025 -0.3444722877840261
Ni 3.5627134313409172 0.8790298865561924 7.416327582834508 -0.3576304224325389 0.028141238320906377 0.7228857084001873
Ni 8.60170012047471 2.4876258547766525 2.443257042522306 -0.44339676746608153 -1.0461366249115918 -0.6473490115144529
Ni 0.8873472873796523 8.48596270335581 10.518401423444258 -0.24916432180863538 -3.1440842994117335 -0.863247629291423
Ni 1.7998429423434448 8.30254832198942 13.304300070172635 0.7207249533034426 -2.120181546197678 -0.5546386310629092
Ni 4.790791114246855 4.755089063542381 1.6719769164765894 -0.6717639500237077 3.203387050937109 -0.7122652525718636
Ni 9.105302673478269 8.884233931465689 2.75345667339069 -0.27106857808089446 1.5830883802176994 0.622727870531663
Ni 6.925768141656866 8.831624316194208 4.631973035787306 -0.010178997415530857 0.442875861965605 -0.9826087795612755
P 2.237599405494614 3.4930374511722433 13.083186490419768 -0.3311226059499975 -1.6664378882796334 -0.05321772167355996
P 8.25628137872954 7.390623414094711 5.213187848990549 1.0930926819461564 -0.8689086842319422 0.09773945823501877
P 1.4368627523187325 5.902225284032237 7.314487062846181 -0.001114058999785178 0.07794684898912381 2.38013344554012
P 4.98504128284956 3.2056181947290296 10.147157077412679 -0.5662222221354506 -0.8930695977488621 -0.1359015711270369
P 5.50027362474037 6.233137148554999 11.47196658027286 1.2238569318466277 0.6110296082581284 1.753557919127593
P 3.4843501389914056 0.1528107553805206 12.408962323825792 -0.2885402525030966 -0.15879364523386202 -0.8925597479919788
P 0.2668854396303994 5.937693804839377 10.967054391605048 -0.15880495808777167 -0.36281736595011704 -0.39987236182088554
P 6.463294874171831 5.1954236967601215 7.255698246491233 -0.22734696882322783 0.28923187925348254 0.4316766508156759
