# total energy = -381167.3483919583 ev
CRYSTAL
PRIMVEC
9.31194814466834 0.00000000000000 0.00000000000000

0.00000000000000 9.31194814466834 0.00000000000000

0.00000000000000 0.00000000000000 13.62897737586229

PRIMCOORD
 96 1
Ni 8.35877724424614 6.784704132739434 11.680606201594896 -0.7645496637978768 1.6654464709006414 0.7377453991208391
Ni 1.6493881491069269 7.249686957607072 9.201045758767815 -0.1787232942782535 -0.6065587169709683 0.17519934028539502
Ni 7.040298488828811 9.339232277496304 0.713861403865363 -1.233236830399631 0.5777842159414371 -1.034960039469482
Ni 5.126078530949592 6.245458520425979 12.647200399846554 0.22449098743167148 -1.5157121076555704 -0.14234552698016775
Ni 7.933789237194149 2.9632202423379908 11.260656889751298 0.40980504755356517 0.1727015135642058 0.03281498964749187
Ni 2.263641504727724 1.222016283298054 9.52724144424361 -2.9739423190445877 -0.7300907107890587 -1.3387592750141781
Ni 1.3976489396009444 3.4519671591882903 10.48621753761634 -0.3402353668845431 0.6697289218715499 0.7044763526550641
Ni 5.951759672019577 1.0505460678714371 9.719164422848408 2.250312790499841 -2.0556206315971566 0.3530093787207598
Ni 0.6412356569252483 3.89005707745486 12.785806887441975 0.03161479869180362 0.19648884579179066 -0.20827581112438967
Ni 5.798987848717249 4.210825759479443 11.445192699794244 -0.6372245214859412 -0.22245930171362333 -0.5355672162537551
Ni 5.740480877742694 8.214227871265399 11.067792473176498 -0.03853877950514653 -0.4617009650919081 0.4079240284807684
Ni 0.8671789073362589 6.470509686192813 5.2489413076065015 0.009825727841170175 -0.7887152053004868 0.4713114915984786
Ni 8.470120209699385 2.2667703193461306 0.2790697776756969 0.43738758515752413 0.0790706781809219 -0.3806641643235508
Ni 1.2186453580246515 2.1830931522002865 4.751619948790044 2.0659214993025325 -3.848967143476597 1.3272890695910498
Ni 3.377732307587281 1.420258349998241 4.156837876999869 0.28637435520002935 -0.14348606834251418 -0.6289085454210782
Ni 5.99808661465819 1.5303814502282385 5.188974223143357 -0.19099516966707106 -1.3901643689590317 -1.2689818492097242
Ni 3.769439411525623 8.548219519832058 8.41690242534166 -1.4069809262957382 -0.2527656660066485 -0.15226381453514423
Ni 8.695497293655636 7.5295016911442945 8.067564686027579 0.14751575832719757 -0.7959734295247969 0.589532871836933
Ni 5.466551295511523 4.769943069399089 7.912288879835697 -0.6975392592155988 -0.728269855530236 -1.048368085345272
Ni 4.262143906390277 8.316677926121683 13.014951585667891 0.8922787264164503 0.6596797651656638 1.141265384996641
Ni 3.1832708918843347 4.730125178600555 12.016791745173748 0.315237816398941 -0.3236982884614683 -1.2739142535143353
Ni 0.2296689609134646 6.130288344234148 0.2593945621779833 -0.5147993875787843 0.18554057431040302 -0.244738681937114
Ni 3.408238250116747 2.3214593915303667 11.065857450326186 0.5762014448353496 1.4749876333530145 1.5343850014747251
Ni 7.985507797880551 5.759561059746014 6.373114156856977 -0.4088467974053539 0.015749806635089004 -1.370762567393652
P 4.02683097363093 0.361561533806889 10.279370299520709 0.610570923454155 -1.3264190082812704 1.0413985960059742
Ni 8.456999674588268 1.4155744400189 4.999790819719319 -1.1291752866013263 -1.3281059090653902 1.5951712795241626
P 2.193103496589534 8.232153371683355 12.818040196375353 -1.6930899436495228 1.084618068816242 -0.47187841984554213
Ni 5.760035969107737 7.148112225888079 6.464469025350669 -0.4180140657269188 -0.11579040219945866 0.7282228043423845
P 0.8634867198475735 1.7309328800991546 7.344901628658293 -1.276597456773453 0.8389345064673552 -0.25559593636659206
P 2.461706644410799 5.073000425815906 3.777870449488437 -0.9967683588911092 0.5867709928210797 -0.02364694999497863
P 7.397914550154096 8.760438820884115 6.7612128808410565 -1.1520257088369386 0.10284926865775836 -0.5624434718193088
Ni 5.791314803343536 6.18691430165835 4.364557644648312 0.1384464490360777 -1.7818487956524862 -0.01431590240203986
Ni 9.365678210580455 8.637381424508384 13.388589785184935 -2.238171784261932 0.22865026101568361 -0.9692174458560339
Ni 4.671301601384853 1.1772537479686445 12.632998747541397 1.0381402369696766 0.4293634293014669 -0.3336919093390705
Ni 0.6612935934968207 6.009009529977806 2.6916279591223553 2.8381675033034024 -0.45847268796259755 -0.08192074603520731
Ni -0.19205055229608395 5.596145679572142 10.141813268495211 1.6709910548679543 -1.8461626272392075 -1.288380051230678
Ni 5.558069123099923 1.8829597475399578 2.872852440360821 0.6213176204476977 -0.9032758488579024 0.3323019709700793
Ni 1.6770353235177895 0.9231195053678576 0.4384344603525255 0.4329614310653705 -0.5307700519754278 0.7616206630765399
Ni 8.872321879336967 0.615923919140268 1.8846554533197548 0.9914436042440862 -0.10423535037200757 1.5386764297612274
Ni 8.697750785136751 4.329767274720248 1.651463782376102 -0.15721935876820667 -0.9977402358860753 -0.4106938779164217
Ni 8.01300598111911 2.511479007908967 3.217706476583348 -0.7828644029466646 0.8699476670194178 -1.5982938843135444
Ni 3.9950958539299464 0.8601716662637853 1.317715175659265 -0.27134677144294556 -0.7295083559230274 0.48497690490071316
Ni 1.2875072154744087 1.4437430835328307 11.960258907232237 -0.5414406443153965 0.6837638026980611 -1.073673653989596
Ni 1.0610313216224077 8.498447156333889 4.052399721188136 -0.11658564440724437 -0.06396261889488984 1.3479818220537108
Ni 7.139377618411694 2.117108686765671 7.278337028846514 -0.6476318328621943 0.9441545893501353 -1.0243737793132035
Ni 9.043466176574167 3.4920085367452818 6.20122583495308 0.15744767272892884 0.1112197521096407 0.9562140916178304
Ni 4.77542780692957 6.608875925522894 9.341764196230663 1.3034266611511551 -0.08907072681642725 -0.2609641426570409
Ni 3.321665067059223 5.937074729599257 7.433190072586979 -0.8385416419043106 -0.057043266067237246 1.429274447586616
Ni 8.339808805622049 0.619578858835877 8.467956112921653 0.8078295575324346 -0.242707253329382 0.8110719757291321
Ni 0.2620838528380901 9.106452194666142 6.4317049353659534 0.7254275009854344 0.12943010447008033 -0.8501157198951553
Ni 5.039011814633807 8.243215966227007 4.437908792358588 1.7801744932738568 1.4406708623490156 -1.5960914773455868
Ni 5.523447299435529 7.859191219610645 1.990566759347653 0.3969343622384841 -0.502327994584651 -0.5537086630494722
Ni 4.23693646242591 5.864422909203988 2.6022900586237445 -0.5722447741804467 -1.6789871856995537 -0.9542240577709954
Ni 1.3577844890610644 6.314227258393045 11.73951079276054 0.4544789934221722 -0.9154207117505525 0.26503214207882747
Ni 5.212297859972892 0.4912024776088527 7.173312220293831 0.6227664370790823 0.5474002043329411 -0.5003217627878996
Ni 3.4504120638273554 8.880218411469137 5.652917834584168 -2.4670274764202027 -0.015257697490018885 2.1349615327203297
P 1.757863034493299 0.37386820463928916 2.580374388372493 1.526121218804036 2.1209575051317535 -0.2195182168074284
Ni 2.102861405913997 4.528540122471772 0.8717994960673704 -1.378216452568536 0.3649475249192424 1.3561949539921223
P 9.068254582866425 1.3326236048380427 10.374432254620315 0.4593376070660541 -0.2931906067909144 0.300693857146495
Ni 0.5587615934957675 3.916652001711318 3.987389285542466 -0.43302493731345426 3.2503202251535375 -1.296299563188071
P 4.230101492396414 4.412494623142647 0.5737305503382942 0.8055106795912708 1.053306917407786 -0.7585111709132808
P 3.5715325749631224 5.054618639932765 9.650378923374458 -2.074560148814137 -2.6026606243772017 0.5263071311080678
P 4.642769791888429 2.7969926537868592 6.218656870917949 0.4560987884137822 0.4702910207537643 0.6459228205908876
Ni 7.551654816076407 4.6542048643628435 12.955883104212713 0.32861372348521467 0.23531918839542698 0.8326322183984112
Ni 8.123045273814686 5.45009708292008 3.9995600019301376 -0.8175511556955727 -0.8207935738922703 -0.1097339115927336
Ni 2.981648587962476 2.7330754408679763 13.318060157800188 0.1933940089165508 -0.4582029792409786 0.6176327153969428
Ni 2.970306634970751 1.7975226221712595 7.143764477241252 0.3042779749533276 -0.9987488796562477 -1.0903061203399544
Ni 4.300732620017294 2.2727206542900653 9.031705185910335 -0.357064779737056 2.313593552836357 -2.124424380634432
Ni 7.138492983326133 7.066809605550848 13.429517660217144 -0.5101107238538635 0.45955332262128595 2.459825816465441
Ni 6.190424906155788 8.134331355116796 8.583189610361716 1.9178956341081357 0.7588428432210866 0.3550099540905563
Ni 7.551375457628336 7.564374937411954 4.735906036085992 0.2888618975085735 2.1781504094029778 2.1882620439156826
Ni 1.964849020618141 3.685482885931707 8.225959994889598 1.5081237537853511 -0.8527881245209957 1.3704013273994915
Ni 6.714575850325084 3.717506676029031 5.164033100899486 0.6001121900146762 0.3565487593325859 2.2364740848445357
Ni 3.515279095469683 6.370126883852262 5.262748133305049 -0.10652723172997783 0.47167607402674894 -1.485889624977499
Ni 0.6388611101166362 5.352358873887943 7.827394641051085 -0.3325950767304659 1.4445912804493444 -0.9756878840717259
Ni 2.978538397240607 6.474215841603902 0.014485666727362078 0.22073332016145208 -0.28631959070269397 1.209593737059394
Ni 2.253202810718099 4.058323982676918 5.968551908333187 0.23663070811799894 0.5302856561398416 -0.8654353809713612
Ni 4.2145598507353395 4.0219422007896695 4.4367634227214925 -0.48148868924179655 -0.5756684551500151 1.2288929516086384
Ni 6.0018765776037 4.223983542383636 3.179953975910893 1.602922641334807 0.425604476479667 -3.267647917798708
Ni 3.692234048426781 3.12627245652937 2.2662535062171973 -0.26859054885404715 0.5286887439663669 -0.3423837806861135
Ni 8.929404122226353 3.12307845827308 8.789423191066417 -0.12519344068091343 -0.3414643541956377 0.030975365335591816
Ni 6.467390183522675 3.1592740011949467 9.305592864374294 0.7453118986141873 1.3539375254165134 0.0833353669945468
Ni 8.54409432674886 7.683139525635647 2.775459704609466 -1.3136241705094474 0.7493811835875545 -1.8375100937705322
Ni 0.7725248155708372 8.518067431336815 11.111296964294757 -0.19613171956268802 0.6652084082933769 -1.1608170818763235
Ni 7.665484071717494 5.322365088513275 8.49746288340185 -1.1869649439162848 -0.8391317100798257 0.41731549699799747
Ni 6.126619436616135 3.2228559839761424 0.9662738672311991 -0.07904522425962515 0.3496679730523526 -0.32629510265436706
Ni 7.421287540309456 0.46898044425954905 11.758550002191479 1.0955092618074487 -0.5955834489063871 -0.150905757845353
Ni 1.1585181080512796 2.5894945105072185 2.100552973938095 -0.01949873215455997 -0.5053205015540716 0.29561361441011025
P 6.617414982085629 2.0625127340641254 12.850176661046735 -0.25930989488306955 0.7774018371701966 -0.13788209189217543
Ni 3.2997726766786437 7.8850411880055775 2.8191401915500105 -0.7611874321938633 1.451406760709281 0.6698608194637238
P 7.317058903333779 5.91155999134201 1.9645901484562611 -0.7387175332261212 0.7713821133386779 -0.6002325176426244
Ni 1.4021466106149039 7.912334508382216 1.3682948850723615 0.6039835000446244 -0.6805301262521118 0.7935545356706591
P 6.766983495183398 0.04790252428573926 2.987267417548032 0.5827446452705061 0.06465218876274671 0.3531888417214175
P 1.6741486195543784 7.527294759404525 7.086672922403596 0.4234964289977287 -0.44141830358347206 -0.6272890075397842
P 6.8429503691624545 6.502356549273026 10.13506676197427 0.39843820047752027 0.16744000805495032 0.1456427096742008
Ni 3.3357447328420533 7.459894877833012 10.890561886550637 -0.4118475319048907 0.8350027755131169 0.8096434708127218
