# total energy = -340869.7924878448 ev
CRYSTAL
PRIMVEC
9.27799004132158 0.00000000000000 0.00000000000000

0.00000000000000 9.27799004132158 0.00000000000000

0.00000000000000 0.00000000000000 13.57927625908105

PRIMCOORD
 96 1
Ni 0.894367609885334 6.011784897579697 7.059322842876897 1.8674122806466034 -1.2406655187635343 -0.5246567399888383
Ni 2.7973046796500123 8.145759688667633 8.655756876994431 0.5794042680433634 0.575532443792783 -0.02669293591015403
Ni 4.656650969424044 4.472863267311642 2.2841427689651663 -0.6690318958045252 0.23536983912770432 0.9998277145427233
Ni 5.291079919418797 7.426854640549127 11.944820072407632 1.1357881639321536 1.3858659986939939 0.7966555431934861
Ni 5.7884172905144196 6.489824049664073 0.6901831747564292 -0.6164651774514028 0.13724831496291848 -0.4384152550910901
Ni 8.300841290000804 2.6423436921856607 1.8826850733907596 -1.1342082210395434 0.11513399956238236 0.23594833733899365
Ni 5.691991141387549 1.7039863487435831 2.2350130289986962 0.8158334016735176 1.6250359282940785 -1.0667522442794144
Ni 6.583058570262161 1.5648165001047811 4.284058028256316 0.9756454608695648 -0.26220829947678714 1.00553144979572
Ni 0.31891698614572417 6.019550575133742 12.626567698738569 -0.7281667542934686 0.35486982896826624 0.22234154518883642
Ni 8.032326984037098 6.780698311309078 7.9148574259970506 0.39193742324452496 0.9314579677190733 -0.489313327492538
Ni 2.6042297096384477 6.070199122048357 3.760141999467655 -0.8872555621702461 -0.9980922199088552 -1.2970688372539274
Ni 5.749041501339549 8.790746991179116 5.790868535448445 1.0018797119757454 2.0723407725653145 -0.8141539570885656
Ni 7.717432006517036 3.166299616330932 5.724072574895766 0.3664850446096914 -1.0942342517497672 -0.6680790449729527
Ni 0.8612015793567257 8.913068010142712 7.137321976245 0.3173026693477697 -1.3030319968158979 0.683499493293081
Ni 5.4086784415185845 3.622210762481738 0.21763752049732235 0.39515515885087427 -1.0780026203822533 -0.21996456031622763
Ni 4.5069134902786026 3.148281759927162 10.256739909564473 -1.811166313669681 1.43448555947391 2.2233815133266357
Ni 2.658431726688306 3.879155415028604 5.515467177575101 -0.05700469951981795 0.7799767969862245 1.1929059919910683
Ni 4.893620109696288 0.20191132760113775 7.948643226251598 -0.6741648461557164 0.639143592885525 -0.37871295413445105
Ni 7.768191889310563 9.280216626831692 3.0148438534542965 0.13561746422771484 -1.358347481558751 -2.116649364674703
Ni 6.635098815663164 2.431853935114427 11.473646632856104 0.7300074070466331 0.9978855032146878 0.17723951064387541
Ni 6.454335738261178 6.408678749917742 3.070980331400235 0.4253031431891643 -0.2989005126914981 -0.6095180567096082
Ni 2.4098001531001314 1.7802421478077373 4.281396172951352 -0.1076618595550533 -2.120725591626606 -0.7841664095875398
Ni 1.3470713549245115 1.1922588152987081 8.805956400037354 0.38493142424033705 -0.3759675301788299 1.3478859199057946
Ni 5.994926789914583 1.7662138270649463 9.484200657378556 1.0167730841478102 -3.061705639903501 -1.5043249488645514
P 0.24291076501012882 4.067953231692003 0.22584668596902985 0.2178822238659022 0.4760942576991027 0.083715633152101
P 4.0998138490403795 6.583717307545718 2.1699817421267573 0.6892921887154579 0.8998704227207792 -0.06972368974838315
P 9.03502718749985 1.0839661170779016 4.201645355088381 0.3880794829510155 1.0105540998212919 -0.21466860202461097
P 7.791117802376328 5.039405165140387 9.686966487850338 0.601349404855887 -1.0648167178195984 -0.3432214460960605
P 8.864070945431946 1.4015331556918293 10.678566504185655 -0.355783084811155 -0.1976134463145371 0.9419930629224422
P 4.94839736212052 1.0665791639879605 0.3320091577066717 -0.8018831101410125 0.25864063673018683 -0.08391900741215869
P 4.340048841760679 4.64727092162579 12.320925660555005 -0.9988131572352799 -0.04579571817787598 -0.7429467408161204
P 0.8430185747325707 7.294995847958817 8.708267516483835 -1.1982587716625492 1.0273534307668177 1.071312352846271
Ni 6.22552195111917 6.3696555243594215 9.316307079779696 -1.898261661927292 1.3044507315402953 -0.4644551307982775
Ni 0.4563954572240693 2.2594224926509514 12.746472729129795 0.3096227842050087 -1.3327295238803307 0.09156212577971329
Ni 1.343545718758995 6.898426725267596 1.2564207545161503 1.9033617021580187 1.2299483894563463 -1.4521572657220603
Ni 2.0787429171581495 4.681237642683566 12.07295375204938 1.3553446901766852 0.07923162923881838 -0.5551055433969988
Ni 7.501681629167257 4.858150354273212 0.9419293695571401 0.20636599569618652 -2.0956403665232037 -0.04567744743245682
Ni 1.6082189369002688 2.8925246900886803 10.633605365085414 0.2751131804639133 -1.1694513605125536 -0.5675692230816483
Ni 4.676134748233476 7.202327284745193 4.369566766656969 -0.37628274742640355 -0.03937053137782251 0.3158404829799464
Ni 1.0521890016387083 9.01689799521717 2.57874492695571 -2.352632411906374 0.001473499221732946 -0.41307574788503704
Ni 3.3975442368291655 2.214062399984611 1.8318036489294227 3.069358785573385 -0.3242737013489641 -0.012242307702462787
Ni 5.679929754505519 2.1622726603111584 6.395648740889187 -0.571739295298938 0.03415633416673472 1.274029953156593
Ni 8.473671686030379 7.4222342015743195 10.340795714745338 0.4743651908231379 -1.295178305099434 0.10734329987336996
Ni 6.151056804107501 4.853585583237859 4.939244625075042 -0.20523471030522075 -0.06408654606726381 -0.6595465820219093
Ni 1.522787205815863 0.39427189238968996 11.428087991205706 0.12006151877098678 -0.3921127724801247 -0.39009059984377337
Ni 9.268823255223129 8.27440829674934 13.220647598416969 -0.25120423505679956 1.2991722567501756 -0.9007813645708228
Ni 8.263924168151885 4.55691257789957 7.448762758121847 -0.2142302289356117 -0.013292346233531947 1.0242699067454877
Ni 6.190812990868652 3.698448005566074 8.405137030168705 0.033451594790226254 1.3827706475981216 -0.6643483742859269
Ni 2.9562459247854336 2.3251941631176494 12.478513246962667 1.2293603781633602 -0.1291061454717583 0.8802439067391035
Ni 7.422809436948693 1.666317709712014 13.431451879346126 0.33740098275954156 0.8082512184508855 0.5351746088010267
Ni 8.397740616613047 4.019188116728967 11.788590783722688 0.1812992825355458 0.10907108119775409 -0.36320226009336154
Ni 6.656382524514991 8.892164698877165 0.14681955131898153 -0.023981964736894183 -1.6940147694566374 0.029662817171755364
Ni 1.563721697295489 3.395632970907859 7.755287133145782 -0.6549489353488979 1.1446636120449125 -0.4557182651459119
Ni 5.4655432416724 8.675041179020814 2.133956235108117 0.019045446667225262 -1.1929337599052101 0.844886610285732
Ni 4.520793363182847 2.7009063644928686 4.378895785510723 0.5580260594779034 1.093028404367124 -0.9386213182367319
Ni 8.84673966028146 7.159973260809451 5.622254985832626 0.7012365055615278 1.6462547284635387 -0.7603574800934002
P 3.437096307812313 0.9747641758459882 10.275736593903671 -1.2507229029995364 1.390482928640715 -0.24329295062952294
P 2.5420393432767217 4.532029008962952 9.514890392400384 3.3525087202988457 -0.9844666587056207 -0.39390534560417323
P 4.6344858515308385 0.4297453590087297 4.018596180972756 0.10203088652152105 0.5143682135786367 0.23410999857867423
P 9.628883487621437 6.762866014703493 3.1351014474620764 -0.6153940558744112 1.5708221612558366 1.220242475022492
P 6.639264633132419 3.8934156855191264 2.9387318632337354 0.8441453612443333 -0.22449073032135533 -0.08666186026461849
P 4.787034561618784 8.202030697467254 9.690768608115148 1.0803088999179267 -0.8321583640857863 0.6347562624511068
P 5.047245066613707 4.638670224979911 6.648522211463872 -0.5231014796865766 -1.3007555420768953 1.5518034540614887
P 9.161319186144608 0.6710278367897845 1.0206057961886186 -1.0498045606814825 0.3280159420002157 -0.4380409024708069
Ni 3.726615982930568 2.775594183262359 8.093194309037766 2.181185596684876 1.687568242500345 0.2704949649656116
Ni 3.77480586251923 8.112006361377768 0.4756370804968701 1.3677641468869604 -0.9699741215164004 -0.3998800751303694
Ni 3.152725917093694 8.533227103257875 2.8399017869213763 0.8361638857007534 0.09172461949950654 0.5975673121056353
Ni 9.036725059653243 2.9711834885393316 9.163363127321617 -2.4895639669598224 -0.23142576687829175 0.21156785161210015
Ni 7.23655378952043 8.818478903017875 8.71147213419849 -0.7177095635158864 0.7742175259049441 0.22145811414261862
Ni 3.228350812844019 8.911592809747141 5.730576445822152 1.6716186611496242 0.14024802102119072 0.954335386537879
Ni 8.42840437326313 5.347276704299145 4.302525867170686 -0.09652641176352408 -1.1901214872673955 -0.6219205441390193
Ni 0.7359051090292302 5.113629084414415 10.073052409743092 -3.785512831676693 -0.024277127379809804 -0.45304714607165203
Ni 0.8065096844396582 4.896422062648883 2.188015371113373 -0.6878688260053702 -1.5658092814222777 0.9145647915081604
Ni 6.293334779365903 5.189690045690475 11.361875616218319 -0.3077574488614958 -0.7384622226822056 1.1411725681725184
Ni 3.973679576224078 6.2957377787524 10.621261927310142 -0.8611202985357751 -1.966511081122994 -1.522413945155778
Ni 1.3582142208055248 2.1710218047955845 1.6420604050942706 -2.9012145523625583 1.195337484250696 -0.3438045722930401
Ni 8.127862446132681 6.940196235839055 1.2522141138912948 0.26798068318419005 1.6235061219131135 1.032428788407196
Ni 2.5708103899853167 4.46693463175963 0.7524820936000934 0.9462330691457187 -0.49386135187453656 0.15227744138189903
Ni 4.845801349703995 7.165039043299903 7.077776764806402 0.2840457070668527 -0.7824188307688138 0.1252173519403134
Ni 1.716493079141257 6.955532753159051 10.702819169808444 0.39943655983504756 1.8062159116429408 0.4234097828211934
Ni 3.4005874175194006 5.49958418664945 7.724557502767343 -0.9431711423909434 -0.4048271347229995 0.12268147289233712
Ni 0.35095481310136734 3.2180986339942943 3.7923254908648736 0.3557206070043357 -0.8300426032943641 1.1929962377120291
Ni 7.071795244711907 -0.22981581005220847 11.36184778224859 1.130632330762827 0.6965738099785358 -0.8137011858218631
Ni 1.2630962682558584 8.877895150396734 4.807280991198756 -1.5707172602468562 -1.0841061621768295 -0.36961613403950533
Ni 0.7413726284827533 1.7786092215837088 5.988664146725838 0.3422950776270492 0.7891774896488859 1.0772001790856156
Ni 4.951672492558487 0.7851684520503934 11.74763495286627 -0.22523557890717985 -0.49814300996902594 0.6559544937952767
Ni 8.115995897038747 0.24180668421092766 5.982485933245266 -0.7063702272436674 -0.20899597711986584 0.1987673574133222
Ni 2.0644177007382623 0.2274823955900312 0.36797157439392914 -0.6451023815721213 1.2905379781139452 -0.4037966365759562
P 0.4036445177960178 4.078502306218824 5.902571822759892 0.38641340810250224 0.08453041574391248 -0.37393610157109797
P 7.38518718786667 1.4915574917813157 7.640963741483961 -0.32614289334721897 0.57784180865225 0.4243580056670756
P 2.65179796390319 6.741628695801213 5.780453063976317 0.6810142649773819 0.25885892338858 0.9909880047639064
P 7.475953763148897 6.900050373501715 12.540176623497548 -0.36696326979769056 0.4749858551262722 0.14308471913903745
P 2.55684701517189 3.7253727322827275 3.3875267911241442 0.26770634647688085 0.5475794102232827 -1.7267544257815033
P 2.2066121740874807 7.643551372869652 12.636805960603429 -0.7182063006466469 0.2068398500088115 0.4444925716334216
P 6.821085401384059 6.902592542736851 5.756825734873412 -1.1914013824210836 -0.4286072678617328 -0.16249629089642983
P 2.8202398707056866 1.216056859415943 7.2483461146950905 -1.1387109940059035 -2.137011216160507 -1.63201647337697
