# total energy = -340871.69066296116 ev
CRYSTAL
PRIMVEC
9.26354481316988 0.00000000000000 0.00000000000000

0.00000000000000 9.26354481316988 0.00000000000000

0.00000000000000 0.00000000000000 13.55813420753234

PRIMCOORD
 96 1
Ni 2.689559116305283 5.777339503307932 4.390056021819924 -0.7241938856886496 1.1472403716331534 -0.9187081242525726
Ni 0.4082481317609833 6.948594337288641 9.553576361763785 -0.7759669044958829 -0.7192977339386128 -2.386673817761799
Ni 9.134337033908952 2.4960343985668763 8.900467725165122 -1.31717640663708 -0.719929968205973 1.5084379425916603
Ni 1.2103377301627176 7.649844690684717 11.428517861464789 0.6616399742158283 0.21780020567505717 2.2093492036032853
Ni 8.0229617545432 1.5620282145310402 6.724739846999981 0.43414490985051035 -0.14547404530682043 -0.3847702160721244
Ni 0.34986649236589623 0.04486056917293498 8.086708839178538 -0.36842956993057197 -0.5940531283047897 -2.868608336291763
Ni 1.5436493413323904 4.4802301475142885 9.996832356279315 1.5920517600585742 -1.32369878113663 0.5905001208462088
Ni 7.366389478484367 3.1980073084697542 11.772392692951204 -0.9154207117505525 -0.40297774021908667 0.054044588450229504
Ni 1.040286835350409 2.644306699180583 4.127868982490934 0.23552153421422017 0.07911927203067019 0.42902970011113206
Ni 8.360617968298643 6.1028604731670875 6.030563136534595 0.7605438850725934 -0.4223975395065951 -0.5057298211773484
Ni 4.564018911668417 8.886852166784386 8.260198361879628 2.553509616573847 1.0050061734198692 0.46250752015360347
Ni 6.4520683274863995 0.9432234112700378 3.279618213204022 0.12111901350122367 -1.4277415558818574 -0.24428693911167604
Ni 4.0216383543191405 5.929687763703597 2.3939056681029256 0.732634560256835 0.0005797837628699693 -0.7131851932829717
Ni 6.6583396830883865 8.700599331838793 11.322004695171744 0.16897984173824446 -0.51192335158257 -0.500154641082416
Ni 6.983842125857625 5.211318379223295 0.5699720260096496 -0.18201456343501554 -1.38747010995632 -1.7831274052545938
Ni 7.68491647189948 8.45726453285586 5.559485937443711 0.5316138880329618 0.6642375597396754 -0.6104917334767873
Ni 7.9315861470676525 8.372243717222183 2.953165330721991 2.2525830745912563 2.9106741551135613 -0.32023424117226784
Ni 8.646759608537101 4.657608506389165 10.44995958430315 -0.43002523125518194 -0.5706530042132947 0.2969264196842628
Ni 0.3371078118938696 4.606334785041115 8.125634255096243 -0.20978453445943224 2.0829172625295804 0.23977773838741284
Ni 1.9343300864331316 3.8950334853645274 0.6002434382266602 -0.3650436841774745 0.6289805363095942 0.17635505115639305
Ni 2.8903371897465857 0.3836960322016575 6.68052679961968 0.3290317848592398 -0.023533821455882047 -1.4014538258299218
Ni 2.817553517003746 6.347853446697683 10.287830873139775 1.2755366196091065 0.027369136041572217 0.2687070198272533
Ni 3.9643525922927028 0.5583990792923745 10.587723319515371 0.5178975668881339 1.1114475303042601 -0.3017279548379642
Ni 4.662110589239237 4.132004228960631 11.52615006720564 -1.2280719983692396 -0.7107866111438081 -0.10102070008945181
P 6.130530681959613 -0.16400365266307546 1.4875984098489867 -0.8994672737450897 0.6219963916822772 -1.089497251285414
P 2.2976000020002005 4.663231478179275 12.103495875002652 0.5347483198968855 -0.3222317312182708 -0.5577074997962201
P 5.480248352927938 7.614142988412742 9.836426664478314 -0.5438775358916633 -0.3966183736599621 -0.09336446909577469
P 7.954531947931089 1.127892180027644 10.67082102321556 -0.820001159897962 0.8968321501150877 -0.12257322944924696
P 2.2067616801322756 6.1516052467413305 8.178781991589497 -0.22366926286132446 -0.8141776112376495 -0.0738474821087696
P 2.1184986237629517 2.0906987253410017 1.8694908298471278 -0.26121791053905985 1.292665051759277 -2.5493891666475705
P 1.7252426131636092 5.7531245967851135 2.000001209356453 0.1529999213702204 -2.5058387928604455 0.29725217845479773
P 2.8854830921880708 2.76837335681643 5.375217353828334 -2.289215123991993 -1.6324322207581499 0.976755406104292
Ni 5.2344772416207865 8.849677560863933 5.632862477063926 1.2404354050305992 1.8038574387130935 -0.2740765116692828
Ni 1.8526070928048597 0.6514328613155819 3.13690496592021 -0.6323908475427238 -3.0706057706066083 1.755527641259454
Ni 5.703935173052839 1.9917825922688313 9.384900177023393 1.1478147560793843 -0.2816311840880892 0.2654520032250654
Ni 7.361998558173802 6.130067504711662 9.408938149837493 -1.087908052421423 2.201192893044738 -0.6239031217866868
Ni 1.2637420668513355 2.1914953580398486 7.176957394908844 1.0707431106063623 0.6057537045711696 -1.1489141597911503
Ni 4.243639209261504 4.228956490501494 5.127401778148732 1.1091481927471218 0.06519469152977804 -1.2542867090913947
Ni 0.8114244726569156 0.25642140894650944 5.547405348462683 0.2579788347764719 0.2598909641975201 0.17388473523902956
Ni 2.7868541290096296 9.289204978533464 0.4995440727498828 -0.05745361413177846 -0.17689909658532116 -0.5555760552755142
Ni 6.425444899274242 7.050863873635968 2.0427904498765566 -2.030923900181425 -0.5240486740911943 -0.9690492957092858
Ni 4.943036853665781 5.39516269247955 9.313583849802058 -1.5927832389079601 1.7164633282681405 -1.1651938707877803
Ni 6.711530958242948 2.66308390481247 1.0141034255238037 -1.681173651827911 0.3266874529967793 0.5837944266912591
Ni 1.6282625609878694 7.347927233381086 6.386532452319479 -1.0564467485883484 -0.225853672107153 0.568534158098079
Ni 8.92257239614628 1.4923107751696285 1.9888423430988453 -0.12154195997125518 -1.3298601727523356 0.6550795473894911
Ni 0.17899947924269985 4.903583415685413 3.8938421934828007 0.27871298200002964 1.6638811832960503 0.3887453986697885
Ni 8.860942031534073 6.167316218991789 1.5619781913882618 -0.5336034076591649 0.8929747240422106 1.937032612047903
Ni 7.568668246209026 7.575782648737536 -0.23484290731902174 -0.5871052362320469 -0.6137565202709881 0.4650670533506636
Ni 6.186260168432939 5.761276516349031 11.840535329669585 1.5824250356020875 1.1123502446241875 -1.0697210970997513
Ni 3.542620444489403 3.0027780984588914 9.425696829022815 -0.32226978354505786 -0.26241990126696096 0.44951547876930975
Ni 3.9494938661784715 7.391530739503084 6.625291060092668 -0.961907285347866 -2.1576823713566133 -0.023858808895468587
Ni 3.2880767561060824 3.699544896094813 2.7291579919415083 0.15839512424386268 -0.13776099293327887 0.9515727361910774
Ni 2.436497595115402 8.31750543005947 8.760466843845304 -0.9627853170774452 -1.7113514609628722 1.0032516526226076
Ni 4.401693813351912 8.222239133701144 2.871232980977646 0.16568394459579205 1.4688429539078576 0.698313675487778
Ni 3.5130234183454077 8.023461985970986 11.914508441585163 0.3120542764646368 -0.5554672976117918 0.6850724942071557
Ni 0.46556724254927334 0.20820928920740936 10.21327508424628 0.9601355381594238 0.48047644592719824 1.1075271122039314
P 6.450363835213944 4.146427568461789 9.67805432079581 1.667551433058786 -1.748640170111001 0.7031632902705954
P 8.500905093157693 3.010587266859326 13.62456903091547 1.7374995801131494 -0.729355632395247 -1.2099812023058
P 5.0350609092884575 5.475533208543808 6.594256331771037 0.29484022657919545 0.07544259451003135 1.1582526635832568
P 7.7963291271213375 6.467714454922145 3.7175180260242593 -0.14779986522651967 -1.9395052419581114 1.6620713837808212
P 5.503712912309077 2.1068172935696565 11.738293583957136 -2.1248545261933147 -1.1934963172768995 0.3572403860829718
P 8.60474943214805 0.9859468806209323 4.28247198972962 -1.0739189372311826 0.3304451202669986 -0.7093941016716557
P 8.432021372842591 3.6895124769042194 6.7160626844368885 -0.3339161095347346 0.24977804413323437 -1.3705540509272718
P 2.042426392559668 0.4244824943016256 11.719176406225255 0.3068249097448974 0.7287758486323772 1.1142011817899973
Ni 3.853745865482278 1.0095781838113338 4.4011602331622734 -0.13127152855419327 0.4824538813685432 -0.22114366822599332
Ni 0.813093763458527 1.2898096823659533 13.494153139564727 0.35431035692037044 0.5249295340342508 -0.171598253197698
Ni 5.452263183606807 6.564342492389443 4.6751027110442305 0.22418708303800744 0.3278254232559645 -0.8820580771297066
Ni 1.3007314018726108 4.870419924732203 6.022455681986481 -0.57012001452796 -0.8854611892739847 -0.6247045346420596
Ni 4.208280258153013 1.783010079527915 1.3176596039306818 1.245275763842036 -0.3200928304983971 0.9219911658792187
Ni 7.859163752578214 3.021397823826476 3.635261452206349 -1.016222868071295 -1.1640756980229372 1.9797558619480422
Ni 5.749808247689793 3.5550613853693367 7.465665037100947 0.2633727520985335 -0.09180843746256447 0.1837459443038255
Ni 5.17645039599763 0.18564236733279665 12.983025930198115 -0.6991017186067121 0.7739863837307445 0.7889111233613768
Ni 0.5920044413401282 7.492985083894021 4.234395117746921 -0.33755756294206385 -0.5724406922413368 -0.4902877755906653
Ni 3.160804911914422 6.282073013943845 -0.02966835544017983 1.3549682806738728 -1.2006128737170225 -0.16109889632827093
Ni 1.118860223692622 7.104314528049382 13.738186409837569 -1.031294931913069 1.3807836990750801 -1.0859653268727556
Ni 6.416542632568646 7.1652871809695 7.104015315547206 -2.627664345510391 -0.5865856162831511 0.27727882065666437
Ni 7.2340134210202995 8.920339881811161 8.886855872202371 -0.8116057367454151 1.15889466804263 -0.031930530160009525
Ni 9.148436149336545 4.967668619711754 12.870275619084177 0.6807718099492727 -0.0626169035002728 -0.15931146541054497
Ni 4.39653401880975 4.1573678150583655 0.5101832541352909 0.6073971537118636 0.13794971190531727 -0.17099867194048615
Ni -0.35168492624134734 3.8461312315259826 1.9423652853305655 1.1861460475594152 0.7978040549756326 -1.8802909363814844
Ni 2.9944686986306714 4.186788833848139 7.460634932188211 0.9415354065597332 0.28147717500872815 0.04173183252114749
Ni 6.629928390699143 4.526936941197552 5.220126157770309 1.4353538210114762 -0.37286060911873203 0.7858018883084337
Ni 3.18437137029011 2.312588417743858 12.596740737180417 0.01331548616198352 -0.2829874410056674 -0.7239000085973145
Ni 6.526751026945834 4.825389832686518 2.714013022288044 -0.7862484889275491 -0.8060984337739409 1.6978133172671215
Ni 6.00391654946004 2.130235535226001 5.155426780713186 -0.5040696598661061 0.4949502140633411 1.2636416679437332
Ni 2.1755713242553325 7.722989641680958 2.180581975723654 0.28476767283454185 0.7106135759010536 0.9700466266255486
Ni 7.467565916526532 0.7503906803400677 13.28333801516035 0.6551235132535491 0.7615191045016692 -0.21671108637593647
Ni 0.4682694186138129 2.5546541110674097 11.360388193709346 0.1613243820755157 -0.13073468221411677 0.3476846240737367
P 2.7899203623910576 1.0898097467012071 8.650455762975742 -0.05414563280446805 2.1506105521114964 0.6933301062302576
P 5.396459588773809 6.593050218217376 0.06686148845055295 -1.5042095063326093 -0.2740186618481539 0.5073053931945843
P 2.7336999080349043 8.027695426017248 4.514804476364754 0.7523178976183753 0.8125547309222458 0.010675477435975163
P 8.322507744337328 7.477765079526388 7.726184638337316 2.688849401660143 0.018639983698690476 0.29716758916079145
P 8.498070448400242 6.721415160714198 11.602387189509194 -0.03923529135153888 -0.7808805397474163 -1.1596174051412675
P 5.568566990567016 2.7908374533419984 2.9157443145056265 -1.26721421578634 1.7513799376396675 0.3859858336467804
P -0.2309262805103578 8.773799864104788 0.8680571547637442 0.8575464651415876 -0.17538805925743345 0.309349475938964
P 5.966686362269831 1.1532650296703368 7.235285305743169 -0.609043688176351 -0.23901283519693028 0.2255186573652374
