# total energy = -340858.67797143775 ev
CRYSTAL
PRIMVEC
9.27781797666283 0.00000000000000 0.00000000000000

0.00000000000000 9.27781797666283 0.00000000000000

0.00000000000000 0.00000000000000 13.57902442505537

PRIMCOORD
 96 1
Ni 1.3087289967347662 2.67920187177146 6.602922817970852 0.8429896503733354 0.2420588211121057 -1.2149760844172302
Ni 5.943574275813267 7.964292298057907 9.590986959648019 0.09896613155326826 1.1268270980841237 -1.2245747838492587
Ni 9.21859761483488 9.081861134231755 6.87264290182577 -0.296322981772309 -0.5758132082579954 1.1438825109045139
Ni 8.020274651427377 4.489498983439433 10.667450423497797 0.08557016986233651 -0.17106269240920216 1.3937605709507221
Ni 1.851629790531247 2.5742511953850733 2.2753282518241975 -0.6903918495375401 0.7372139520974013 -0.6995858573319823
Ni 2.5394686559780224 0.43483648171390693 2.9957767917196 2.448853119504021 1.3352129524238165 1.2248118395607295
Ni 0.19782627274122397 9.114370608246773 11.151000088235635 -0.8681016149496146 -1.0633632732025236 -1.0555394062827306
Ni 4.383666914350014 5.780924849740977 2.5001566858591753 1.3306443592165276 1.5904131960138868 -1.877119480632038
Ni 2.889539281986786 4.491985438643778 0.834964646564176 2.0914528108044173 0.5204699556010004 -1.3254818411789817
Ni 1.568962511759674 2.4026115637418495 11.171123675318562 2.1664066386034886 -0.29001632282799084 -3.315639100966006
Ni 4.080087433971747 2.2429774284957245 11.47164147578103 -1.7076634705883234 -0.7806144305702234 0.9889051540929487
Ni 1.6658878756394986 4.984127290563499 5.412395077185329 -1.8269222909523568 1.288718151296387 0.8947127897792398
Ni 6.347066577443743 9.07909634448961 0.9914489626241997 2.6190148973655085 -0.00891735709428787 1.171289442162557
Ni 1.4060996958750709 4.977150371482649 10.582133465407809 -1.5166305057047815 -0.8048835875302331 1.1552462726567654
Ni -0.06942591154520243 2.538624374546696 3.9591000492991277 0.06700449104500718 0.5039560171063773 -0.16241581536748156
Ni 4.95361254740271 9.237375918318442 5.36801927404211 1.698896780139287 0.4986258631427155 -2.257942024910324
Ni 6.208882757244058 2.370983482429863 10.884036444086728 1.0875612106049657 0.2812781716240446 0.8382027705076532
Ni 9.126004991926806 7.064093458087792 3.9376590120706143 -0.7842628259560881 -0.754130782457398 -0.4811063662017134
Ni 2.559898411052529 9.085451649769372 11.582880657158109 1.0274904705653145 -0.13466409917551003 0.14830611543897684
Ni 3.2192358198286026 1.3601559415022468 5.4747503636886234 -1.6577704424126223 0.17329903793888862 -0.4506097402747529
Ni 4.765560455847224 7.779441053687117 13.640672839837684 -0.26530467901392374 -1.2686247229806216 -3.577698019349122
Ni 5.2823720256339355 3.592148433572805 12.947789624784184 -0.14824620873531888 0.9337102540883597 1.6145933928045162
Ni 8.83092399276936 2.3574749795286447 10.163967366944526 0.7450324197005556 0.9451881728209722 0.9731288650952983
Ni 4.062830692628158 3.4771684360076978 3.3893520337682688 0.3956498390991057 -0.4413085174784851 0.00715795120101993
P 1.306056985171888 3.456497457667098 9.078215879568369 -1.240444918112296 -1.1575057581149033 -0.19483176980434186
P 7.736299200328144 4.759817486550621 4.2404573001794565 0.13119850922441276 0.12813838224185028 0.9134129372919043
P 4.172216165983489 6.673757102277321 8.421412242868067 3.553606782727874 3.735869714728269 -1.457862543636954
P 4.939992710686373 0.15690460121210137 11.252190465016348 -0.952751586990527 -0.025016576648995623 -0.4845359607085526
P 2.0320276822972385 3.2587686020141042 4.392162612225457 -0.15410163907483138 -1.7984336965943608 -0.8416120532995183
P 5.314436164388474 4.103773703138512 1.6800244868143517 0.31628451249590045 -2.028993001707299 -0.6576131124446223
P 0.48273600010567114 0.567719884532091 9.045571877193414 0.8865518512350021 -2.2099426142129097 0.8931703849927843
P 8.06041049177811 1.4123065560680068 5.63840457744237 0.6696780140289563 2.096038116182255 2.860580066670648
Ni 5.999834963720537 5.515430811951653 9.936763811520326 -0.5698364218492703 -0.7770570522362682 -0.8537900834229489
Ni 0.31288327619512196 0.20157822231076558 4.7378708082451055 2.0153910946531486 -0.6623927932214527 -2.294416979907907
Ni 1.891450185072475 6.216342122857093 12.576729791279936 0.23615351137126425 0.07441158214235571 1.244607791240734
Ni 3.5212659046131165 5.894244117897212 4.40083922755047 0.28684743818170594 1.1514333266685783 2.8217600084796564
Ni 8.2976350183449 1.963928498715549 1.2864594503654023 0.7957533430941908 -0.3790682805913407 0.7345978546307929
Ni 7.391238595999777 0.6761970595124012 3.924718311626508 -0.9196491480096033 -1.5734053486019803 -3.3975680745313297
Ni 6.0216842249378235 1.5519933827718113 13.20327939150319 -0.2297077557459205 -1.0244503981874098 -0.8215389366987271
Ni 2.118422722830304 0.40476892937718484 7.5811017176145485 -0.2640810910194678 1.516031695778518 -0.6897673285796636
Ni 6.6751487749663205 8.255430224596521 11.924094678174082 -1.375954910227869 1.8537052154731557 1.0602182998156384
Ni 8.589199724508141 3.8625133257736257 6.0659134385578 0.3974786647777283 -0.6863919843495275 -0.857731327458884
Ni 1.5197715211125185 8.336805965631262 0.43907273337922026 2.5046815393275508 1.107380302213422 0.6770815055818792
Ni 8.056263307164894 6.950468021939979 10.787964639456158 1.514306228446979 0.048921151180735103 -0.4415825970754782
Ni 4.218558866527159 1.9265203368352526 1.418885456759802 0.4774029492081972 0.4255967631701832 0.16916084740079898
Ni 3.6850472244724592 3.6203901113415604 5.7492772850113445 -0.7362888691799706 -0.9780823524458317 -1.3280156633444289
Ni 8.85217947363934 1.9142086724465739 7.868841179446628 -1.8339342034938158 1.6583828791856405 -1.5039356838459323
Ni 4.435780417644067 5.606937930162308 12.341011054562644 -1.4062962415238875 0.6584060406595629 0.5844397735847419
Ni 6.658420869244551 2.8692301385453254 4.246215113984742 -0.5034983607436684 0.36842982704088806 -2.91947658389654
Ni 3.1039589320898426 2.9940724565664727 8.077631977413578 -0.462316744299036 1.5699487575119477 0.30772453874103134
Ni 7.793515503481862 3.3215144846521105 13.040887888769262 -1.1593374120070035 -1.5721028277404732 -0.640813267278464
Ni 6.072183387912638 6.888974644722071 7.106080223114897 -0.6765791120241638 -1.0289336307697443 1.2853129822695801
Ni 6.082379709814038 7.753444607856614 3.0890105118464066 0.3834903209184364 0.2890105072712958 0.07779335413039505
Ni 2.8569834188821335 8.291381769062331 4.833820145679045 -0.23569714056013602 -0.17627508984807708 1.8613853577262331
Ni 6.948222790001727 2.9823267390713197 8.889100550078487 -1.045926822893631 1.4194451202010199 -1.82637284620679
Ni 6.014623805495635 5.7030097347928805 0.4459308963906079 0.6036376866694314 0.8945829490695947 0.6145715599731157
P 0.07990520689336576 4.151730744001422 1.5213942114678916 0.8955905643985027 -2.130419936096234 0.5866434661042801
P 1.113764930823917 7.1094527099312375 10.770678209095202 0.08971221705516809 1.293772940111475 -0.6140015464022587
P 0.9182785237637969 7.447128171189982 5.7856287034297935 1.0695506329601578 0.7509953221522099 -0.2411658769841911
P 3.0991623002217588 6.855490999824752 1.0630514502549968 -0.8614206033850133 -0.642690686806835 -0.8378497580436086
P 2.6541146520977694 1.55422005907421 13.5590493810643 0.6801020375757578 -0.7850130738585513 -0.17590356544127125
P 9.052320561953266 4.843058068988621 12.894097964660805 1.230613276733855 3.2293721621469604 -1.1081709164355174
P 5.370557685026846 0.8121866757724312 3.1233115325030645 -0.05815809639797081 0.8614946511560582 0.21229727357895695
P 7.8242993033625226 7.299610866156076 2.053854676751501 0.7383488370327929 -0.022218702188884318 -1.7123444210037604
Ni 7.896545671557429 7.8516595884282445 8.330283659628819 -0.2423339291503633 1.6223007887511025 -0.27186587717120925
Ni 8.94139497082211 5.999222627737378 6.74231182671921 -0.8546215781853087 1.978180289930806 -2.5523636758948625
Ni 7.544007145980174 0.5835311418427063 9.884715252951757 -1.0497695936784888 -1.2092103855780465 -0.6153531753341467
Ni 4.325949609028258 8.695634851762794 1.9121981693018664 -2.421489125668772 0.2036120871001332 1.8342581624921377
Ni 8.751450204409585 7.917225927715957 13.503538340845504 -3.0384623531048445 0.42572840365204095 -1.1619010589691217
Ni 2.0632011505308188 7.3860615735967015 2.957443631392016 -0.19889719812296713 0.35476312818707295 -1.2325184641763678
Ni 2.7314545423344128 6.722085255857297 6.831566290737272 0.7878919380682431 0.43011804807930437 -1.2599948152197655
Ni 0.3909709585566549 6.3051122847793835 1.2426885609510023 0.06840291405443058 -1.2005280273127004 0.6385789786313067
Ni 6.39442056014142 3.080949943631724 6.328083234184002 0.018940031437612543 -0.3049451762236813 2.5070456686843534
Ni 4.335310927316258 7.132331808938383 10.791929978838011 -2.3025884599751056 1.483418537729187 0.22918890712797305
Ni 5.6044143636862565 5.060557954643329 5.259278609032684 1.4139280470375328 0.05148325548095649 -1.9338431585763276
Ni 1.3574282630318084 3.375270161719183 13.046088105717155 -1.6322735836930986 1.1863627915559118 2.9991944087431577
Ni 3.493219061020821 1.2478572333179452 9.44790537936485 0.21861190294307514 -1.6237632322292423 0.49561638689243037
Ni 7.2004681037917795 8.225026815250853 5.568119539957159 2.319619447315463 0.929999895116308 0.27462415664263673
Ni 4.729163576120933 1.8104826680265067 7.256712091626782 1.6173874106098853 -0.26585618064201955 -0.0007085960312503926
Ni 2.4424412361010037 7.9071687730834554 8.958598828603517 -0.3308796367012559 -0.5543190429399614 1.95449863004315
Ni 4.325457884678144 8.882926162248294 7.4116349509297486 -0.44759589314909365 -2.387929030325139 1.9026736749520585
Ni 7.40873656060946 5.004779713268245 2.1466263615455596 0.45003227050472816 -0.04198560040316641 0.4408390340412343
Ni 3.2560038122719592 5.277816617031944 9.341581585925317 -0.1464135264019543 -2.2327297873107548 1.908305162206223
Ni 4.70558864076929 4.6956428199519085 7.197317356823885 0.8207184976799606 1.67979965429852 4.613509351075306
Ni 2.0868131971541706 5.118479371959473 2.7458824769921635 -2.2002678101273077 -1.140959680830764 1.580930196224116
Ni 0.7070244651373169 1.2171291003448446 12.831825250737058 -1.5370504641220302 -1.4806641149125017 2.1611381911156973
Ni 8.687377593808066 5.939492035925536 8.876621884967129 0.2511258164103804 -2.2013345608289248 1.650303701721932
Ni 1.403937964298159 5.2757754970880795 7.978817649803886 -0.022846822691186458 -1.235372131575079 -0.12970906916307984
P 6.4485473499255574 6.160489658938595 12.015019149418944 0.5966355443199853 -1.0414816426380835 -0.8797877930382912
P 0.741365380411059 0.10854768639655285 2.322963352405052 -2.8714512050571965 0.1715540302233239 -0.5038709135917387
P 5.516581261374559 7.2036411175226975 5.012615758289102 -2.260869482969764 -1.610889975811 0.08239048658277423
P 4.555900326340544 3.602038587482625 9.735725558212891 1.571486534312713 -1.5605251502052029 -0.524086212197349
P 7.183665975526597 4.9001815939630715 7.461755578933156 -0.9748898136504629 -0.6122290278828681 0.8549393665360437
P 3.080634497822217 4.095386555732811 12.113915121826391 -0.387398654833907 -0.16079422060365856 -0.7764566996481079
P 6.376542204996745 0.25798921086844834 8.00122265231498 -0.4309842527343416 0.12906475071086163 -0.07730921540512492
P 7.835636796868901 0.5755401572624733 12.744159149148041 1.4819882330405638 0.8625845417861273 0.8765674863287807
