# total energy = -381175.92463401577 ev
CRYSTAL
PRIMVEC
9.14490462464527 0.00000000000000 0.00000000000000
0.00000000000000 9.14490462464527 0.00000000000000
0.00000000000000 0.00000000000000 13.38449229928950
PRIMCOORD
 96 1
Ni 5.993936197115666 5.844325559704442 10.837570523909088 0.10774130664273703 2.1421490516077046 -0.3856405344922197
Ni 7.633032297790362 4.601990285113079 1.6335908681733793 -0.0017825458217195108 -0.5116389875729318 -0.48441923262503017
Ni 1.716242514929042 4.912350053600982 4.486066732361496 -1.6867465179299983 1.2464268467273436 0.9275159523521899
Ni 6.629689957068494 2.612662632386118 0.20217097595162725 1.0508666833974096 0.08587381714568436 0.1989437350901864
Ni 5.007457060268265 4.393989432550837 12.590175922550738 -0.1518418965063772 1.6620346170056148 -1.1493365920405496
Ni 8.722318450883302 8.099870526959405 6.717435315623547 -0.49416345649598764 1.386280460523593 0.7388712851951662
Ni 6.354583795378894 1.6163344334059602 10.724149931515663 -0.4873055530338898 0.8644138816853822 1.5432295963495486
Ni 0.6192005683404767 8.609406315179367 2.7266081422971107 -1.157291071000936 1.5893934965001209 -0.05337533029734678
Ni 1.5380174713772488 2.6468371404549287 9.357995393638435 -1.3698937916354537 0.8307859092182919 -2.2380427148832354
Ni 1.7403301933484283 1.7428358971779316 12.445208153147686 -0.5581839252120064 -0.20679948368917933 -0.6301192778997278
Ni 1.8256795869278262 8.917553016781358 5.945203915593621 -0.4969608167354667 -0.13462681817967137 0.43739915512174987
Ni 6.332846357412728 2.878312962835912 2.919867408825924 0.5846480329408059 -1.0598058948685685 1.3638974648427027
Ni 2.3622568577165506 3.8860174229981945 11.126796418126984 0.887267389244788 -1.0175295026978606 0.5402589653024695
Ni 5.894558520052843 4.198809736079704 6.44358932177229 -0.4270198687699549 -0.8878523152139807 0.35338835932673335
Ni 3.411113388071407 5.417935243082455 5.9343086763875235 -0.2149938465745136 0.6676126468594954 0.5797927617310338
Ni 1.2032590977173927 6.585529213299617 6.911537742346084 1.748001250975422 -0.5549769882389345 -0.9435724915944201
Ni 7.209925001879295 7.538684318195521 3.299732109378636 -1.2483351194936503 0.5208119123214515 1.4144679787014027
Ni 2.327231873530427 8.144918326463543 8.340800351599297 -0.0010081295495401991 1.2771021643240135 -0.6378876089912369
Ni 6.784686943222701 7.950278179357157 8.226189092641633 -0.3886055306578146 -0.4870011344195935 0.3420731914242302
Ni 1.6094391754225823 3.556810006362092 2.6167622930677474 0.6938222153753277 0.9814371278506774 -0.7002893111569101
Ni 2.9217604040547824 3.00992642821625 5.504853902271863 -0.857441307022291 1.4923598060828749 0.4042105841849232
Ni 1.435887178063768 1.4952376081859469 4.011908007150419 1.311885847662102 -0.6081738839768881 -0.010710958659600908
Ni 4.477052600008426 7.370253467349562 9.45155233899513 -0.1079937889731753 -0.2780560651423212 0.08007495107572016
Ni 9.072330525227871 8.152106221390513 9.477104116622924 -1.5213525937707992 -0.3466839507233642 -0.05085744897149951
P 0.42435740435447367 3.2186954527554197 4.647095697515486 -1.0039867310164194 0.19087972713512932 1.2713282379547137
Ni 7.868367269864961 7.910744757258825 1.2326325309304031 -0.21805757310150187 1.3101680936400468 -0.4531998695994324
P 7.546887297520575 0.6123254291469707 2.73257793594638 0.10659690862564868 -0.3154393908867858 -0.49984790847527455
Ni 3.629987532068976 3.4632393436486675 7.980302729769659 -0.3791559552091406 1.5611722968708985 -2.7894630961191638
P 2.9574163866505256 7.509009103134433 4.938744076932051 0.9052679395872668 -1.682251458273122 -0.14775821335530684
P 4.595689445921372 2.6582134016370538 11.652324815314225 -1.0315276167491656 -0.7264456578373037 -2.272091319827513
P 7.005792443915154 7.15277849373854 12.447711113505843 0.5973022313697068 0.4674787481159497 -0.2772813917598257
Ni 3.6773124127904353 4.527852544435035 3.317091881566761 1.417267652933727 -0.2408295766906949 0.3043116564047404
Ni 9.004429609410124 6.195041791694529 2.718524046730392 1.3003343953790767 -0.4776032381444613 -1.4034243192927314
Ni 9.018649935887781 8.717279608510832 11.775863330032331 -0.14577537859732312 -0.1266885371692012 0.6369740960380321
Ni 0.04116487305885582 3.882652098146891 11.23381832085069 1.4098978428322169 -1.5751123039907582 0.7328065670583251
Ni 2.2839398956878396 8.130249899666012 12.120862167736998 0.9804490529057953 0.7631034182696536 1.7746448217048791
Ni 4.315654180713151 0.06891051327313773 10.903234596089257 -1.2774333224111871 0.7797564534453022 1.152374350425609
Ni 8.583169584205478 1.4138936827719595 10.015066840441465 0.6830570064390236 0.9789092192225011 2.3896987206310523
Ni 0.9949107387846359 1.8295570264304153 6.688993748177786 -1.7238534500846248 1.001530813276759 -0.8585458529403794
Ni 1.7777328527012344 7.144310312183357 10.2461101088402 0.3088853918183519 -1.8884367054170703 0.48651571014274275
Ni 1.6491463507061723 7.535757948759605 1.0273504584722173 -0.7298274298253431 1.682605242068115 -2.7318580440111857
Ni 4.104132539923323 1.984270520545518 2.424734845173365 -0.9202204471320409 0.02648004856839956 0.23976719686445158
Ni 6.009080158946533 6.323244207701127 1.0067442451911226 0.5524074277395454 -0.07090768275415531 -0.2738926777932509
Ni 5.442653919911462 6.048741609707687 4.982752100795989 0.9299356175372758 0.6540876157898671 -0.26924540882922665
Ni 1.7965530661359712 1.6340206786842797 1.342866124110026 2.123555090655601 -1.2587524581722322 1.4221830879574733
Ni 5.643567471496093 0.7445781233509666 3.916115132646594 1.3067099598881173 -0.19505005646273504 0.5039447042524675
Ni 8.73994068183021 6.284076581782284 0.07060414958417431 1.7789102818494524 -0.5017368979678714 0.7290568702079057
Ni 8.285219451106759 5.11735137749141 6.332752164896509 -0.05853656278331209 -1.0238302481049077 -0.7220678404845823
Ni 8.602712245094708 6.119824952286992 8.312292026350779 -0.5483851939540297 -0.9285953014592976 1.9244573464860533
Ni 1.7446740229798667 5.552036122483322 12.553221363517807 -0.819311332919789 0.8253817074835849 -1.0174778235243185
Ni 5.111544363142013 6.294913293599662 7.423199720859327 0.04836553578758122 -0.3997371217946019 -0.1589779933305262
Ni 9.084410944055513 0.6438305395959564 0.6492937055366327 -1.016711120561623 0.729751325171769 -0.5476902247695342
Ni 4.725903740915162 7.033272881899307 2.897434958118728 -0.8122282008207624 -0.21696202604447795 0.26834706538467334
Ni 4.915578204884977 7.70877954165816 12.653431226888967 -0.6653153661848865 0.21481309802227522 0.27704716426183257
Ni 3.700375861907251 2.006044538129633 9.582092192588666 1.1286371547096692 -1.4768776512868758 2.5617556586327237
Ni 2.98472307144942 3.527802369328572 0.09541793341984751 -0.24269645469610462 0.12885289181037163 1.026811956441051
P 5.813516376486936 5.1031036163002925 3.046471295528153 0.8177190487320046 0.5469037243124968 -0.30878948967043596
Ni 5.554770448925006 8.928664075733353 1.7816898528728622 0.09302919724354301 0.36145570971590013 -0.7276936713117919
P 5.299847091438743 0.25505138614908446 9.015338565972952 0.1711411110556214 0.6358687787889953 -1.1553678858362941
Ni 3.656343146801197 5.949802888060252 11.36340710437755 -0.4934132085935245 1.9224765686105987 0.553306285404731
P 0.446614272895515 0.5780850777658519 8.301584257686672 1.2260025174347209 0.7312384512402568 -0.8694745840377414
P 1.3678765233921746 5.37751476524886 1.1504628206412182 0.14784743063500344 -1.2510070098988584 2.1908791698235563
P 4.865070897401958 2.7792919370480926 4.696136162318751 1.5187082141694168 0.2912810484730274 -0.13267535088025537
Ni 3.743914752170994 0.9993368725564593 5.1436603532107465 -0.9125878702874477 -2.221255468122568 -0.18057834520912125
Ni 5.851293976923718 2.7286840356157143 8.827701586722894 -0.12590512203595736 1.353508665409211 -1.5921754301206321
Ni 6.657014931676362 8.548638424861666 10.703082815048411 0.8286752906331923 -1.8589183842429793 -0.23564597560722644
Ni 4.333404440322881 8.496256411958763 6.9505535628504385 0.14458161539953812 -0.08204493031789742 -0.0968503707618461
Ni 7.256920666039214 4.879757614008463 12.569724258155478 -0.04358379812822171 -1.1304369269225691 0.9391195980293892
Ni 6.583325291318194 8.607458450523584 5.836133554264774 -0.6239524869673835 0.12764807286899305 -0.2190446196051195
Ni 2.950749751279329 8.881823874949717 3.1659412422398865 0.8303961299790409 0.7790203466102261 -0.07752878761509874
Ni 0.4492525778400833 3.3933174039392404 0.508324088375401 -0.834089262559912 0.568618233171453 -1.153940152250832
Ni 8.756511248761086 2.4370438866131883 2.6234810543945213 -0.9491240175402685 -0.644675835557664 -0.036790172245155996
Ni 6.757014462244316 0.26186525448252596 13.047028830510163 0.2636044084933654 0.060776250747108226 -0.8240485904944582
Ni 1.7368734194522524 0.6488154270319502 10.439622689223311 0.5357137691339483 -1.4054518912457215 -0.6102798745762974
Ni 5.264456311073131 3.9706352242186136 1.320249860822636 -2.3549119519691706 0.675527787941514 0.6306684655349785
Ni 5.520312448817092 1.5281043949130821 6.573686561988644 -0.8247307041631474 0.27325555842988425 0.7434841013768293
Ni 8.78663456414205 6.110570308945906 11.124332780858122 -0.2100089917654125 1.5203326371467172 -1.243584492182542
Ni 4.283811623288586 4.339604685565229 9.98697277936622 2.25716195221119 -0.48540242247390597 -0.5106395997741399
Ni 2.3200348336989705 6.600728044557409 2.85817771213591 0.4875724335420312 -1.2071956691408627 1.9920521628168921
Ni 4.545264442578738 1.5554476593299256 -0.021189658187380552 -0.8945196999318272 -1.6219881426066902 1.1160138095187038
Ni 3.0153585014816695 1.255933747563887 7.544570893213957 0.24842821497355924 -0.2916394602537107 -0.1958345000372434
Ni 7.413938676085101 1.2036889082282929 8.119246750586967 -0.36816063253990144 -1.2951613358185692 -1.8291982314707271
Ni 7.169614262899547 3.918308080742634 10.484648540956679 -1.570964343260656 -0.9387745559851445 -1.420211051832767
Ni 0.5250857838100607 7.358429105847563 4.576117521337784 0.34216189448329465 -0.6418015993336624 1.27647944313835
Ni 8.338479374840436 3.416389997960544 8.288788707328127 0.08435146696388697 0.5856690180061527 -0.08304457522700535
Ni 2.8748836236531976 5.766712755321248 8.507290653713065 0.8664908188190691 0.09581730151164143 -0.8913824398544261
Ni 3.6340935941837462 6.065961464857157 0.7342361508663484 -0.15169431518491938 -0.19509787898153497 -0.09250263531611166
Ni 1.379764899225585 4.197593463782901 6.92263325496045 -0.1247614953498174 0.141334312106834 0.8872514484051881
P 8.319732320641597 2.131448613363136 12.432373279699846 0.9718785376279651 -0.9504818171197436 -1.1361159795852174
Ni 7.841188613728888 4.561761850273717 3.9803736330070736 -0.18177802194417725 -0.1430870331318826 1.1072280929062739
P 7.591368112946504 6.808454549985033 5.255849126969741 0.1968832530167319 -0.47846610036538884 0.5056961397259356
Ni 8.55958487553289 0.6180647712031616 4.742232882367575 -0.3912414256187649 -0.6640614391731273 -0.24677859518527823
P 6.300702018140084 5.116930711884997 8.733822740728247 0.9044320739495327 -0.7676982367291875 -0.20361003021760415
P 3.500422525293779 8.823561688461519 1.0402685505508906 -0.28654121979519687 0.1226501054337694 -0.9167723406824404
P 1.2566470501138918 4.967676725748776 9.499670082935634 -1.9850135108025555 -0.3991758499744932 0.3702848779717558
Ni 7.5057169375190265 2.404359997975797 5.84358939489322 1.1923321217654692 1.0171878030877255 -0.24098101466689462
