# total energy = -340895.11626154976 ev
CRYSTAL
PRIMVEC
9.03751847582895 0.00000000000000 0.00000000000000
0.00000000000000 9.03751847582895 0.00000000000000
0.00000000000000 0.00000000000000 13.22732181574786
PRIMCOORD
 96 1
Ni 6.419692856278708 1.7653707997597907 11.332547591131632 0.5702282579710501 0.7679316928962323 0.6223969695548055
Ni 4.434529605228548 0.3508409891166847 6.090400926407778 0.5689928429020523 -0.37347330300206644 0.003557121223639035
Ni 2.6712826223294988 1.454046360530735 4.69845045212585 0.33130001206812615 1.2114544444172168 0.8338750896665769
Ni 3.361143526291166 4.361958331221079 4.788065582378735 0.20774025033589386 0.19968087036652707 0.1634478561764217
Ni 4.932090189348254 4.289974495919771 2.8803818816639977 1.388663616043789 1.4569991671953941 -0.6285280221532079
Ni 6.970041586286039 5.985656990091567 2.704855196262618 0.0740750247385434 0.17657770869016043 -1.42076872410845
Ni 4.94298943672721 4.489902481423289 11.314717470771813 1.1686892855355486 0.6334897370338574 0.026159689114503334
Ni 5.570762588206769 7.968000535352147 12.516697497495608 1.4215637092059195 -0.4754576525563682 -0.006100970691415299
Ni 1.9690312804270795 6.6173704996616936 0.22738396687770085 -0.38914726209389755 -1.0494237803032958 1.1568665818690076
Ni 2.759018852474519 1.6359264214772267 0.5795137061405207 0.5096386693134513 -0.9147815355046569 -1.2593852066602245
Ni 0.7250403486941048 -0.003309539295334422 4.553558243374921 -1.2123296479333185 -0.645363862763624 0.6676103328666502
Ni 8.59116455236797 2.34759485771536 1.2468684776413157 0.9197648476518611 1.1165830517586126 1.1980278865986658
Ni 6.81198442425408 0.5273410152665827 4.90760122531612 0.2117293168906289 1.7984555509712317 -0.3196876246401784
Ni 0.7147375775398689 7.534759970797964 2.5134685695467045 0.4962594197930679 -0.8482938361950682 -0.11725207434664968
Ni 7.839604509222118 3.911862794559308 3.808093102743471 -1.2716853641838164 -0.5419538365063893 -0.15706766368169078
Ni 7.733368478592254 3.8333177207860922 12.550876488923858 0.16877029683059966 -0.4415334890050977 0.04796058703967869
Ni 7.749608899438011 8.697997059222551 7.072477340362959 0.9929633833227222 -0.13676880422333865 -0.6198106968848681
Ni 6.979061029805274 0.836016557806773 0.5311367730602486 -1.4297359606040665 -0.8846937149803408 -0.9101239821279875
Ni 1.7179419023760796 6.457785996993712 9.15624353387029 0.6067433221779486 -0.19510662073228335 0.04737771795301518
Ni 9.174256212104948 4.845881299839257 1.5329276299942465 -0.5011260038567498 -0.09779139451887675 -0.49505460085168934
Ni 6.505314307081543 2.0569753734988963 6.893709800807273 -0.21488817423458476 -0.6611062131995453 0.843849170160153
Ni 3.3844693616850985 4.254936036476812 0.4716943022595848 -0.9764077929568862 1.1174554270612367 0.013497520265802561
Ni 5.969570207061269 5.695136918579223 4.8111076396899985 -0.6098741544974464 0.04471225530571009 0.1403333816461454
Ni 5.17641046600055 2.873000036507173 9.399679037455922 1.3162934898114944 -0.7530432058201741 -0.23503405305484035
P 0.2332176851058231 5.523758454195208 12.598415644033956 -0.20098159145582162 -0.35037219820822885 -0.8307609695176273
P 4.0022018300485565 6.100487700868517 12.475150217188368 0.10151769433052839 -0.16756702055111786 0.5423451584075369
P 2.3023711148593975 8.477761769522921 1.3479169726198361 1.8110590986678554 0.12747786583971593 -0.24962146395071205
P 6.130374774734357 7.679441605366529 5.826820793960049 0.05558982145016233 0.07959004101950164 0.7602047565656198
P 4.911376196817106 1.0841949511307736 12.778254129538569 -1.2276706491657632 -0.6959680580737369 -1.0125636740521529
P 4.067732877100632 6.249986332827615 8.084645076103355 -0.3230462566997662 0.013809909299898795 0.7367223571729634
P 4.739012642910448 1.0688130945478702 3.9162134559923336 0.05599708419091002 -0.23128487042505327 -0.8706341515634813
P -0.04426395838527835 5.7801980432315645 3.5469196614872986 1.1776632068993846 -0.21418137797554726 1.415424171967085
Ni 1.5066808686029023 1.0330335585832908 2.6022106755070467 -0.7050805618979663 1.0893244731529754 -0.43499980165163793
Ni 1.8741011855112062 6.604916799091047 4.727722974729859 -1.6882254164683699 -0.513351085168032 0.016481799705107096
Ni 5.950103392090896 5.4275540691628885 9.045689376874206 -0.007198574630968247 0.7149386856389687 0.8819081818154038
Ni -0.33428967763259 2.3585121801314277 10.296412356179804 -0.02791266724986806 0.17286195040147004 -0.3244829891462928
Ni 2.380645063075922 5.236446701770366 6.914344263175126 -1.2689587092812726 -0.25564787265045 0.5944557630598472
Ni 0.6740714552918724 0.16723205087036375 9.159668753403148 -0.3248475715745631 -0.1257981641444479 -0.0993512828068289
Ni 1.5543176289134095 1.1020621253166722 11.567967719509637 -0.2708304939281594 -0.12702175213890382 -0.2137005816843868
Ni 4.168184895854433 6.7842211672489805 1.4692113166682859 -0.1525414936765631 0.3596513095173096 0.23227371670088384
Ni 5.742945391742301 7.989916517851288 8.119220814596229 -1.8648776871502077 -1.214673722685463 -0.1553331974890873
Ni 5.190680707801023 2.8635377545786773 5.016369568645472 -0.17258041460530923 -0.32256237508481217 -0.502881810205592
Ni 0.9510271152029944 7.551587830349883 7.197329755467043 -0.526033822842023 0.3673584483535802 -0.9670538625458119
Ni 4.920576390707468 4.6283391906694185 6.9095164207623245 0.5633600700963072 -0.23206108646944554 -0.08391077988204258
Ni 8.139207286883591 7.263733826811661 9.163253937014451 0.03498937159099135 -0.2577698040894593 -0.02996800711700001
Ni 4.646432302819226 0.2862805715575613 10.370775770116996 -0.2534328672770022 -0.540233768491489 0.22290718788431935
Ni 7.906165833389617 7.49221133343468 4.527950434545511 0.7856792466876404 -1.214268002606612 0.5373551613921133
Ni 7.156359068843698 6.113709590516453 7.033575341737161 0.6027496276375232 -0.42533759597152554 -0.20080289978611224
Ni 2.291327267183541 5.233066669830293 2.6960192143700774 0.34869249651296075 0.5008475533843826 -1.122180857561364
Ni 2.3280738176336495 5.083703600649539 11.246504088212214 0.6904165321278884 0.6498008154890551 0.19123865313644484
Ni 1.1472316430612968 3.4859697325914363 3.773252564956896 -0.4069112709455379 -0.7782441305658339 -0.03379560839320631
Ni 3.5716092584313843 2.5850195077091627 2.65833456949382 -0.2235111400169054 -0.7894543974593564 0.23253905454712853
Ni 1.039305596461396 3.2983237348059946 8.195661954049527 0.6291689981713166 0.44740254619136494 -0.1549519028902686
Ni 3.4940402366622543 2.7428507317772137 7.05626041706545 0.6297199855787801 0.09459448484813386 -0.2577996288861302
Ni 3.897203939460913 6.771930142012348 5.913512286959957 1.2087792115778988 1.4666731999500484 0.04881573595112238
Ni 1.0943169719138826 7.175102882329562 11.3248358765475 -1.5518098818193922 0.4881470750985787 0.27218829350763446
P 0.14995864165361697 5.63348296698782 7.993786383297117 -0.37269451585451296 -0.9083956865829711 -0.49677801130069926
P 8.506600491236226 1.5524378250536894 7.868351951998004 0.23678266031483092 0.5377467404035771 0.6245602957547114
P 1.8432470971598363 3.1483190018077405 10.277298908184985 -0.2711750217517717 0.6686919959666032 -0.39426478582612096
P 3.9914381454479466 6.203569637522215 3.692446304040883 0.02205569424845879 0.10034912794372394 -0.17002936604868138
P 7.004049768613575 3.9263770493608017 10.374426927613762 -0.9247466171371687 -0.25729106468082785 -0.026764669688353906
P 6.409010509345105 7.784764846622203 10.442931318270873 -0.3504539592887578 0.5444354652776623 -0.8881083970888446
P 2.357771103609807 8.543645279798694 5.826966298008807 0.48273901670912994 -0.5880038367869165 0.4720995347174127
P 6.843597664164182 3.918369807919878 1.638150554793944 0.28860350164086424 0.16468095725257445 0.007229427868903678
Ni 5.210165597808508 2.9562084698554636 0.4377331150285425 1.092180711654848 -0.18339781693578738 0.4424958529183669
Ni 1.6818099031878024 1.1938742763306056 7.082053495025265 -0.7318863692369009 -0.8955435132106512 -0.4537413439251992
Ni 6.886742777752186 0.6200451693620276 9.195752853743075 0.3857081545053615 1.3751979774571865 0.1472679039824496
Ni 2.833515117934491 1.6695369529882826 9.170687296027046 0.3159284147080624 -1.0038679460503679 0.6069286987158774
Ni 6.486498193447227 1.9851180634573777 2.7053179172127035 -0.14172511978734945 0.3024517203778662 0.3997245233891116
Ni 3.842038926192968 6.710746141385875 10.3073902299702 0.9462559519638543 1.0126467206842624 -0.062433069624240854
Ni 8.106907195563206 7.278103481316253 0.1265632173668004 -0.3064186754454142 -0.2942180196141643 0.38677696208950807
Ni 7.762930201790067 3.7675426607329965 8.214669663077236 -0.7191892333852065 0.4354428027263275 -0.23887965205317566
Ni 3.318296650815523 8.306283892434786 12.43671184326451 -1.1170075408905409 1.0245409010186872 0.016021058018604668
Ni -0.04709179794155946 5.015886061402708 10.249269948134328 0.4303859570287104 -0.7461464787003408 -0.1419305509299362
Ni 8.92736928018265 2.1654707837678466 5.690406681366831 -0.8599630450028803 0.01927041819383778 0.12286736365089808
Ni 3.600610655478703 2.6886527329947985 11.579674017295673 0.06657948769244663 -1.1413070368678537 0.07252336398070736
Ni 1.3227944785369015 3.384062673350063 12.301329815290426 -2.021936866191466 -0.4207754305221399 2.593573831584585
Ni 3.1318887930723007 8.31322470668606 8.221653857417582 0.6331922603980967 0.2034693908746818 -0.2257153467570758
Ni 5.509678000284417 8.01507696951216 3.650344120094283 -0.25708666197950564 -1.0655060305771393 -0.45791912945197266
Ni 3.0557296241979617 8.347115401272363 3.5242083773551975 0.5278047986995168 -0.35705012444903667 -0.5554567560888305
Ni 3.4946096003313043 4.33708708015401 9.09059590282884 -1.2028484479157608 0.5983656396372146 0.0001462957698771674
Ni 7.111044950802172 6.030600569872282 11.430654373820062 0.16788403757090442 -0.2904323273194869 -0.5004413190848994
Ni 0.45386870065904517 0.10180583903354232 0.4941154820460271 0.08662097972435405 -0.05528334595333704 -0.30658014072394296
Ni 4.823838792080325 0.3409295425159385 1.7157692829151336 -0.8090834845441937 0.04625054632710744 -0.4247436711412685
Ni 6.083451978389801 5.480721790829881 0.27377897213856595 -0.8234592936498916 0.5546962237737221 0.6853694566222842
Ni 8.273676525483484 8.817617654834367 11.169283010907504 -0.3010180732551332 -0.1313394056776512 0.4892526494579317
Ni -0.022958912140544963 4.655912659784834 5.902983577841812 -0.0641870762008701 0.908149632010436 0.23502813951756943
Ni 7.817336063499278 8.77408392794844 2.4861942422955035 -0.2671119074259916 0.7511184779936354 0.39131650183107447
P 8.603021776713897 1.6473859950066752 3.582038554845409 -1.1469889177439796 -0.15503829195648783 -0.297870528765087
P 1.714290744879315 3.209177651766184 1.6505183989383052 0.0782443256248846 0.3355808988316672 -0.7781238029378857
P 4.753915511009866 1.0925456182768385 8.150570158964488 0.5573706852820917 -0.10401346416918861 0.420753576145269
P 8.481033351240319 1.554145916060839 12.423855069366251 0.605822353025576 0.7168045352031138 -0.9992502447726984
P 6.269895986207249 7.666020890310353 1.3794777949223125 0.4724813435368637 -0.2864203779466164 0.16683374192951914
P 1.7667264275432426 3.3311118521284233 5.844995243776864 0.5106820229763012 -0.5131004026098066 1.1311588926902583
P 6.796729092930965 3.994691652128232 5.9386049572316555 1.3086300597289655 0.3250501745036724 0.31242914330555227
P 2.3546170096336416 8.565606449890618 10.370736005035349 1.6258753934762389 0.1509612936736368 -1.041538206907632
