# total energy = -340856.44243230537 ev
CRYSTAL
PRIMVEC
9.43595467786618 0.00000000000000 0.00000000000000

0.00000000000000 9.43595467786618 0.00000000000000

0.00000000000000 0.00000000000000 13.81047347197277

PRIMCOORD
 96 1
Ni 4.359901693785299 8.335646803988258 3.507100876343563 0.24803329352798575 -0.2667316412684374 -0.29637183273237344
Ni 4.101554692854348 3.225077178136015 10.762336540465745 0.35974849721680624 2.5222015504891853 2.419744375063523
Ni 6.563574530536614 8.671821558441197 1.2969757338383274 -0.15949632772784145 -0.6202788947705382 -2.8446099164946363
Ni 5.293778120321557 0.07100650194329589 5.333314770086 0.9624433603569942 0.7815490265693508 -0.0415359144602575
Ni 4.152508847682031 5.391761072864272 3.590723249584009 2.4741496892872807 0.07704876265488665 -0.5134572717285932
Ni 0.03831186285765903 5.346025000929128 9.933044460308766 3.052103598037363 -1.4527630176268593 -0.3216475765800267
Ni 8.93135748965146 8.710801486884375 7.3945698004984814 0.4176235151567194 -2.3915928523299717 1.3954346162190354
Ni 2.8235490021392753 8.098700548084935 11.70114419687477 0.15961228448041542 0.36132201235151323 -0.8805264709765287
Ni 0.18044375977218208 9.308342747739532 5.127510938736989 -0.5601952992150804 -0.19876992851648348 0.46413220024122004
Ni 6.58977817645448 7.701144908973834 8.294031413425937 0.5743042278126367 -0.7245006182957909 -0.4560553367703565
Ni 5.657166167834316 3.194995354878487 7.993004646254044 0.38934600836826494 0.2811439600390255 0.3975272586274767
Ni 7.703192511121539 4.208643341583862 13.230226485503252 -0.5798750370321948 0.5583281640993546 -0.35187089424094237
Ni 3.2486576286757156 5.474571010413854 6.687818688320241 2.7938815369018335 1.6371242269171804 1.400212754333969
Ni 7.910991103272509 3.565366008793559 4.454678308955709 -0.377617149967111 0.3762714345724939 0.19293429567131287
Ni 5.3994136320430215 4.995498159533058 9.805809104917662 -0.5707301373081333 0.5032502492886044 -2.9476221930928204
Ni 4.514481502005133 6.998572037491464 1.5520210942555364 0.8740979417423655 0.17546210702847845 -0.2874519045349243
Ni 1.4136192301934916 0.4822706958939627 7.0393778231493 1.42061265814656 0.5658681812301416 -0.5146050121797912
Ni 8.136302827156845 4.191252877260266 1.9501079776104886 -0.8222372483173322 -1.0328118827782278 -0.6212777683486977
Ni 3.8603905652458437 0.9102157703824774 12.308805519035984 0.2503159189145754 0.8765492314963355 0.5691167700744264
Ni 5.284955502772689 7.1382524734015 5.807897993769201 0.27205845279798946 -0.6871640866288616 -0.04171769145376041
Ni 7.458112462354982 6.07456561946442 6.327904015694902 -0.24722930956945163 1.1158564580052333 0.512217228673905
Ni 5.500887887786893 2.8524607670266864 1.2200736474623768 0.051836267945001055 -1.3248382940577117 -0.31411090188334934
Ni 3.5132795394141496 8.672708538173381 6.64517194792039 0.2668128881283341 -1.1895543019100159 1.7227980122369169
Ni 0.7641236033232915 4.028322249221451 3.681057417329813 -0.32003498067726815 -0.7113442834194911 -0.8471319546764831
P 7.363630248968019 2.2452759605726587 2.610676697201112 -2.9053871956830095 0.8082779579237628 -0.532829762717934
P 4.627882804360521 7.233310280018921 13.078808665669113 1.2945614974510415 -1.3412794703328708 -1.2740304673772254
P 5.700118633163133 4.776234882545861 11.722937477613662 0.20348404616270116 -0.9539247813630216 3.4098196382051724
P 9.35820233183388 2.0378831144693907 6.672046490210154 -1.2373914759979527 0.8627830309501785 -0.22225001391629465
P 1.822564066504039 2.594500640234242 12.758750521669079 0.7495696454492768 -0.6179080805455165 0.4269903010836001
P 8.48515006863452 3.371806272130547 10.125535103315856 0.011815761688005457 -0.6342996345296624 -0.24441883670385003
P 2.4314662166948517 8.361180497129686 8.704962518179306 -0.3928437371088783 -0.31814470563309083 -0.9647180153237837
P 5.63017933768484 0.781972655040337 0.0717859117930675 -0.5180641743729852 0.48648202869132984 0.23486847401125355
Ni 1.5851460128708292 2.699371839633292 5.481225245596167 -0.26606778243219337 -2.434376780264717 -0.15672365007871072
Ni 9.59164784858145 7.827652752265453 3.161521305943078 -0.7970504646390595 0.6808813389439435 -0.7523567212761106
Ni 5.451707692423581 0.198927851233654 8.527497689273623 0.9434940729480008 -0.3684804777731654 -1.6708696987987415
Ni 0.24523668561287995 2.352525020530334 0.5236162181547884 2.897909142138409 1.4283817605690174 -0.2854222756994052
Ni 7.946083418421426 8.575074715950782 12.927072854165031 -0.09319451917681369 0.7335179913030528 0.3140106288600592
Ni 7.09882905509223 0.21765255953736776 6.736914903687633 -0.6690848605296477 -0.11096984088236372 0.9903400867672622
Ni 1.5066011267994155 7.243586034575837 6.602152487313929 -0.682485964426902 0.23392950713675195 -0.19346548558443455
Ni 1.2584921366069899 2.7325769638626656 8.500318365650353 -2.8998793784909025 -1.302598765933221 -0.029006671644995204
Ni 4.192111549128658 7.046648226166843 8.782066533983647 1.1824457158896926 0.5977897125290866 -0.185312517459997
Ni 8.373296262833158 6.692488542250652 11.50112743648054 0.2948163153197955 0.08761908197156523 0.48931564148538303
Ni 8.933055961479049 6.020148469299374 4.513386931271798 0.004148989171367048 -0.4559707474763502 -0.005031134666004238
Ni 9.250840040421032 1.7973606317735316 3.026592816768454 3.3579759140610035 -0.16395796304362087 -0.2784931526797397
Ni 8.194975592845463 1.5615466904219337 8.470736647986504 1.7756449808346195 0.18347649269252272 -1.3604269897955987
Ni 3.2836650202332534 3.44212300579275 7.931023634883466 1.2006843503849065 0.24611910722440838 -1.81510395816119
Ni 0.05234878891722595 0.10066559443484652 1.228535811545611 -0.04539462608471537 -0.783438787392896 -0.05478609460194436
Ni 8.455502299288487 1.5403629723500545 11.923493031015422 1.2739890726163283 0.747310417101455 -1.6779559162215618
Ni 3.364993512910994 8.594663757695647 0.043144958802610746 -1.0167818258985586 1.218454529884134 2.604810837950985
Ni 6.051390914972422 7.409394628766957 11.180199297466597 -1.4945277602684712 -1.034597771034057 0.22431280998259434
Ni 4.158821501307905 1.5466001383391466 9.578378065630679 -1.0465258899302106 0.6169349179989698 -2.4861752529932475
Ni 0.7498913530035519 7.310062334716769 13.679274128854106 -0.30147881494163564 0.48264362878184613 -0.13008804976905336
Ni 3.9705364632650184 3.994834046354145 13.111262687912507 -0.05961308367694249 -0.0418246493452699 0.41027993030745463
Ni 0.7864368051605178 0.32291535105222297 9.219581553625169 -0.21987380037463425 0.20354832374173332 0.8708393255957518
Ni 2.507057648977179 6.1183012690248475 1.0407914537011738 -1.3909922641769659 0.5921913925057026 -0.4086135983486253
Ni 0.9366439920197689 7.554783817208613 10.178664245678313 0.5028008204560115 -0.765291684170224 0.1463091396136061
P 6.641298488558027 8.895029064450242 3.2369126959879346 -1.0210987081063574 -0.333307015195826 2.4220169731477834
P 1.9203394280456043 8.4368285451396 1.7892853418288033 -0.1654528024215925 -0.25855579032586434 -1.2780354747715603
P 4.743076938089476 9.35696622178158 10.629714198594803 1.4471191890775206 -2.111196311979932 0.865770909933909
P 3.82362808613313 4.59661205082368 1.5510406985728333 1.4854191130989838 -0.9461965594808284 -0.11649359891407035
P 2.7234523957666714 2.190887118271406 3.5490153866666314 0.08734860191899796 0.4847205659155329 0.03756356007607079
P 1.5431088351379907 6.08776651994663 11.977394978059433 -0.22800002902619446 1.0762511849087852 -0.02348445627518536
P 8.045113761924487 6.501901131285922 0.0020966691116131807 -0.13632220360422329 -0.14993285240912244 -0.39535827600061585
P 0.25380453238760886 5.541471928511683 2.294099476852177 1.2698501107472904 1.1464991225917545 -0.10197663624481793
Ni 0.656396140467512 4.819876172560311 0.24422137689816537 -0.5583024530677416 0.1658045293340564 0.9507659240190657
Ni 0.5937281916022206 4.196206753424068 11.918893946744495 -0.7502648717440886 -1.8762586752936394 -1.4769085045248114
Ni 6.743886186944429 1.9969593793790832 9.96161841802158 -1.7468853922034238 2.151030156147418 0.6688223508968805
Ni 1.5062331245701044 0.2778567806571948 12.836820779224228 -1.605779394057312 1.335851871559396 0.09589854837153808
Ni 6.075348803696031 1.9718974839675414 12.140054794201294 -0.4423570133476575 0.8692431847532256 0.6345552021838943
Ni 6.6641240627299085 2.3028541555279403 6.1298886212708465 -0.21742045373813523 0.0433786240959511 -0.6337275640762763
Ni 7.537657559613753 5.7639623019713015 9.277130497121197 -2.0082151457299995 0.2596605933542689 -1.286473064015952
Ni 2.225479327826644 1.6526885758813024 10.726235521770331 -2.005464065347424 0.7414827546760844 0.6727108873180092
Ni 8.064042286847512 4.077474136720968 7.213721238274057 0.1525180966377954 -1.4736380613036557 0.7044933219359286
Ni 0.9222116994625575 4.506696839462014 6.5735917399375525 -0.803207485379391 1.7200117077410315 1.298925945067324
Ni 4.13352370703142 3.2480442916268637 5.592454391203159 -0.9836603607542416 -1.922869176063327 -1.0927219288702987
Ni 2.499216370706475 4.669467056272669 4.930574073923452 -0.6080317019720689 -0.3823541504314641 -1.6366971666820909
Ni 7.732453406329065 1.7434907669751532 0.2145235969927641 -3.4172015324915406 -0.9853837712032513 1.5725455717048467
Ni 3.5310474419216544 6.061694977393131 11.004433883983964 0.43792777393171034 -1.6565116303048568 0.40383083224800137
Ni 7.7025036864359055 0.8995908855054456 4.39800030406905 -1.6051885545508484 0.14885838839802107 0.26612228981921265
Ni 3.0907846723012775 0.9053789000556866 5.222554591422513 0.35291836166885027 0.9199042014432027 -0.7723825295787342
Ni 5.105861084507981 1.5914397945875078 3.4220140429495505 0.06379909673383205 -0.007591953414644989 0.32160258227470423
Ni 5.833882725540399 4.490646280691294 5.666271864021115 1.1623245196597853 1.3909025326766369 -0.5869702533160794
Ni 5.912654074522158 5.09308480198267 1.133734662893247 0.9277347532312151 1.2041710233819263 -0.07948256890735989
Ni 1.9913355504388426 8.873081034055947 3.835844816550797 1.6254606745363234 0.4965784936953835 0.29664899765316005
Ni 7.832266934063739 6.717880696073115 2.2220361479939363 -1.6492981432755531 -0.5021292483102836 -0.39176284533987366
Ni 2.1259205708661097 6.02972596321606 8.623121653166908 -1.1136604787951787 -0.8826620292622928 0.7273319170969991
Ni 7.181337042094685 9.276090654924529 10.47869646323561 0.6273910803352872 -0.4875855461681538 -0.5251167103443924
Ni 1.989344564018724 6.332186051891347 3.4784854004305203 -0.870038169850695 0.7425369069722115 -1.2215113144325866
P 4.165577644799872 1.6681446695123663 6.989673932305815 1.1785391817464348 -1.7907373563913678 1.1564058401825053
P 3.230012182390622 7.044902574566264 5.005122833222732 0.13195389933319857 0.9186083654499148 1.1573417217332134
P 2.423417347422997 3.9942961969420754 9.668532950239126 -0.49094160712458035 1.7132152536444882 2.4967687122383775
P 7.569324623243698 8.057899480404396 5.4562416686077855 0.736763494823544 0.20453459891440257 -0.6634616008055992
P 6.535266666743457 5.634991674529677 3.8734782342728797 0.5139480953220826 -0.7399110393135903 -0.15316318642096202
P 9.175041017137556 6.258359143118793 7.707584004391317 0.6399941138112785 -0.12402564562505737 0.3346491310460172
P 5.605268417546862 5.50160502033632 7.570114412643528 -0.20367173669347502 0.6657079736376148 0.9486301086229856
P 9.37640428825288 9.126002361093208 11.151570611217117 -0.796813408927589 0.11699187870672756 1.2143824166972892
