# total energy = -381166.1504639818 ev
CRYSTAL
PRIMVEC
9.26298583892704 0.00000000000000 0.00000000000000
0.00000000000000 9.26298583892704 0.00000000000000
0.00000000000000 0.00000000000000 13.55731609223455
PRIMCOORD
 96 1
Ni 1.8488919294900878 0.13147881787165483 9.198340168353553 -0.11091790459850576 2.1231036049404794 -0.20615953611233528
Ni 6.95733586834023 4.904435943584162 7.489806554749195 -1.2525825819160943 0.34038166265442027 0.23207497042651642
Ni 0.0747930510795329 4.771688096682747 1.2016463671756479 -0.6018859940856472 -0.4873137805640059 -1.8135967774880444
Ni 7.7184568706565715 9.01827606461332 0.5226945313870016 1.4802841058652636 -0.20720443243708186 0.6806064880160021
Ni 3.0431686653075074 8.038048400472537 3.6115473154673157 -0.7031782026689309 0.07301675867735812 -1.7789241658065233
Ni 3.991364925178867 4.49240908027931 5.709459792538835 -0.31780069203011074 0.4543005588627789 0.9321758197217044
Ni 5.454555396492413 6.80676603710846 11.311722757706844 1.1377319179220857 0.4413797370360527 0.3100902107597305
Ni 6.157504849123393 8.268557797593584 9.524312968962233 -0.6705771288044581 0.14946259764092326 -1.3704239531073108
Ni 1.765330536223905 2.6859230989515748 8.282774627921146 0.5252234111255857 -0.14249156563972878 0.6824317141501989
Ni 0.038072723489930654 5.341787809570508 10.405578599947205 1.1722885728510326 1.350595605527474 0.2951590433711949
Ni 0.3234977308513676 1.9510626608642145 0.3187485981246663 -0.12960673925726066 0.6827500167215661 -0.3426012960135584
Ni 0.4787861269572976 0.7762483841302195 6.878710720110247 0.9509212186500074 2.1585971698613986 -0.7196867418469154
Ni 3.8562920688871616 8.527717609233232 5.656451431037333 0.4184133580478665 -0.7324180733706547 -0.09593043005073802
Ni 3.685204724509997 8.56062899713643 10.457733840473225 0.7228355718885422 0.322813828973986 0.1537977346811674
Ni 9.209325142998756 2.6271216662441446 4.6365346524161595 -0.9319516195260401 -0.5820301357019848 -0.17865387449289877
Ni 2.940784885264151 0.963044825818116 6.962074811782751 0.39274552096811716 1.4231601071587618 -0.41535683060972983
Ni 0.5291387904819227 8.141775313430603 2.493990331738116 -0.611398561561773 -1.8008960420919242 0.9507425269802979
Ni 1.5852951477390884 0.726208809519506 2.133420279843636 -0.45052540809106284 1.7091914771970758 -2.2215904828644835
Ni 4.677817000422965 4.018385054228579 10.583843831880289 -0.41518482380823973 1.5968170426577017 -1.8288758151343019
Ni 0.8553904069577262 3.2766607437977715 2.6196797835980905 -1.0827193091316323 -1.677864899169652 -0.24982072444571166
Ni 3.6975708103109457 1.4664973571794173 2.4924313712584905 1.2618640072180203 0.4605966762841358 0.8344682431658855
Ni 4.033548561686372 8.417627025155127 7.998748331388131 0.5390171224755684 0.4939965919008202 1.0005741057904445
Ni 6.23257208457724 1.5856934561206921 1.5344987872033284 -0.49043509980180694 -0.006675869358278825 0.5979072119435573
Ni 1.6528871537986536 8.221890876046634 7.060379172959637 1.4246372059249206 -2.05910704748386 -0.5869447993947827
P 6.105632129658742 8.91578112874254 12.747143724434125 -0.6887699976634009 -0.24037654831367633 -2.0106080714422085
Ni 2.3466014097678025 3.050134430492761 13.323601550650553 0.1383834570086262 0.7327142644548349 0.6768580767171634
P 3.102386932367779 8.626711136540148 1.332360062435199 0.8148219296898678 -1.1111068591353896 0.24639498659361436
Ni 7.712787923457934 7.369131157004616 11.170482605590216 1.4428285321219667 -0.31116698876367704 0.6171858576675112
P 7.211836398213678 8.169582796257904 2.7919398219545806 0.6307265724664234 -0.6152513596489597 -0.26907314491742046
P 6.3266099145781585 3.514913996896041 11.826873513605987 1.3002032691178511 0.44261386655347 0.197749200561453
P 9.374604595393002 7.259336988466309 12.850762260460453 -2.504843261716396 -0.09606464163575715 3.145794597234621
Ni 7.415418296141199 0.35210460933756116 10.780845304824295 1.6617592518570412 -0.5604061296743058 -0.13078301895354896
Ni 2.2238297983777144 5.022103649898353 9.098057233448516 1.3548255844484216 -1.54266832452944 1.2241495233863822
Ni 1.1620971237780986 7.528121042163774 11.26505861505558 1.6758977481409525 1.9508468922231756 -2.879170685188641
Ni -0.1109085057082348 8.184875985514358 8.68866661585074 -1.258170617526833 -1.3079749426434701 0.31449605313691
Ni 7.726876924583958 6.328833031126644 4.289995244838305 -2.1644086343368527 0.47046328466557036 -0.9139842364143421
Ni 4.774883826721195 3.383166552441444 1.0547168892920218 0.16909682693208297 -0.21136627712425535 0.11222145390127769
Ni 2.8837526828098903 3.783855521349023 2.203863432876633 0.6960292503289756 1.1209346438590888 -0.25657064157503556
Ni 8.533525501216149 1.2454362053894326 8.95097399000362 0.8626501049167401 1.2967646757499474 0.7869529711937415
Ni 5.644872699013972 1.4753898233733578 10.805343122890038 -1.168727852082968 0.5056658007086324 -0.9880962850384079
Ni 1.7542797943808104 5.610645967152921 12.377625628431993 -0.6910796196331839 0.6271190576208232 2.5593879297314954
Ni 8.787201625369534 4.784823010290047 5.705338690237081 -1.221788479353373 0.7986633176521342 -1.040436746313337
Ni 1.793842005958226 1.0650210344942501 4.262596259676789 2.525941734257908 0.2905680815664028 1.9643996912069461
Ni 8.507589141483823 1.3441518431277886 2.1935463194945384 -0.3150853499814767 0.23047317315703533 1.0394777248341776
Ni 5.4953959000852075 0.9880363610173357 6.194052885180488 0.08324923503864372 0.3536665526887845 0.5076242099865839
Ni 6.176586599497891 3.9289231391232926 5.446814319410875 1.7311211873906316 -0.36802179296919196 -0.21699390772367788
Ni 8.9794548918854 0.3016092958344083 4.3087046231909305 -0.9031943448876897 -0.04700567932557711 -0.08583319371573606
Ni 3.359129104760949 6.169648623269493 7.270164492355994 0.6017738939878152 0.8074485200439321 -0.3664652471153495
Ni 1.2178232452601243 5.190643673230378 7.195965198654618 -0.5020346317139484 0.6131913917961375 0.9928080886917805
Ni 4.3642278852879075 4.173095440031903 8.20925338476706 0.22875027692865765 -0.7422461152046701 -0.5208743901282706
Ni 5.513440196070411 0.16106108874349623 3.4854641867185467 -0.25326420290962187 0.32797840389406097 0.7652011813389467
Ni 8.271910998387549 2.944823546993899 10.96923775893429 0.7287966745679837 -0.28718528113709896 -0.3763449681229067
Ni 6.06406911318769 5.084897429407438 2.2222745430923365 0.1259532016650734 1.3819679491911683 -0.07945222989005672
Ni 1.9825475489821343 3.873224806598123 11.066063747606433 0.5641758811293832 -1.4843086536436243 -0.4733472910815848
Ni 4.506535133347809 2.7266246577600888 12.351013070749504 -1.174800540639609 -0.40590622671979126 1.6393312618708284
Ni 5.4442456934988135 8.401676163919747 1.1612301083241894 -0.3862141476075026 0.2532382347676929 0.48123980645578407
P 8.608935467137886 6.0854295580243845 7.992580109264647 0.45417997412451455 0.5310927254221692 1.6818210556039226
Ni 8.755735263222851 3.9516822947884083 8.723834467050652 0.5953065410959167 -1.0451274669207873 -0.9755482731700681
P 1.2588582715509113 1.9887630123322737 10.3056884156324 -2.283707306799886 -1.1329926034648874 0.1555856798195256
Ni 7.615767412087798 0.4509017613493617 6.995073271750764 -1.1588188204993721 -0.7423669570532505 0.7951751019932176
P 7.05807083694346 1.8586365903609472 3.864919613692407 0.11898294099482734 0.3130883741561059 -0.0210017990626477
P 1.1481748563932106 8.086076980905434 4.917671823734705 0.8148378705294677 0.13218349884550137 -0.3696621567860924
P 4.11699879912513 1.8178331387106275 4.774384551796348 -1.4373243144742858 0.5053719236172974 -0.647147179916292
Ni 5.292517989064708 6.884714061089718 4.000478776729094 -0.22196950656139836 -0.5164929732311234 0.21214480716149273
Ni 2.1291991372971997 3.4343352849990754 4.634758011774494 0.799828541604829 0.44459490153924075 0.6342312431855722
Ni 4.84133648554966 6.3386795848393085 8.915697761871971 0.8042978902300921 -0.09087846944912736 0.9576793633094474
Ni 8.309083359675343 6.842586002495926 1.2380202591031113 -0.6997486081620916 -0.8337329076617577 -0.27829980572201096
Ni 7.1722000827513135 8.539815068451238 5.088453489586453 -1.6982221226697658 -0.10937858513584388 -1.623531061613778
Ni 3.3335632644533706 1.8474098517910977 10.457977456994996 0.28484866258412234 -0.23197006941753595 -0.6907145229842814
Ni 4.784915640146234 3.86618493752792 3.665654267063195 -0.9438938794895809 -0.9560397708234953 -0.9927044732343806
Ni 7.269461431747535 1.6785270979911815 12.835944262366237 -0.7991816520494495 0.7249541608934418 0.01064539552898812
Ni 4.085699170719584 5.010293343234527 13.014155768982734 -0.9011472325506737 0.1392812862325472 -0.40502099590136054
Ni 7.756824157089176 5.096327953660898 12.218774688057117 -0.04680693305120971 0.3282828225083572 0.9964130324342194
Ni 7.722893840767922 3.962603354832841 3.26083308027112 0.2006630317741383 -0.6988062988534803 0.14334594322022412
Ni 7.1697361285767425 3.803659784601777 0.7526222130111943 0.43227803184510066 -0.7098676988739645 -0.6922188754439498
Ni 4.246143344620876 6.401214000751071 1.6039526533722497 -0.29672535941705025 0.2749861679677458 0.2894272830937402
Ni 2.134831032553362 7.17059758623928 9.177719836067793 -0.11775241102183592 0.42596237403971804 -0.7533854196509413
Ni 1.9887722753178925 6.022941457040716 1.6438789002844796 -1.554267342220949 0.9689528793407377 -1.868941058586304
Ni 3.6590275271515855 7.603141962689526 12.698405599302838 0.14978629952892913 0.48736057464154126 1.788408194037559
Ni 3.6738760930983423 1.077368594323961 0.08372442181307169 0.506124999733238 -0.6464465543048414 0.3032035109422262
Ni 5.987732848704083 6.125427129925877 -0.06141266835333834 0.82098486396747 0.5266555155864221 0.7229222180650775
Ni 1.6298130566225022 8.996156054955893 13.348560665400107 -0.33044717714952765 -0.5595774631254233 0.1567593884126526
Ni 6.493380707657014 2.8147990178643782 8.56040112769021 -0.7273098056098118 -0.7733752325093068 0.8563632434667638
Ni -0.03404054585011585 0.5877021644589526 12.034829393342653 1.0412453582575616 -0.10336040396622198 -1.0192009768630124
Ni 0.33999696083537434 5.501037058326988 3.4732351931047547 1.7804573146215983 0.03546039769013893 -0.21194760354902206
Ni 8.791620069509648 7.241876260575082 6.2047905381096715 0.8820799315065777 0.3963430085113884 0.03083986819899205
Ni 7.876177726785968 2.73113573175639 6.614194123887311 -0.5153017811364996 -0.7208853901407068 0.6510046059891692
Ni 3.4128081064212448 6.227106923062214 10.874986880264142 -1.1603967065094531 -1.567509809053152 -0.6920805500938726
P 5.703034985713714 6.00822257289262 6.129045252108537 -1.8296245203748684 -0.9826128933263335 -1.757105527269535
Ni 2.1357573311152307 5.927236289628434 5.36263693760105 -0.7740218649543701 1.5880531804221423 -1.8771788731150638
P 0.6834360471266531 3.259709480115573 6.584679472810486 0.7446943196348464 -1.8914757493537102 -0.563713339670668
Ni 6.972786528352202 5.288581220176765 9.946581915465671 -0.8405622718787653 -0.20800558818213855 -0.3322088970356407
P 0.31015995785901906 3.8871563369686295 12.63629913332666 0.2743583045757597 -0.2775305316561543 0.6143247340696323
P 2.893997544904159 5.836755446105091 3.420076771236229 1.7400030632612937 -1.5176615180724573 0.580839200717677
P 5.258532094829741 0.9568386254535951 8.507839242095528 0.2235417361445247 -0.3466230155784418 0.29357781492700413
Ni 6.537491045173205 7.622603495474389 7.032938504362837 -0.6930706819212837 -0.11732972166212051 2.372199021184392
