# total energy = -340859.08327683696 ev
CRYSTAL
PRIMVEC
9.37674692651582 0.00000000000000 0.00000000000000
0.00000000000000 9.37674692651582 0.00000000000000
0.00000000000000 0.00000000000000 13.72381694306314
PRIMCOORD
 96 1
Ni 4.120105158463249 0.7621232488906954 8.992915561053472 0.8139420981880756 1.254041168739492 -1.3436870513330987
Ni 4.912674705111617 5.302859904462482 2.3043665373361764 0.9779489121917608 -1.7887732906864613 -0.7260705338860721
Ni 2.7666467319347823 0.37632542949696446 6.120835747314857 1.799995641764842 -0.11305834798027627 2.432677538185423
Ni 0.2673104303098768 3.0959768427586094 11.887529573366537 -0.39932523106816387 -0.8523152986496353 0.7278073140715208
Ni 7.520619992775194 5.001678788362565 2.093403793233623 -0.6361356592971367 1.079995739552882 -0.43813809017030353
Ni 0.47979783348708266 9.10993173852101 5.271853814904337 -1.3147569985623098 -0.226911423947706 0.059933957351470966
Ni 8.396267518522107 5.884040065016312 12.239284174824016 -2.0642461684826383 -0.9421483575533839 -1.2548176418942003
Ni 2.031247212212355 1.1916907859632186 4.107744730466895 0.8361536012881083 1.082017140858285 -0.13959650348012087
Ni 2.631424662343347 5.870012451389741 10.165258367098865 1.1516580410848747 1.65493811517015 0.7476824557288929
Ni 3.3061003679978076 8.149321507513157 9.295155311898336 -1.081467181892086 -0.7466750975103011 -0.3203375995193516
Ni 0.912478450589032 7.694727432493228 11.262725034713602 0.27006919028210263 0.19131424356938664 -0.8007135153129435
Ni 1.1375588250900919 5.336269254296356 11.911669071040496 0.887207225430814 -0.16413896870617536 0.5510779102948445
Ni 5.870837605132481 6.8831793497618525 12.41460590328847 0.3788757049645604 -1.720398658766805 -0.5038531729799257
Ni 1.9279248361754622 3.697898367845846 10.205099227752568 0.3302656572663409 -0.29538915710413 1.015247134421587
Ni 3.2045595739054664 8.640625547337917 2.1193276858762586 0.9600167531933723 0.9920606690027947 -0.45831970732450095
Ni 3.84561964129037 2.6622647834782356 5.675045500125135 -0.7804123418617462 -0.6691049151343057 -1.976214681564003
Ni 6.6361958317645975 4.531866252837337 13.346947117209831 0.3418795873561854 1.1635576207359382 -0.23396164592626806
Ni 3.520068359538407 3.463357793219219 2.9366499694573958 -0.2190083670505454 -2.101761648929593 -0.1407486148066931
Ni 9.130898144984254 2.76959103051683 4.865339948194307 0.13319934170452544 -0.7805090153406107 0.49599716727061677
Ni 3.2133737161574563 5.992557158933633 6.50735370088407 0.36166705439575775 -0.010791948409181414 0.24542362381928057
Ni 4.120967819194295 4.688626710463689 4.8367258668154 1.3717583556480184 1.2057674213347684 -0.6384877044690811
Ni 7.743805326692076 7.70774235743553 10.494465642535987 -0.6600392053876116 -0.09791455036030235 0.8417670908201439
Ni 0.256765340547549 5.7156336875208416 0.8433765130081372 -1.0470635076012356 0.060089509092728775 -3.4133235375933735
Ni 1.6328573591694775 6.9458535272217485 2.3044349875898353 -1.1794604080091236 1.4823913820162533 2.0584910111664163
P 4.330275567437831 1.1820421132214123 3.7306410309625737 -1.5333300778476495 -0.0832975717780759 -0.6393845052517375
P 5.057657968409778 7.289567568061058 10.442809142891079 1.999188516751357 -0.02742595742143664 -0.6587253716721945
P 7.023933700128474 0.9167608109789086 8.536721812982277 -0.06775036807209622 -1.0298204042500716 -0.7886969504680417
P 7.084873179379201 6.626078321668962 0.7456904996389797 1.23546237729604 0.12475069671654 -0.9348934757631836
P 5.650493425579803 2.6522035338650594 10.722088990844217 -0.23104884315484725 0.34514463126070233 -0.10184293888043106
P 3.603071324660339 2.367469232137472 7.695301289414316 -0.0679704545027023 0.30443609779774666 0.7660447602861645
P 4.001704973127207 7.9296805839912246 6.922087224081436 0.056999814423811516 0.010254330738156531 1.26961305503582
P 3.546126339664237 6.319046115393255 3.510909152993998 0.3717010415929921 0.5488338514556741 -0.6538233063848868
Ni 9.003158719559933 7.722829543481755 13.284393899787224 -1.2048909322670862 1.4653159145912056 0.5643877400298731
Ni 6.576437822645519 9.068749065360647 1.932464119435237 -0.8662748461535209 -1.8158765746611565 -0.5586374678096573
Ni 1.997462792495418 7.119970343686861 13.647211187445661 0.094282867144986 0.5182279536443591 -0.025517684655130247
Ni 5.074864299295312 7.2234896314123604 0.9133748676095536 -0.9724354385726994 1.0540525373245588 0.0791858636025475
Ni 4.388777092448646 4.118933065078677 0.1633391833752843 0.024111291225906863 0.028728221172627945 0.1468092191784762
Ni 6.668020511342528 3.876215967001267 3.8502442529485412 -2.2148853029301665 2.264202403997739 2.2951651709278407
Ni 6.360941421331438 9.027557015453208 12.781032300896683 1.908370725336836 1.2259459531651724 0.029086375842995064
Ni 6.2802357592432685 8.238719414141322 8.061054436582431 -1.1306030201867883 0.4440840233410932 0.7339779616586068
Ni 4.8495973275274284 6.283517620720073 8.65348388060404 -1.575183780658642 -0.7412935214834137 -1.487227112842
Ni 7.542205264545493 2.1732299164460085 3.048155432668024 2.4522382339261704 -2.4238262584423804 -2.449389708733782
Ni 5.5097296984661055 1.6708331848296478 6.882453589538125 1.6068255759336392 -0.8375270845968672 1.5536325368504276
Ni 4.335526545800719 0.9924536640799353 11.243072310515787 -0.3693286847060736 -0.7344268762705674 1.4970980920988086
Ni 3.7186772393675587 3.353734243146861 11.669361736810334 0.9567979891457585 1.1499035202876131 -0.4680014533886392
Ni 5.024651818700198 1.498966787662917 1.156451095099996 -1.401265621078516 -0.9681602082361132 0.6559346963009348
Ni 8.383430751774261 3.20336872702674 0.7628068137525785 2.760629716827239 2.964982795858455 -0.23044257702941603
Ni 0.06263385744746645 6.570586732469731 9.221787892072303 0.5930925641637333 -0.9518774119156899 -0.37117242278303175
Ni 5.074911183030695 8.726094596940994 5.283230622132359 0.2848538047904449 0.020255407814926407 -0.3970207513047033
Ni 8.22578887992271 4.523642845651172 7.694052306703715 -0.47856688760931126 0.10395072925205324 -1.6390281288081125
Ni 5.96491450855186 4.829953042401982 10.836641896854736 0.4096559235702106 0.2480546336842244 0.07881922429174813
Ni 0.06972267823736489 0.040358457092330546 3.0002458811549197 -0.7011066648518829 0.31252838788757786 -0.9739338774950967
Ni 2.0094556520063707 1.4137696637250634 1.7634004319696974 1.85533735175994 -0.39465405084473965 1.6671110030872578
Ni 6.122584510644641 2.17078258545902 12.744540814298736 0.1667686930195386 0.11801672042681609 0.08345363773996595
Ni 7.483581841822683 9.138033849509537 6.281405039603718 0.5549193955281218 -0.325651041312465 -0.9291041227749159
Ni 2.715327795184631 5.194858531634374 1.4975565249025986 -0.3922241012470084 -0.9398724170350136 -1.1308830133210523
P 8.461660952634213 6.542175188827677 6.619422706594002 -0.2272587799847957 1.400754485770052 2.0535316102786116
P 3.2549033289596525 5.697545942410108 12.551473591991845 0.6526349425037405 -1.6818231124864518 0.5592383346184497
P 1.4534426806060956 3.747370085421909 -0.13309917405329688 -1.2473084780013486 1.7282297247754497 1.2790888557367388
P 6.234224061338464 3.1951359430934985 1.3355535279857276 0.18219274088409268 0.9984303199745643 0.452537296314769
P 8.422934987207915 1.3239216732372237 12.404052374453771 -1.9749826089291147 -0.44913109884669744 -0.9036640854352567
P 0.7816831432924521 8.824559817992215 0.9811968792144947 1.483938157678083 -1.1466135366824315 0.9308069643986356
P 0.5533996719900308 2.448174894225641 2.911562482653992 -0.5771198428845609 0.6349686355722289 -0.8358229574215669
P 7.2785967739814526 8.960625794820542 3.836877699990869 1.3130706119988225 -1.2848920926820775 1.7126367554331992
Ni 0.20505820646842737 0.38190928238107097 7.835613057318922 0.5050554208181431 -2.1286263345309213 0.7463174570605663
Ni 6.221612336520457 6.132570746281204 6.352603617830938 0.5442050944344111 1.8163681695855944 -0.5092355203377616
Ni 2.7319621444984934 8.10450065648708 4.512349491472133 -0.2996188789147614 -1.3165997081980036 -0.05556462463918172
Ni 8.537818892390238 6.925552869800942 3.3694168526324497 0.6784184792257478 1.2964792832990446 -0.40682231077615744
Ni 8.280511575861663 2.0599119280254756 7.26250721367274 0.6617860128753892 1.07964786929516 0.2462936851290597
Ni 8.459222998394301 2.5153217800410683 9.799862473994368 1.3612060340534686 -1.1595374438329513 0.17069425332618993
Ni 2.876345295983753 2.309436544480486 13.535938267562532 0.8582249792658511 -1.4016793115771666 -0.09798371303534092
Ni 6.272153003263251 1.3001703728922331 4.707187043627082 -0.45201613370397636 0.5141393853972822 0.08755506150284921
Ni 0.7614640635712113 3.669093000826576 8.428701686660014 -0.39029294566256656 -0.5223275776350295 -1.8104620885138047
Ni 4.304873959607361 3.916348444489052 9.178351986589437 -1.0646429112458955 -0.3283347587922152 0.05552143010607212
Ni 6.145276238569977 6.809993838829105 3.3840736459878604 0.3674630922522446 1.4321168021314172 0.8990996059930256
Ni 1.3295383447360982 7.618560115990126 6.774336882720974 -0.16935316591726318 -0.6873926576999 0.6295184110909352
Ni 6.9954377657627305 0.6680604105919306 10.613149005633742 -0.24653459749527218 0.5480540358668561 1.1548166413185144
Ni 0.3707537663840575 4.77193910823915 2.696098899954678 1.1767671774476767 -2.056242838562188 3.342218651226747
Ni 5.581396176372447 4.175568617421251 7.122784305484543 -0.9757267077294616 -0.5889083508790567 -1.5919484017114904
Ni 7.569172789137752 1.2817638183808966 0.7713274638210714 -0.7616438030049915 -2.241851289996049 -1.0602553237011612
Ni 8.560585634292186 5.283740717173325 5.002139186644025 -1.9596346657181352 -1.4105861271484932 -1.5203028123500464
Ni 7.068220076571186 6.063042166708324 8.83295106895105 0.5572909810840918 0.20582580692200034 0.5995149227503094
Ni 1.7635035761875397 3.7699586691294034 4.682415553200159 2.0178403275245893 -0.2384914154758215 -1.5277934643001365
Ni 3.543885297112933 7.652513317154441 11.80244121969477 -0.5825687818142741 1.2074345246245464 0.7626987266320672
Ni 6.5774130043414845 3.147286402761684 8.807959224967828 -0.8442019255138815 -0.36978094175214377 0.6218146146887742
Ni 0.5837006301680161 1.3725588603234713 0.17484538971296204 -1.8340239349941445 1.3596170922997939 -1.761348361706289
Ni 0.9873714671644261 5.003976091396328 6.265278909981408 0.6338759167286825 1.160272265116447 2.8604458550856284
Ni 2.030290784010543 0.09920129569673358 12.629068049400004 1.1433646907278308 -0.15281248794976263 -0.4644397041793098
P 7.279834504595562 3.002603195369973 5.767695262639458 -3.162666176178979 1.893366795728836 -0.2782851504339917
P 8.815417489592544 4.528181191236239 10.376125468381236 0.0241125767774875 1.608474938611604 -0.29421827672448037
P 1.2259440430339843 6.2688898952806 4.481553441048504 -0.8469548056686704 -0.006918324386388086 -0.4370888229701827
P 2.2162973157687644 1.7608218265236366 10.96379246256265 0.31457344334206466 -1.5892073486312437 0.7539034969379402
P 2.4836377516692862 5.033006500345435 8.299327894220246 -0.12969184277189924 -0.35046090126729323 -1.1054447757536057
P 1.032792430003405 1.5627005375424667 6.2478634776360655 -0.7036697975933688 1.03510427835683 -0.08925353225119467
P 4.447588050112989 9.103639941232622 13.470516703209196 -2.1522480877149195 0.3255569389367619 0.6409307666929349
P 1.2340080455198477 9.18250776089378 9.646402631338974 0.7690460090063336 -0.766865199304931 0.4203208594832245
