# total energy = -381168.11806989653 ev
CRYSTAL
PRIMVEC
9.26972036724164 0.00000000000000 0.00000000000000
0.00000000000000 9.26972036724164 0.00000000000000
0.00000000000000 0.00000000000000 13.56717275515756
PRIMCOORD
 96 1
Ni 2.308067696593044 1.433043164332323 11.494108533101977 0.25323103567884125 0.6780407841713548 1.031670827195249
Ni 3.0830534056816212 8.627365908228974 9.093546638816756 0.35871439952533707 1.6941613223368304 -0.19321017504051885
Ni 5.122827583087179 3.696254683633854 5.302471984628061 0.7888013372563899 -0.19167394090165055 -0.4156242253385035
Ni 4.179587177983257 1.5864014195732374 1.951406859260845 0.35563961725475524 0.21532423333073886 0.5193666952344926
Ni 1.1758269610909724 2.81974699610001 6.432698409874821 -0.02458591686948024 0.13844130682975514 -0.1280887599508375
Ni 3.9070573965469126 0.44321592512756414 4.17608415062255 -0.5224216800107325 0.02024743739512642 -0.10258753035593947
Ni 9.40895165828295 5.358556574309159 10.87590716793523 -0.718064375752144 -0.3815090288223494 1.2655666528805882
Ni 4.095056597135706 3.52700812752961 8.057340207249398 0.14430316492717082 -0.03546219746235183 0.5438284278212827
Ni 3.9461941563164444 3.994962155640819 0.06188279982696431 -0.4150817225714722 0.5569749925055698 1.4202300779961605
Ni 5.9036810252250485 3.4720572246604036 1.2446833716177519 1.8633052004567652 -1.2519050962330955 0.6701521254518975
Ni 8.09360613459339 7.570895867742572 13.0286236193891 1.0846234681328804 -1.730769717588484 0.057813568574358494
Ni 3.619742410981623 2.2216831716540884 6.228593996964005 -0.7102132551388414 -0.7188904711978652 -1.189070934515694
Ni 1.0837322883504934 5.796828957516995 3.377764701199566 -1.366969161789491 1.6934532405262126 0.7528457450973873
Ni 2.2488805314749807 1.3721225614887969 8.05872417651363 0.04615644395140438 -0.4706463472106539 -1.2076209296037397
Ni 1.8755796189503875 0.4313516099146261 5.834576186190021 -0.28003889990030484 0.43918864292200493 -0.897038866809255
Ni 6.601208950174779 2.328646476007625 7.616407414270396 -0.5591043801437467 0.03860254286354642 -0.06918812895988728
Ni 0.2137069163322423 1.8525443636146963 0.6279716505284462 -1.3333170209526843 0.7756038647295094 -2.5834254302966735
Ni 6.699931473042025 6.421524688835931 11.460055288031075 -1.0210971654444607 -0.6560123436164057 0.7125002514008051
Ni 6.818444849085008 5.398017774294686 0.27680404953907606 0.7837059250113535 0.0214010913835954 0.4475436997549196
Ni 9.174483349043122 0.7947126011931585 7.30320951524502 0.17245288788850946 1.5808024123970001 1.8137829253569215
Ni 0.09882078190409174 9.003874144031697 11.923008301955722 0.3758101786653592 2.1326205432919787 0.5550132407935087
Ni 8.310916191267276 8.974424242139749 1.2941456730043572 1.2049184430709121 -1.4934620380081183 0.9162660904699833
Ni 4.943857090223521 7.919483705528754 7.4722428677787525 -1.1335027103320865 0.14601063453658078 1.5598934301584748
Ni 6.007094026643546 7.547508363029515 0.0014572000558433131 -1.3169591484199514 1.152706536954047 1.8201613180794396
P 2.6543937225877134 4.651035890706763 6.834707646654801 -0.434002213625059 0.23972991586861297 -0.33416396387948255
Ni 2.182425905518615 3.125443837331567 2.1139013509841966 -0.378846908609154 -0.6007392820757138 0.7891492075141119
P 0.21353820741992457 1.701763090660833 4.7228011395129545 0.7852416449295895 -0.6622619240705433 0.5765778543381618
Ni 1.633269126203923 3.686002372808392 12.800545855432341 -0.6737444707888461 -1.2154111150721196 -0.6096142159678405
P 5.69297100951656 2.929129697492829 9.697693253826575 -1.393974229623425 -1.0800443334026302 -0.8864191823118799
P 4.743872141083803 6.213966378082829 1.0959887127387633 -0.5478527184893275 -0.29615328896366416 -0.23520554563569815
P 7.536977960590342 1.7027086021474487 1.924300342700431 1.3417204145250312 2.557387097251383 2.639874257313021
Ni 4.66149213538228 1.0883300696971747 10.885322423003423 -0.11273361765100585 0.4083477462817483 -0.5941492875630219
Ni 8.582324336528321 7.921439616545186 8.218301487209159 -0.9157310439021197 -0.26031725310166137 -0.636278355522588
Ni 1.352174123065293 4.830488409034185 8.957304922399727 0.6810890840793754 -1.0636011002449424 -0.779249946122529
Ni 0.40806978001477834 3.7360866724376627 3.889789761279578 -0.7591914848097571 -1.6611635272545713 -0.4062821220019713
Ni 7.73574857635019 1.4577469693502771 9.644835453836563 -1.1473128767423015 -0.9432305348739692 -0.009303793899429138
Ni 0.24129082349619238 2.5318665575868424 10.765673506204456 -0.055741516536678186 1.401861602791302 0.39025437911514727
Ni 5.584441122405786 2.3682559915204653 12.672757197100065 -0.03726068412367131 0.07534077882484444 -0.5465967345950393
Ni 7.469262652651822 4.99634224745116 2.987451070720206 0.261760156195775 -1.0118373374090897 -0.03116022765288827
Ni 5.475382861228964 5.812439166766615 4.132710201632114 -0.1847892979666753 0.8154251104915052 0.855709669043165
Ni 1.3518496828492974 9.302906056254656 0.803897967194018 1.5020484941255487 -1.595783973407497 -2.6659344447351825
Ni 8.636728325890564 3.388592661665409 8.451222680104708 0.13873029882508367 0.6242304232191186 -0.4335571556678404
Ni -0.04078213515065302 7.369733664104814 5.795123328952904 1.64317377554537 -1.3290803571635175 0.16939533200910828
Ni 6.527088265400459 9.124399049413851 11.993909612815319 0.3129657325353126 0.6929125590768648 -1.1407951302284418
Ni 1.1622375509009832 7.066020543051058 13.302572595027414 -2.822456777436365 1.4438731713363973 -0.045119003825825524
Ni 8.899163381749215 6.4576117105751045 1.653133210171268 -0.5059635344547092 0.27964320712378293 -0.4716297941698458
Ni 3.8049514257128534 3.6665544992895667 10.658411716852203 -0.4278176820809019 -0.4756414864324002 -0.042077645896340436
Ni 2.2645463590473422 8.409879726866405 11.495737222986277 0.5853183195349532 -0.6872535610188744 0.7243604931735009
Ni 7.248226168354215 3.8397036077062157 10.689575590056652 0.06933853849482252 1.0133216352641 -1.392550352692705
Ni 2.6279564798442965 5.7271670082825015 12.513288342133885 2.0525268231631815 0.03547762408131954 -2.1860462672112866
Ni 5.645954987358562 0.728048479554464 5.6487331225795305 0.8511356765192374 -0.024395655235545082 1.025028896398699
Ni 1.9082553835613776 5.256311557668245 1.3364155982883617 -0.5112584643050614 -0.0015442045586683082 -1.977908267216342
Ni 7.864412296293607 2.7224242010217723 5.546870945393491 -0.8844690005640444 -0.26039464330681605 0.5068011998646561
Ni 4.994210211746045 5.519960946906766 8.984480034891522 -0.5182847750242235 0.5421371561617889 1.336349380021105
Ni 4.516003872809374 7.521618033793062 11.947903990187138 -0.6356070404871763 0.01595986576336606 -1.2289014362490704
Ni 3.092063573965843 7.751442213083923 0.44842643499645424 1.0726554971377267 -2.740165021214984 0.8095102876689673
P 2.1011397268310192 2.590265796466059 9.670518141334778 0.08791527305574538 1.3794395263423596 0.5055979235851744
Ni 4.271153476657687 4.638021203185109 2.4894269964184743 0.7939970225247164 -2.4686758106569036 -0.15480689267197212
P 0.12898352529918436 5.18540746589251 13.207425403340437 -0.9145406231384443 0.27501470721283605 0.1490856739174787
Ni 6.4334362796232 6.920467392434953 2.3188465275404653 0.5374754890200615 -0.07468848995282622 -1.589222003919263
P 8.32688791961472 5.615689350066396 7.460805886678884 1.6033070212574194 -0.1391535024054313 -0.12268995753276936
P 2.9043331952703038 2.2642219188313466 13.815316058442844 -0.9723328515565642 -2.131854097439599 -0.37958558654739144
P 4.72578691647216 7.979189974992411 5.404334161814099 1.3848858941689117 -0.024859996466473314 -1.412531166690006
Ni 0.8015397503097527 0.3540337985546802 9.637414115638673 -0.4281179869301401 0.012285245125256262 0.23900820721124003
Ni 2.980354172738313 5.00361897800992 4.446165798886196 0.12075623084516623 -1.3842662583070418 1.8888809920433403
Ni 1.0923623980959778 7.215735798152365 9.53963525031395 1.1849121751523142 -0.48335479591625785 0.2867931879050028
Ni 5.075310996024501 4.977172465546046 12.115797167104656 1.0980466835173217 0.6852023349168006 -1.0879229648197586
Ni 8.218422920547146 0.024789086446158955 5.541348972917245 -2.1000924887572863 1.1130056188199993 -2.0090543538018433
Ni 3.0552071654287376 6.5504572306726025 8.041724436167504 -1.3847892206900474 -0.5843798668810839 0.08075732185472544
Ni 7.826526948785773 3.567108938226672 12.778160407500687 0.9301659883805271 -0.5363066655229409 1.2639021206939718
Ni 6.046175168090337 1.931429684703924 3.7644427473156825 0.11185532881111059 1.7329389573256608 -1.0820418234486333
Ni 0.5742758678091207 1.0162209142620275 2.6526398914772455 -0.37739217844049844 1.0881595063105969 2.6889874698999043
Ni 6.849618918981961 7.015120508021569 6.4732506559581395 -0.26592380065516136 0.3088080016131972 0.7410297262990657
Ni 3.8314535564994694 0.3744624084978577 13.46763016445713 1.2234725519240155 1.6028511646669235 -1.6569294345685657
Ni 6.44969536930481 0.7371726654003073 0.6465046026381633 -3.7995795941824047 -0.7694643274906748 -1.732833542096048
Ni 4.580697251878906 5.841110412140173 6.3990382009512965 -0.04382008250874389 -0.7637209972489944 -0.4024362658933198
Ni 7.174754364011886 6.191644891222328 9.237751972078412 0.03348784734480039 -1.0428165593994234 -1.4302414394855756
Ni 5.563315429484242 8.453947977919073 9.872220769675181 0.3554809801897039 -0.9535594276038029 -0.7635291929531625
Ni 7.4792368718635736 7.259108820170755 4.293535216701158 1.1747069524845382 -0.4594939301382603 -0.6188791862095341
Ni 6.614390492664659 0.09254518115469021 7.6409907129224095 2.337108348128846 -0.5296719338152427 0.9166257878022471
Ni 4.566190139363672 8.350618403984686 2.252150888852217 1.0910548255805208 0.5475174466370958 -0.5881218504220194
Ni 3.1400343773309145 6.482677034690883 2.6924459250637742 0.5209137280066383 2.6289493828704016 0.46967755553948143
Ni 6.488229597244636 4.568581727241583 7.23248340210206 -0.9664396260005809 -0.006886699817504268 0.8282947673653219
Ni 7.71072033111624 4.992930990322977 5.356632180342283 0.028724364517886014 0.7684474561903862 -1.0965091638268727
Ni 6.656335977732668 9.066732118450739 3.2057604032593585 0.016050882815275582 1.031326813592269 -0.21119401321244918
Ni 0.7437977346109385 5.0893360830759695 5.6736288108109445 0.7681384095903997 0.6738385731645492 1.6102716255007103
Ni 8.289252854559225 7.537645380463247 10.57206983262735 1.0271929939295534 2.0670998358813497 -0.12682866229149126
Ni 4.583589404661496 1.1019287496076209 8.228789248934229 0.41419134954671893 -0.120909725703895 0.42645731139826554
P 3.28816451023407 6.890581813681526 10.27193760458614 0.24498473650964905 -1.7129136632436692 0.14490788839070526
Ni 2.748397957742338 7.464053069754978 5.697602161856887 -1.3728238207980552 -0.9987797328941832 -0.35557456834477474
P 7.995588110480877 1.4794937335424425 11.924636064867975 -0.48619175114442065 0.3165457365770871 0.32362758312453294
Ni 9.078671518399378 3.8586045677180767 1.4300073308826493 -0.6670863420423803 1.4995028448855594 0.7924890705206223
P 1.2964074847958698 8.227720450165535 7.343625496437621 0.8392458670601869 0.03900929138366185 0.9168839265596403
P 0.29591914009349396 8.146193258746058 3.1033411158738518 -1.1343102938350464 -1.5093758810248974 0.33628795220102087
P 3.5454363317981628 2.6993796759656243 3.8654363516948993 1.010776243134427 -0.0013904525896234116 0.3072242020658451
Ni 2.3597185789795514 8.672147927756832 2.6676318103723817 -0.4063798239221001 0.3367024140306202 1.4332928247173897
