# total energy = -381173.5682726655 ev
CRYSTAL
PRIMVEC
9.21045330408756 0.00000000000000 0.00000000000000

0.00000000000000 9.21045330408756 0.00000000000000

0.00000000000000 0.00000000000000 13.48042941742783

PRIMCOORD
 96 1
Ni 1.504674887483026 6.083817453623845 11.35875817586797 -1.1913396759452128 -2.257174036396048 -0.31329843328438295
Ni 7.733842502091223 4.891303243923067 12.390199060031048 -0.06351473272419385 -1.0361746286028737 -1.222733616875462
Ni 2.5940228115754316 6.881230855026939 9.385991481052422 -0.23579175715647133 1.3865547972309022 0.6651289612056932
Ni 3.609420007415929 3.1073305754572464 11.973425134452315 -0.5651639560742653 0.4210299697351072 0.7900843177338716
Ni 5.398817632780538 5.656516901152707 13.034415915420796 0.8487702616108543 -1.7058053343336623 0.8042860631555503
Ni 7.111455341685888 2.6131897645574 9.550614515229839 -2.1877437095183674 0.1568123531377751 -0.27236184297102123
Ni 7.22100447131949 5.423151649973407 9.661221004883783 -1.3018842563646997 -0.3057190782752283 -0.23697497883129512
Ni 5.06063742488101 0.3696661419547212 1.9732115597021553 0.41003130463175835 0.8731152661141222 0.2738147733674639
Ni 1.0289549828608997 5.108568623015638 0.22826818641225421 -0.5812770595860441 -0.09836577896510802 0.4332846187327441
Ni 5.3434351780565725 1.7024785790931865 11.06667720697375 0.6922137332376272 -1.4167919988488888 -0.629354117598929
Ni 0.5062368990071117 5.701288913860706 9.114616531859674 -0.46409774745885873 1.1987056293919807 -0.8254547268133655
Ni 3.5885951728689665 7.449525024147749 5.0260973045649715 0.553698121526511 1.225293407182838 0.002766764111859751
Ni 3.853423331970612 0.9886131981126922 4.0831412437069226 0.8240491047150905 -1.5172007763859547 1.3162603225807137
Ni 8.640685297237114 6.406754361578559 3.435662966860705 -0.24585248382658303 -0.266984637819508 0.8310599888152849
Ni 4.878390188622385 1.6866273892412083 7.969561945092815 -1.3188967317622964 -0.5552009313242825 0.20825781340226068
Ni 8.462113031780895 1.6958470528332072 1.9836718713319588 0.849283196691531 -1.2536863565032346 0.5280706507663938
Ni 5.002648411918748 6.2721251680478405 6.368842294368383 1.2141484463096122 -0.08337701886575963 -0.20793051196982898
Ni -0.02006313007237905 0.2288042347849359 13.010569131198974 0.7450954117280072 -1.0940789571188254 0.28035386003756235
Ni 3.8898783054942205 7.778227675767391 0.6151284022865995 -1.02754986304834 -0.9458042091384162 0.060801961778721096
Ni 3.871181085622334 5.29901316256785 8.279949610645833 -0.20646472605757987 0.8067779763394686 2.5999771640077673
Ni 7.352907370721106 5.7094585857948745 5.533136434040478 0.18003404266987702 -1.28730070212357 0.6830040417139012
Ni 1.7064114425834795 4.646222296351137 7.331330963198012 0.15661849195941413 -0.8661851146531921 -0.6231595587524429
Ni 4.210328391101442 8.28001316277249 7.520960377647435 2.9369235757283936 -0.6324237576631883 1.1344033677694851
Ni 4.061607204268268 9.011756033295512 9.890064844617216 0.4345148915954194 -0.0913780347933652 -0.12092052433717239
P 1.5695072671274626 6.93303044347989 4.611169153795264 -1.5009107809766797 -0.12610721074443443 -0.45455792628922354
Ni 8.88136364820867 3.8255064485067267 9.906983525987988 0.3658718365057247 0.15028303665968956 1.7447994562086726
P 1.2572084325481319 0.35261667214937725 1.3056830474179526 0.2643351160118029 -0.512262994310176 0.9884431268548655
Ni 9.289110408666009 7.617671056650781 1.5734088150770837 -0.7540634195545723 2.133972686444499 -0.3723934396743264
P 6.776286951962767 9.024438827267723 11.659802757756928 0.07334791676453174 -0.0640315244596123 0.4127031950369666
P 8.653497037553269 0.8156989140196735 5.452631547334957 -0.6049728605410871 -0.26170204926432994 -0.763196492204092
P 3.8354353169904183 4.411807053514008 6.499561650541656 0.10070753972440721 -1.8408944368617326 -2.7776002832433067
Ni 1.9581515477748053 6.513061411707284 2.0670891033199874 -0.1365014094945649 -1.3542177756610936 0.30041797777728907
Ni 6.753408186365839 1.3656799391644876 4.126305111296877 -0.7371162501772723 1.1700002910374883 0.12197699062614477
Ni 2.863815404918923 5.12213562048918 4.610199293079742 0.38212943601516763 -0.2980831589965254 -0.05492236306949251
Ni 7.0127008631310295 1.85726945454487 7.291213913506393 1.6846148162989762 -0.04659790236419717 0.17841450478858306
Ni 3.1116594884325104 5.597698947407946 12.862432808140117 0.6421263296629328 -0.5193481832917314 2.343027027606126
Ni 6.428656819142769 0.1313419828054595 8.913124974812714 -0.7463570520492501 0.30968551912214404 -0.8194550575865049
Ni 3.175036616481007 8.157219401525207 2.8894084910558733 0.586941456960673 1.6479840524498197 -0.3412743496720187
Ni 5.3537416751189575 7.266264638043849 11.616557838179352 1.624015200339048 1.4982648587134002 -1.6555652072311877
Ni 1.2993923079241112 2.333026200979552 0.40598480077187454 -0.0724508588715591 1.4299501334974016 -0.0767587422182936
Ni 4.083528082738755 3.1627682929000454 3.4144448459647125 1.009732375250945 1.386835818806431 -1.1593677510243063
Ni 7.82994437014209 7.880132129295738 5.3431837326858815 -0.08161298498680139 1.9452413731109404 -0.3474563101130145
Ni 7.774000077776654 8.88725833821754 3.1603247596823056 0.7830739478543095 -1.4847046035304625 -1.335073598632475
Ni 5.873008602181614 0.04492859041135978 6.15591872288547 0.028175948213583733 0.08448824965206739 0.04722370887365415
Ni 5.9355844208070305 4.470367114570881 1.575322747239339 0.021082788812228206 0.18958337692120897 -0.0038574260728772274
Ni 2.4578278410111065 7.041428266471134 7.073841693157411 -1.566764189136379 -1.4318625200287662 -0.2414589827445777
Ni 5.700036292233821 2.5216010185445743 13.209324262618377 1.5576822814397688 1.6030869348268133 0.19513901663211553
Ni 8.785805196892996 0.13814113931256608 7.429158870167102 -0.3878928208615061 -0.5642962087573313 1.2377326613874553
Ni 5.076175459326268 0.16705183067013415 12.953856687041757 -1.9017570766750604 0.09187168660033211 -0.9997012162671879
Ni 2.340735350256778 0.1761766265948029 7.923809940170842 -1.9330204055647158 -0.42079497090616563 1.622758445113812
Ni 8.132028812190425 7.296410451167338 12.41521925598276 -0.22164271934959892 0.4256394434826605 -0.1286106938925785
Ni 7.663750953704498 4.085922800554859 3.285504028292554 0.5507536941862063 -0.24537477285921613 0.12605244624709902
Ni 2.596353056219563 0.5591527943804909 13.01674289793795 0.6643175210479915 -0.7919941331620747 -0.16220447068762386
Ni 3.1872036250774416 7.648176077446685 11.663887593724013 -0.4653868985839275 1.0996235410861386 -0.3955433954282285
Ni 5.665736564744705 4.697644256225393 4.439604201087088 -1.0896358337458074 0.23878683522905325 -0.3672352925121546
Ni 2.019143168460337 3.778477874779707 9.949999105282407 0.00816248120613433 1.6165281479333837 1.9307300668686427
P 5.855895580249612 4.017968077296349 11.162536840107066 0.614969823852799 0.1286114652235269 1.1836723892079422
Ni 0.6996186520653054 8.156768089321403 10.94535343404743 0.34485975303043187 0.5900676612944805 -0.6999334704793881
P 8.193609901876844 4.226953259017085 7.614555160353904 0.23753470798950702 -0.07273830820499086 -0.27879705707340374
Ni 1.5395180317073338 8.925417245571838 5.8227499225387955 -0.17788305776514526 0.21717465627591628 -0.3690216949886161
P 0.5394682139321191 7.764752782825238 8.530415910168053 0.46591551739388787 -0.05712759825092742 0.1940820361225109
P 3.0789715902426957 1.6257002417276483 10.467418415445406 1.6732083742342474 0.2784363312998753 -1.094917908080353
P 2.6648604066664046 3.9668592728288132 1.5421209057643759 0.1744192675862609 0.9307745684988035 0.23165973726596875
Ni 0.43052881629630907 4.637214473181332 5.0669696114139775 0.05150253875466614 -0.45217117122460193 -0.4032250803432023
Ni 7.613176355519016 7.727570183503659 9.937448941835395 0.749671975355096 -1.2391796782466271 0.7133451158996037
Ni 2.4053006267601873 2.7428913656588283 5.123210480370485 0.9411579686156566 0.1863864672504661 0.9975319765300109
Ni 1.6015043813318628 7.4842023802155575 13.332522362758457 -0.6542344257803765 0.5718845626275506 -0.09653849594838212
Ni 3.9632395647452414 5.369307340923631 10.803687454318624 0.7666386851164216 0.26085589921395075 -0.8119001280573823
Ni 0.16621644257043955 6.4743775085240705 6.4745561913149645 0.38634064588303785 0.5086444237209821 0.9878797981522277
Ni 0.25463310852224136 1.9033401411454485 9.037873194216065 0.3326598685301303 -0.14462995213897029 -2.0008558771514506
Ni 4.515802279904878 3.352273366232093 9.609348653851036 -0.7190064279504391 0.07827543597313616 -0.5643316899809572
Ni 0.9405622640872588 9.061879319277189 3.604249259023773 -0.3798861485069458 -0.5966987934577529 -1.400394274217156
Ni 3.8350116361460307 2.3164473853296035 0.9542259713187579 -0.5797809346564918 -0.5212132615249282 0.07100024246796159
Ni 7.0324572851138845 0.6265116013209168 0.327028191238996 1.5267143723033447 0.3661135202028856 0.7313798619141275
Ni 7.853071817973768 6.066225488128622 0.9066724017628229 -0.5945444661189117 -1.3196089273379725 1.2382203996571515
Ni 8.21723471417802 0.7207115107986088 10.366989476509906 -0.528323133096832 -0.4813058838070292 0.9839231274973249
Ni 6.1712891270836 7.683415271155964 0.9067055593941229 0.3998309670599888 -0.5281223299399356 0.7184976066348205
Ni 0.883020879147544 4.420658298980453 2.683009604576529 -0.019938905015772113 -0.5338823723521644 0.008573600601623944
Ni 0.6369792813132314 2.377715319609301 6.632667435123207 -1.1526461160297568 0.20417772979561613 0.5978033393758414
Ni 2.3914112634267863 2.3400814080839187 8.382643400008181 1.9343491516784683 0.24018680090037345 -1.4493689043436457
Ni 7.622101284610571 3.1886404557671035 5.5471961907569485 0.04274896093175218 1.1267610207328789 0.15402887685536698
Ni 5.860012652802682 4.129976397918027 7.741244022233611 1.0391771628746231 -0.33114420321655225 -0.9182936624229734
Ni 8.46182750773359 2.21151269271857 12.309424307048559 -0.940467370306535 1.9581771073360017 -0.2551269671499735
Ni 0.2565958560861325 2.2484189784459825 4.172395139849047 -0.4663389780845517 0.7602224971774326 -0.44624863509257984
Ni 5.687003501042334 8.262117252323685 3.994305502137303 -0.8232530911763563 -0.677895259732426 -0.3809801529020729
Ni 5.233370263047194 2.4903960033101162 5.687851783776423 -1.2763683714817824 0.8292239640478106 0.11366924209139778
Ni 8.509242920492442 3.6250317254862967 0.9490690386063101 -1.4315689000477474 1.3031988614110654 -0.7300184627902266
Ni 7.178139022411235 7.210707184710245 7.614366346064558 -0.6629764336390646 -0.10309198079618374 0.1015770868135541
P 5.31631039356263 6.830444416419264 9.116342570777897 0.31720188210384725 0.4876230842743086 0.16862425817103863
Ni 1.1821616603726992 1.343270906677641 11.1035328352089 -0.3985078773731911 0.4033425797576731 1.0281633282626228
P 0.6212883533458693 3.967780318142699 11.93167599246449 -0.14733680954717207 -0.4905145468894907 -0.3742145520434652
Ni 4.189540398367035 5.925950286823783 2.462011228826777 0.1262758751118148 -0.583710351617885 0.08206344226065866
P 6.421223983459709 2.4739277130978343 2.11889421804482 -0.3558275648958452 -0.9664193142856066 -0.31616007110289424
P 6.2594147427162135 6.463398648382549 2.8976859252917673 1.3734521984106733 -0.5456911920616345 -0.2825572954467844
P 3.5915609387796796 0.7920391019965697 6.279952211125244 0.5320064954856902 0.7646393952982057 -0.569346369586729
Ni 2.1942615139894848 1.9413885230620795 2.8683248427757086 -1.3245361894362608 -0.26382578047555205 -1.816015671342182
