# total energy = -340869.27797214146 ev
CRYSTAL
PRIMVEC
9.26849641752305 0.00000000000000 0.00000000000000

0.00000000000000 9.26849641752305 0.00000000000000

0.00000000000000 0.00000000000000 13.56538138101884

PRIMCOORD
 96 1
Ni 3.508079571463977 0.49686648562067665 5.030912078500197 -1.0510327766616285 1.268143669579145 2.3202647942089456
Ni 0.39355240916736905 5.670642241861898 6.347689225711657 0.5519263743380688 0.4354975672236629 0.31856508099996106
Ni 7.934361282734877 1.3516063032469354 6.702845034552196 0.11192757680994272 -0.21299327120471706 0.12032994194102502
Ni 7.178070507764753 0.9977536450100981 9.375944296014596 1.1722196672863103 -0.05095463667099612 -2.153540838384414
Ni 1.3908491173014896 2.7293219610502426 0.9593746548265606 -1.1165259732684318 -1.9449552093290892 -2.191973174218683
Ni 7.947661575169523 7.9443527219296834 9.569400061737856 0.16071940150166514 0.0517791894548205 -0.043825738935698716
Ni 5.105384447637737 3.7865978903915516 4.467052900393381 2.306039137527867 -1.4915051713920633 0.24337548304100023
Ni 8.412439599160942 3.1772776639483666 8.339752342443552 -1.0177369907229763 -0.5645661745892664 0.7761782491757407
Ni 8.971793361133626 5.543079924943421 8.856864931753593 -0.1620543182630048 -0.24384676625046395 -0.8706621765879392
Ni 8.609636130059547 -0.2925424809365372 1.9337448100921537 0.6059632494788144 0.19557276173542446 0.47461587338136324
Ni 6.448296901195684 0.10986690345769345 11.30701699857441 1.302476895643376 0.17329415284288222 0.8847142838056312
Ni 7.634923967274206 6.957656393208457 7.321494002692572 0.40220075284374607 -1.248039185519786 0.28908635481455375
Ni 6.517059876507622 4.501653124566044 7.160608660415017 -0.06072945666957282 0.16410091637938837 0.26895101751725936
Ni 8.554247595154017 3.5652291206988327 5.779530392092345 0.36421553184922434 -0.2470950979844325 -0.07921003197226358
Ni 7.412387367026251 2.223873774547868 3.9902026597496087 -0.7085132417285991 2.000588482422677 0.5718465103007635
Ni 2.23498670181556 5.58608574856485 9.465027522987656 -0.1024432914685913 1.2297930948254046 0.18452858810612094
Ni 1.628669468228699 7.508427527449796 1.7742979384667639 -0.16713096145496378 -1.113406968023476 -0.06707905303668447
Ni 6.518922844298118 5.907860140518548 9.443364266188008 0.06150387294175215 0.6275247776996742 -0.3349214108707974
Ni 7.863151424354825 2.313018173597632 1.5720510038415816 2.428028469449186 -1.3787846663671801 0.20613922439736113
Ni 3.3818797235266103 7.9816213462361 6.976648469325412 0.7539790873708822 0.2507620053130585 0.507864351021848
Ni 0.44563023713376704 6.67216816493534 10.770180121926272 0.6071009626276835 0.5693646244191742 0.30735738520959965
Ni 0.7696624348275899 4.0323891482830785 10.653856783827484 -0.5572770971270209 0.0037432690925161332 0.7076403522053427
Ni 5.023265568912335 1.2913332707016436 8.266295800519138 -1.4788036646649951 -1.4647338168354902 -0.4940948080415813
Ni 8.608320003560788 3.55684113139336 -0.7543379027638677 0.30675189041511686 -0.6471924313319306 1.9182206215477222
P 6.973171856299465 3.976416698099929 0.8843026139674032 -1.850806553769122 1.6614347786380868 -1.149759281400265
P 3.062876612017483 3.9230394269284177 10.844369801921472 1.2412185630535268 0.5373700737904488 2.0341285231616513
P 5.807213537349346 8.379823760082536 8.805479460473514 0.6331562649538386 0.271363483613494 -0.09081033521535327
P 6.334248052130667 2.8414985738282943 8.68910143824555 -0.6570991489226813 1.3537313229429782 0.08044339015873242
P 3.860894158096159 4.381032911503699 3.0681772651487536 -1.661700630704964 1.7746751607221822 -0.7028439592579638
P 2.454232985816618 7.629205304952134 10.837939319070493 -0.6172676187480401 -0.007426117260742049 0.11661058410790885
P 8.596919752902522 4.095952497075268 3.6714433096976458 0.06771720084131563 -0.846728034369845 2.9514194553517235
P 0.930278990707511 1.9367913648818873 12.349136155638105 0.07499342278775471 -0.22442388163916188 -0.19442810660801998
Ni 2.322193985103066 4.625211451009422 4.8484709939820485 1.0942913302399475 -0.10290840403046793 0.5667171594939981
Ni 3.2002171927119525 6.6117931789288775 3.898636402572198 -0.0030560132175044144 -0.5980450230730023 0.10881345666099325
Ni 4.926289290345307 0.8582192112011476 3.4529867015958438 1.1489925784375696 -0.8144059251983715 -0.7810738867051451
Ni 3.1374416661197237 8.346355219328876 13.24713760738837 1.4312151162527544 -0.8377638831980218 -0.46988890021933916
Ni 0.46697651135413637 -0.01040203358843319 11.165543595303905 0.8911911497792265 -0.2641232571113129 -0.39164560303571905
Ni 4.797225476998669 4.274732525487714 9.232612559201831 -0.9433434063027496 -0.3965669515967364 -0.07840347691056819
Ni 1.373257511001172 3.948926337569507 2.7450366968153577 1.404337318025304 0.5721095341541631 1.8639346065106477
Ni 1.8385545707949198 2.508833698522187 5.622714846614826 -0.5764968645885813 -0.18872257158281047 0.14632765155636737
Ni 5.673255957866475 2.432090547749464 13.127762153401964 2.2816941330245992 0.9645529505008293 1.122770411516247
Ni 1.366083694733287 0.2825167483047915 0.622581591192655 0.143185763493276 2.4523421064938864 0.5981396396693376
Ni 9.206091683402185 0.749705508228094 4.674264041727968 0.5276849852922009 2.5732328060343876 -0.9312468801495317
Ni 2.80292309151959 1.6108276125236882 10.82186403879269 -0.5722997957880983 -0.9259450083206441 -1.0745799678539494
Ni 2.3348084087989207 9.156570106762251 9.10770195912346 0.07340113859997036 0.8786025144809385 -0.05312310507722464
Ni 5.463593299215538 2.1153118753931692 10.907990615391778 -1.7018630618564627 1.039934609865938 -1.695559488235938
Ni 4.336673887397629 3.0797082016072492 6.442050861424461 -0.06177949520064198 -0.5347858580030403 1.500758057448899
Ni 4.215108287695331 1.106426766122438 0.9204803362392836 -0.9548740326501683 -2.060654594476638 1.8462384747824656
Ni 8.402791094335532 0.6255002407311007 13.101282985836432 -0.212467223497918 0.6108761133993996 0.25236663079601696
Ni 2.7341971901935342 1.9257618540824257 3.1212588712828673 0.38978001058189 0.43642676390615165 -0.150233928589309
Ni 2.741092951567315 5.711136302939919 12.514172857484635 -2.052861837905097 0.18562002139808678 -0.8600172952795835
Ni 4.366935528372623 8.692190628119047 10.577375931504864 -0.6451098377712889 0.28010137770712407 -0.9259774042204761
Ni 0.8777840803999569 7.642051441059741 8.03598293173274 -0.7222804707160206 -0.5328176785330759 -0.5429863915359616
Ni 1.6979329423500225 8.72253568556227 3.8360592218044305 -0.1509083289485143 -0.12858652552286243 0.2099406004213223
Ni 8.909796388244889 7.943657584694424 5.433043408000324 -0.38167717896909753 -0.9732913588150915 0.5916825711900843
Ni 0.646088351940213 6.086315771554539 3.8614808539227186 1.1041864778664725 -0.19610420875886228 0.4583911839923847
P 8.745336186878804 6.938442800025866 1.4266848320536218 0.9893558684771219 1.3733346989962025 -0.8934115544693129
P 4.44330793928654 6.400842199268592 8.014834076487183 0.5657745930750707 -1.4091637928796699 0.8337899861519383
P 6.705219623347845 0.5875698457767178 1.9980042229692507 -2.3534713628679014 0.24730412867144508 -0.372390611460849
P 4.7364519456439895 5.854974099659954 12.851137388303238 0.7926675050800155 1.3209474436437378 1.9718965138046234
P 6.741524324021365 6.779719797974795 5.2676684060326355 -0.8118535910901631 -0.12972706688520885 1.0870469899727084
P 0.8640481686312158 3.789943817617271 7.450568938234974 1.9990499342909633 1.0705006555782532 -1.1008031632165365
P 1.6807306129014508 4.894414930984511 0.627975856138274 -0.3279274960514675 -0.11151620030413698 0.46830098690692895
P 1.8383413953761067 7.343819030140187 5.673951095101736 -0.9175048479730908 -1.6228304360023278 -0.6190758756013726
Ni 1.499614923378531 0.13339220119819167 6.30064511817819 -0.6608272485065458 0.3470631884396539 1.536713649607902
Ni 5.405257382432504 2.650159732698815 2.1059849873952716 1.7259347580936855 1.7352357237796374 0.2957995051686712
Ni 0.9444690588032886 7.669773514001917 13.10506731294519 -1.4810603219096559 -1.2937855385169652 -1.58230136554003
Ni 3.876622796605979 6.404030562054317 1.3231158719473854 0.4021529303249461 -0.4247143605652298 -0.10054067512923974
Ni 6.936681785696542 6.247383703212556 0.5716326660963196 -1.734809434875496 -0.3124620534260167 0.05384712772744275
Ni 2.4201063818135786 3.195471722519243 9.063804506141604 -0.2302654280216034 -1.434193225044472 -3.0433690463778422
Ni -0.5643365056750288 5.787944333187934 12.740294512167239 0.18113421771259128 0.8370666000206811 -0.2808773366412001
Ni 2.9943453491173004 4.898400384466668 7.344840418451197 -1.3384116618667723 -0.17922671627723324 -0.44493840092158854
Ni 7.861325530550209 6.888263160136553 3.489300670765835 -0.89946393131098 0.31008892520814985 -0.780903679675868
Ni 6.080013193954847 8.778619357703061 0.05304731269717414 0.7436339966911322 0.05570346420989116 2.005891125582513
Ni 5.974185501258838 4.703511709189127 11.737676760209613 1.55458075969631 -1.874611883718836 -0.6919568800318148
Ni 6.228253526498197 7.174057248793184 11.949879913743015 -1.031856460843494 -1.8670685241539393 -1.4728525892878825
Ni 6.5593798313902605 8.71843901012247 6.450203430919593 -1.2507473284795685 1.2656496995126978 0.33967126685095694
Ni 5.774449402327416 7.839044065036004 2.508062559615871 -0.9056808587549693 0.10031416094073047 -0.5179844701749853
Ni 4.634618974926609 5.557019743634505 5.874285012055482 0.7608832706898832 1.4480586701726543 -0.2191819165139322
Ni 6.104250312224251 5.313814396258147 2.6051092787560735 -0.6461413643595969 -0.9876471133161314 0.36269755254280117
Ni 8.816314332847101 4.944409200944422 1.8960878357836397 -1.0811740761316995 -0.12793243687863126 -3.4614034238197355
Ni 3.4210391211129334 2.36346659988458 12.77924073433475 -1.372205727598082 1.250232336516363 -0.3965826353260202
Ni 4.291137764239854 6.209614580096753 10.568557883963178 0.028386521562493047 0.14258078291942541 0.41840178808364076
Ni 4.906788373772142 7.97419728056352 4.892531572501778 0.495369818099263 -0.7739246772548736 -0.37403174660869776
Ni 0.5876634575910661 1.8395277629242843 9.723964289422776 0.15128139601721688 -0.32347074583169455 0.21214352160991204
Ni 7.835642526831464 2.320618340703143 11.178023625800945 0.07457613274467802 0.2736473945516642 -0.7535597404452764
Ni 7.151636755831926 9.29945324834586 4.073033359003917 -0.5584675178906963 -2.350201176757062 0.5685321012155499
Ni 3.557925545480366 3.601858218748809 1.1360312706976983 -0.18332916848138103 1.3121753538780625 0.08704983973165653
P 8.090303735844909 8.05138531916681 11.961899299965486 1.8481153800902044 -0.4169074629263013 0.08284042963599927
P 5.855697042384625 1.6953841058207353 5.608023352860013 0.23556807118143944 -0.7295803468115436 -0.5062347858382249
P 9.214757727601762 9.68085187809194 8.327380753355214 -0.12360629869945164 -1.062406822826525 -0.32166968806721374
P 7.993744539619037 4.76861362839536 10.714087181289011 0.06932388320680319 -0.024241389045867926 0.38440254832006054
P 0.757359432613132 1.2356574124055388 2.639239590157701 0.3246809640897118 0.39483274251444905 0.012910280303764864
P 2.975382005339403 1.5037301358112711 7.176968483534453 0.21855739555605586 -0.7205508896194236 0.7579702108081462
P 3.4721085366633804 8.332072466268396 2.668947901893427 1.7855689248165505 1.08907379059475 -0.7662324508169385
P 4.594486385210922 0.4692927086220232 12.468850836595319 -0.4917517617307015 1.2811873901369808 -1.0000783971009486
