# total energy = -340873.5423897419 ev
CRYSTAL
PRIMVEC
9.14953920375965 0.00000000000000 0.00000000000000
0.00000000000000 9.14953920375965 0.00000000000000
0.00000000000000 0.00000000000000 13.39127547430169
PRIMCOORD
 96 1
Ni 7.690370538123699 1.1966316104305028 3.13059895187262 -0.9715679483660816 -0.6736524252956722 0.18151088432571966
Ni 5.755773708396921 4.274518238094016 0.9419917048845705 -0.4720753663476967 0.2845049060914584 -0.13297642706044194
Ni 6.5639524901421105 1.8849331319195448 0.5724985509590484 0.49594625942802334 -0.12599151110217657 -0.3021920389585764
Ni 0.8014657649653131 4.177322685071497 1.3382783688798605 1.417383352575985 1.1478967742702295 -0.8626593608881209
Ni 0.34901008091869595 8.459316096545857 7.561691421329129 -0.2745555081882304 0.6498116141223326 -0.8770580528119539
Ni 0.8472454834580342 0.738724631035037 11.753763163302848 -0.46769292100928483 -2.4154642596309306 -0.38941877058772933
Ni 2.7328392120949117 4.861131782901115 9.185731852735632 -0.778732125945846 -0.21939197564220927 0.9285176541438267
Ni 5.151492403739828 0.4507749137284173 6.64732217474965 -1.3123008237123337 0.5325636535407409 0.8404784539157074
Ni 1.7120800407304797 7.370209868692841 5.100415102153815 2.061197611464302 1.5502211971760336 -0.09287775926734326
Ni 0.5166177413868902 5.973139306924268 9.539288339593979 0.12079145495847583 0.31024833360414955 -0.8890856734004494
Ni 1.7030585952555475 2.2688935369454346 10.28480741830618 0.4326672968637193 0.6740751146553875 -0.7447557690004013
Ni 3.149655611746036 8.546383109871876 2.2825025612856114 -0.16226900537697214 -0.29499654965140165 -0.2985932658637245
Ni 5.331811518770216 7.581820407175833 1.7943508657015699 -0.49331473534244724 0.11922051092693015 -0.5585670195830379
Ni 4.719872049952355 1.5725038229616257 2.1769388398742753 -0.9082769016169197 -0.38202633477840015 -0.8664728210969401
Ni 2.583171052785642 0.0169422014056104 7.672477699613783 -0.15460608951507565 0.11013397524462967 -0.5255283439605143
Ni 6.92535928148067 8.256589760452478 7.5776811557226305 0.1299875196354471 0.23681402777339858 -1.07617250915205
Ni 2.0164120076546106 6.271853456889363 2.8843464287474485 -0.46923481157510794 -0.7578761084324432 -1.1866823796788595
Ni 1.114386404168672 2.988193696638402 5.986502208664773 -0.14605125796652912 -1.4367231905551772 0.2986549723395953
Ni 1.5564555315183894 0.3842531902745693 0.562262046702097 1.0492234913670317 -0.49923881413636595 1.128913034078875
Ni 3.777414633531604 1.456341275548098 11.897786057036019 -2.5704711841288503 -0.19984516385853324 1.4697549241991656
Ni 5.914637154422527 1.012506287167283 11.513832056687443 1.1771173616982438 0.18495667678247502 0.7976521027788005
Ni 3.6538592585889225 2.097330530758363 4.732797603727645 -0.9596562845301602 -0.8602710631616022 -0.4409714458540405
Ni 4.344210276818719 4.735133481039765 11.34842303044605 -0.5148765206736229 -1.0231285940521928 -1.05468271470939
Ni 4.685295941991129 8.475163098130626 8.801723870106834 0.544347019328914 2.222233001544489 -1.2107180804718245
P 5.131665352680824 2.9920914002614456 12.452600378974836 1.6811538543335691 0.33308847142711673 -0.17860168109872468
P 7.8631961806957005 4.438843958915295 0.6489978467155472 1.2013299543887053 0.8345104092577306 -0.18356031065558065
P 2.1171941799734517 4.280108606435987 11.175568109349182 -0.9101422369604325 -0.44654071241170196 1.0566537223928318
P 4.399354548499669 2.6637876411016936 6.55756062218188 0.7764644129575918 0.17002756627646845 1.1322950631772306
P 2.0588933173301784 2.4072162678683804 1.4460297450711723 0.4279714340499468 0.24642738249344653 -0.02780828046151985
P 0.9477732985920854 7.457899050672303 1.369070227501906 0.4960979545145391 0.0065218602789178 -2.349385879944619
P 6.790760412939365 9.04707333373061 5.304217424036091 0.1854176755792936 -0.5220241874619977 -0.31560908369543067
P 4.033052753784752 5.683410004278018 1.5253068408745165 -0.32335118953469477 0.4350185707047153 0.1352096872663349
Ni 0.3927842204579636 4.933495487020018 12.531769510217728 -0.9441581888945612 0.19699432467329947 -0.612050593323475
Ni 3.736571091340836 7.5183866531416506 6.742574365684061 0.5165963315782071 -1.7272475633678384 -1.2003812173221906
Ni 8.572669735479867 8.546758240971746 13.26691026681815 1.2288366444494063 0.3261943154104447 -0.3588830638927174
Ni 4.556342339025922 6.307893491093985 9.32533551912155 0.5462041271423109 -0.8883256553059732 -0.18988368177044718
Ni 2.7129664133408014 2.1637378849744455 8.094851529266402 1.2751391270603716 1.952731253730082 -0.511125795381939
Ni 6.01045112705284 1.8460201424622562 4.992066261064418 0.6556559887182515 0.44564134052588417 -0.9060469838451364
Ni 4.66089412142151 8.049947421658013 11.01117651184695 -0.024288183123403334 -0.13816105658517494 0.49546931979160475
Ni 2.144084675156845 6.470242911486679 11.272146068487768 0.42343343697027724 -1.912009607641004 -0.07477976411505186
Ni 1.4013250974134457 0.6630121956343641 5.438116352842272 -1.0728853537603458 -0.0515498470528338 1.0957542879387192
Ni 7.406259052436485 6.690188680018012 0.8713673281336032 -0.1651257580994769 -1.3111147738240323 -1.3465330054223263
Ni 2.4729831543529768 4.509167315832464 6.8082451820089345 2.1782959338419063 1.6400917941859368 0.17987694826672246
Ni 4.59026882971664 4.245779536028334 8.004862153177003 0.35741830642173283 -0.6969597325630449 -0.3948260576462297
Ni 2.2668623392827216 5.909165730087831 0.05907857346007796 0.8200641519254135 0.7471060144001327 2.4379943224126466
Ni 3.541576115720396 3.6594038792357875 0.27265992264824335 -1.5646677116186665 0.08902264718731119 0.4542373097250112
Ni 8.733326491153633 4.045294836995157 10.462790656024449 0.2504228768060848 -0.8508639109150894 -0.5862567721888227
Ni 8.045729484169225 6.647085201689 11.594367214106207 -0.29457771694642815 -0.609399528853873 0.7132129611971136
Ni 2.279808936997761 7.712448375781926 9.436349620927833 0.38066956364018956 0.9309380906598613 -0.8180512352604428
Ni 4.103769540879833 6.67536642680362 3.706236709669852 0.9883413111696786 0.05545278165166579 0.019005080347593076
Ni 8.757225087077085 6.2816526131811 2.6269662362646584 1.990898765938739 -2.15892447129383 0.8614997933623808
Ni 0.08421144219749287 0.35355374199663847 9.521263747722156 -0.7588636691566931 0.5690424651930651 1.4802537668479603
Ni 8.273735996578262 3.5647061503660633 2.6881382242527936 -2.1974966751400737 0.9658498149353817 0.9558795910965472
Ni 7.139174858867779 2.1707189832476437 10.018588771128883 2.5342376557181128 1.4149048091285052 1.7131144664005655
Ni 4.81234644083992 6.373632928961518 12.881549982322012 -0.3500873199779584 0.5471384660311222 1.1170329948118374
Ni 7.30791065749729 7.798490640737566 3.4091777113136965 -2.231694146957389 1.4253787120766357 -1.7047738077453543
P 7.090087582018883 8.854365742865477 1.3783908629028323 0.14377248923468142 1.0104175742434276 0.8747170633836032
P 4.287117153326249 0.040566311158424594 0.2072288242457258 0.4523506342252597 -0.46844085491890297 0.9668196350478188
P 5.435283655561299 6.0630060791907825 7.227190679390299 0.2295995123028304 0.9927260705009353 0.0767353451795259
P 7.880708398382333 5.844981713853907 4.837517737641225 -0.5029401742473532 0.8329422934396624 -1.5433416964473807
P 8.132512861785585 1.682645973699185 12.204460305949583 -0.25247615979068777 0.33210219625444737 0.17798847299475798
P 6.037826547804358 6.291241330075349 10.947341093049735 -0.17689806814405662 0.1086044259739807 -0.3982047443104755
P 8.285575500071731 4.627351911369683 7.971785654661357 -1.8774298127836053 -0.8794203823965435 0.07668597999882923
P 9.032671959311195 2.462653324798009 4.330282848520604 1.13391357261726 -1.1800188516157548 0.14924585364442683
Ni 6.982909881924203 8.33312565436506 10.085478306051385 0.14239283527833543 0.7141467858652927 0.2909015536464216
Ni 5.0663193449912045 9.034675708356843 3.862539199723415 1.092218763981635 -0.545316582331035 -0.09613534697269249
Ni 7.406195005663336 6.353686933895239 8.816386921342255 -1.9218535903146192 -0.3591972526990265 1.2108985719137468
Ni 0.8427887430007934 3.6065561418491665 8.374193360261849 0.25085559346812925 -0.5631453829823398 0.5521279488259137
Ni 6.636856017063266 3.051746394679861 7.400687898126459 -0.11461720782696388 -0.7927711205374153 0.5827955531130995
Ni 1.6101907741900696 3.770351189407214 3.5159198933509663 -0.4476719978026677 -0.8983889530792463 0.599531892031174
Ni 1.3557969912438086 2.634646359319078 12.712096859833236 0.4097502830562298 1.6239516940909646 0.47934181810212284
Ni 6.900445086725862 4.513028421299423 12.027226415477156 -0.6075532196737536 -0.697160021499309 0.5383830884359954
Ni 8.996275093084744 1.8433210284509935 1.2725416758740342 0.14695731472056625 -0.5726191268007299 -1.11513809178197
Ni 6.352177259956736 4.265039315668022 9.645668199886007 -0.102482629346959 1.175768560979833 -0.0696864087525445
Ni 0.4815301741943777 8.552183917611334 3.063588643035038 0.1737574656325459 0.5696145356464513 0.30475568592069446
Ni 4.050519223776279 3.78959266996886 3.2303371617891385 -0.1563760369313049 1.2932463781840438 -1.6094815254992474
Ni 8.040477648771041 3.9349879945552155 5.649444170569509 0.13282190376044867 -0.5023665611320702 0.8046167070220916
Ni 8.123198631061975 1.394426344991439 6.198138365857025 0.7908605337782638 -0.007859862364050979 0.12274755024358214
Ni 1.8900385746933908 1.1982602283762815 3.210183472187077 -0.09733990880375494 1.6186089417218124 -0.6458444019444683
Ni 5.701910372178944 4.040344936384671 5.132353398015221 -0.8121068447515497 2.0638975268939683 0.20534063975546574
Ni 2.8332554028529042 8.379495518124653 12.258868954693227 -0.9861147358320049 0.043953522762814626 0.8152890991342733
Ni 4.646703186399584 2.3570676444930223 9.828379004416545 0.4821116675377761 0.975065934217011 -0.7782299894984468
Ni 0.8749118595504276 5.3681260391454755 5.444638144256603 -0.5169498582628839 -1.316748575071042 -1.6783755202574837
Ni 5.915378267083247 6.956961789259996 5.1923862683952136 0.3475105603897176 -0.4633978931783568 1.3905834587743213
Ni 6.555287876689007 5.518773199130018 2.9273867752572134 -0.9939172625955592 -0.691549360180751 0.9503800014345567
Ni 8.676992779399924 6.531059897360791 6.899372760752574 -2.0141901323665117 -1.8767106752293936 -0.14493308520168585
Ni 8.662179675724554 7.97140777869978 5.1128694546695135 -0.05887157752522765 0.7901753347857811 1.488832766766223
Ni 6.359213255464061 8.227448478669862 12.703177889195342 -0.9190523949658688 0.34841713136438707 0.31433098831395545
P 6.044862543311684 3.1507627059676047 2.8298179210426277 1.1712436765262861 -0.7577452392815337 1.2502431351496401
P 1.5764381247407546 6.703766595925517 7.278773950484186 2.2151722380429657 -0.48435212683252066 0.8241313800162517
P 0.6091964370192973 1.4520501417471414 7.7639401514856 0.659438081468503 0.7483532565436725 -1.0103854354539115
P 2.969446291183903 5.120484615996882 4.571928578748587 -0.5520161058383977 -0.3398003362296535 1.500129936946597
P 3.2964233671855765 0.6982754339760842 9.97268370395157 -0.693311080066864 -1.3198336417542689 -1.1840752810733157
P 0.4484866140192079 7.789121512779827 10.89626653632543 0.9018123769384986 1.311821827193386 -0.19831252926409074
P 6.473051819966197 0.9651208245763362 8.665212747910092 -1.532905331605405 -2.1017914737262644 -2.290768841632358
P 3.139838156376257 9.024135439404388 4.5645366661733355 -0.3897568706534384 -0.8882140694287735 -0.00964420795798339
