# total energy = -381166.27622180054 ev
CRYSTAL
PRIMVEC
9.27450333000510 0.00000000000000 0.00000000000000
0.00000000000000 9.27450333000510 0.00000000000000
0.00000000000000 0.00000000000000 13.57417310462239
PRIMCOORD
 96 1
Ni 0.9406015615445329 4.20805539754945 3.345612856490474 -0.35004412544484875 1.3465036948462876 -1.2746377619439209
Ni 5.783988249106457 6.644124221229385 5.451387871660661 -0.08835158926221559 0.3128045243671 -0.4377279992160784
Ni 5.690927884392719 1.4420183004207052 11.718501684509901 -1.6030154581589295 0.21605365529759565 -0.9305321134706942
Ni 7.087491844823188 2.9363169751578684 7.257893218843717 0.15370286097451594 1.2058808069841813 -0.20121761872602767
Ni 0.17321154847819767 3.0444020349918226 5.175832180804938 -0.20769319914804232 0.8475947532455144 1.4601323135077369
Ni 1.7425122028250402 7.669160859548271 11.382107107821092 2.3472989155086026 0.8764062781605679 1.9520329421114768
Ni 2.141751740380578 5.739238771356429 1.8122202960306335 0.5720835660122341 0.13405731882944655 -0.053734513408978425
Ni 8.325777134314388 6.312004263047309 13.137546113151416 -0.270607836394392 1.3774122114996858 -1.5133816597501806
Ni 1.0363700811811738 0.9365115056506961 5.077921250938192 0.027254464840578866 -1.3671841060137744 1.1649519299803035
Ni 4.777352225058255 6.684579604016044 1.6286018275558958 -0.6358122145194469 -1.57680306142962 2.009097291224637
Ni 2.208695104193988 2.8707740613217125 6.525267753424679 0.6543994906033311 -0.1412425237239761 0.515032843745829
Ni 4.1536233384997265 8.532570731286901 0.6886939988477776 -0.537722572033861 3.5927397441735933 0.5372602876854619
Ni 8.08938859775631 2.7857175928355966 9.699465532699168 -0.5634950530122746 0.18899176608379709 -0.6828891134025916
Ni 5.338162882175087 -0.05740175496175652 2.815229061892714 -0.3066418471998138 0.12686517195638153 0.8678519608326536
Ni 8.42852008032782 8.14141856048743 11.251780861957638 0.17654839811412176 -0.28071252892856174 1.737315232016485
Ni 0.36016327338886517 8.348657333611655 2.585405018671729 1.5148780417900491 1.2122340028957188 1.9740410709514518
Ni 0.03126156780352755 4.922414728993632 11.343678203975031 0.5279922321199746 -1.1776462376185204 0.9320706616024076
Ni 4.191268546828714 2.233634243192916 8.35203881746402 0.12274112248567894 1.5945207904243572 -1.3296976790325423
Ni 5.841063541556959 5.125396505167129 3.3340883588630787 -0.29388583308572613 0.8321840751173991 0.15598471503015718
Ni 0.26337919565613555 1.8339959020014713 3.067681965375314 -0.7265289615797295 0.3048996676977265 0.4408328633936472
Ni 3.3786273053913605 4.54201170735733 13.049259335214453 -0.38579274379936784 -2.1769378771521155 0.06707442505099416
Ni 1.1814882321355145 7.860438212733055 5.658692493757327 0.18839784125354003 -0.09560827082462889 -1.5206761365290649
Ni 2.1733685216551573 1.6970207648221618 8.888055945281545 -1.736562927231493 -1.1435590661268242 -0.524212196252252
Ni 7.858833723686267 4.357365623932394 2.400483482502923 0.46389411608848496 -0.5879133339556392 -0.11436575393779012
P 2.7128756450120273 8.615976338210427 2.621552394740275 -0.46307547684193145 -0.0807912604164544 -1.6056305271842735
Ni 5.72536411462813 1.091265865388929 0.5639305999800667 1.0286886046384736 0.18863669673722352 0.7987191105907341
P 4.4972993276199436 8.150322083521633 7.692714387775001 -0.2153813118209194 -0.4866159831660329 -0.6718516246415075
Ni 6.58552791026054 5.687431396701164 0.814273553993624 0.22508799758572204 -1.0404675995512724 0.7718587958647803
P 6.480920789111821 2.628069588111248 1.9996524402050218 -0.3974663234825542 0.3280257121922286 0.13942655356115988
P 1.680901678328991 2.933905604336105 1.717105628866817 0.8111622214500933 0.16663139611072594 -0.8036047208178095
P 4.193410957058819 2.4827010255715707 5.7057680169000395 -0.5662638740066636 0.04615901505456567 0.22138509481283808
Ni 3.5511330641790346 0.4969798165641279 6.536616035492022 -0.6012979827926612 -0.2482140420802241 0.9839982037096343
Ni 7.369325446868341 6.167349837251001 10.762527633976628 -1.3541550407439582 0.4905448859067939 0.6986157801092291
Ni 4.962990680321378 7.318426973522817 11.019377579407681 -1.944095432431955 -0.17565596820683943 2.02156868421877
Ni 2.4458812480238787 2.548920978138452 4.0371216670475025 0.843404883533883 0.384037451671158 0.29575708196651
Ni 1.6013449902171273 7.8755000058659155 0.5593749640275664 -0.23153992385865285 0.01635761542241699 0.08617643598776771
Ni 4.091252304744506 4.330441741257092 1.9516132961839188 0.03094811164208219 -1.0041409972060964 -0.26880317908548546
Ni 6.929343016928167 4.6034274672870055 5.3579435425160735 0.7747667135401948 -0.4336895674806466 0.3762858327501971
Ni 5.28310015691044 5.207809740252466 9.862260886677664 -0.043003757255035614 0.008877762105604065 0.6164214686976609
Ni 1.7139838311029496 3.502701608674237 10.247726859589354 -1.2362995284853546 -0.9126192377460153 0.3292989224776974
Ni 9.474832428897187 9.561827268543874 7.95601289525364 -0.8545009934470444 -1.7575315590633604 -2.4947524531392973
Ni 2.894850671526702 6.447829361834701 6.615427053549771 1.2018827415683817 0.33624450055759514 0.46772248869563965
Ni 3.4251945857608717 1.7514435493687248 13.47358825872012 1.2750144285570493 -0.5596857065685135 -0.8081704858116211
Ni 1.0707784879071023 7.35099902862294 7.797928061430426 -0.9250327809190197 -0.40650786485953216 0.9463302568452153
Ni 8.610856812465759 8.808394455283967 0.3895690131099512 -1.113998578860888 -0.7010601278846637 -0.47467115209933086
Ni 6.035967225477549 0.9688887961844472 7.491464161341595 -1.0419431556555345 0.16992292237780413 0.22907012216192163
Ni 8.284375752205344 2.29442861141083 0.856535609995972 0.8247813548954247 -1.219570902876764 1.3468554217587514
Ni 6.264453885342771 8.430634667048443 12.717751494240979 0.3197670717278622 -0.3610260783776492 -0.5592177657931594
Ni 1.5781680068187187 2.7416822518289368 12.775861821244208 -1.6178887757263363 0.8161753583939687 -0.27932259055957054
Ni 3.5687453456810663 0.38826501796556684 4.206677206379781 -1.6964886849184266 0.9953876764934987 1.0391398818787845
Ni 6.645932749345707 8.233468004356661 7.072850186683506 0.5252282962215922 -0.8106282033234943 -1.2851204066427995
Ni 8.29272280504991 8.588449612829683 4.796108052799993 -0.19224549713440442 0.9071214478562377 0.6596255148889607
Ni 3.444244415252801 6.731193256901357 13.356958599124281 1.8367493043451077 0.2662973819444962 -1.265090227464802
Ni 0.6932078995360552 6.512314982310545 9.931380976382874 0.5506464791843807 0.6753606662360303 -0.8690099856964969
Ni 7.740908415998888 0.30119876464454287 2.4734181753580984 0.25636495332213266 2.679742811373185 1.3204324516805324
Ni 7.453102033918291 2.343323792073659 4.311510625405619 -0.22758890963070483 -0.3762408384448746 -0.5243980870108129
P 8.212498352710481 1.1484617263805192 6.194750429388759 -0.35566635672763264 0.08447102326088678 -0.21420914588968912
Ni 2.975705790081054 5.309940569057297 10.238088795904831 0.2963620625403605 0.6096689804651758 0.9360296462501558
P 0.252732066027735 2.060525641699801 10.977746189620257 0.9701893228510001 -1.423590252717645 1.4449751461513243
Ni 8.444824656884203 5.3281093207489665 8.960935918568074 -1.2658574446481297 -1.446180222203019 -1.6338373286357928
P 4.0870695038190625 9.100198148226793 12.122862602710738 0.4056501448449272 -0.03780215844943813 -0.19217993400379157
P 5.959665887975066 2.0221013751053207 9.390667240164806 0.9078920074736752 0.6190334523992113 1.6527915011407923
P 1.7983261628456972 5.921844464086027 12.564661907820078 -3.0227644827536135 -1.6048142019305653 -0.5583307352025159
Ni 5.459417736497133 5.462840028163405 12.415196797234353 0.1340336646803627 0.9413384600575787 -0.8117687446858407
Ni 4.443479385778822 0.06612535263464288 9.6207630263284 -0.1245673770611403 1.1317188789587862 0.5222604718425199
Ni 5.496283886560628 3.4112271840009667 13.318720750043328 0.07766171364853722 -1.0369277047188141 1.0606296763214442
Ni 0.9103286557779283 0.35870439404169846 12.51327003090641 -0.9509245610841172 0.20614770903779336 -0.5153640018330028
Ni 4.06693455745734 3.2346684673320985 10.996057768660599 0.3858079133080194 -0.21628582591305978 -0.07691943616587398
Ni 0.04641239616672885 2.428194770496562 7.815818578027277 1.4043452884451042 1.8187060736901517 -0.9667548432481545
Ni 3.6802063246654892 1.5334092545655298 2.1770662660652995 -0.94156086048103 0.4109322191794729 -1.0563493037785356
Ni 1.5093790168763437 4.684152742797108 8.062243981905786 0.14437515581568683 0.6612483952043644 0.2571519679998023
Ni 7.81425118699313 1.2311810200701572 12.328851172808909 1.4821810657776602 -0.19124662355624483 -0.3484924646870127
Ni 8.539294746078356 6.272309389519823 3.939618815319824 -0.6905944524666493 0.23561563658992327 0.17161573669919475
Ni 3.1127643977888084 7.284593585992847 9.183348706313401 -0.29435737340550594 0.8592395365732943 -0.8163895312873037
Ni 6.623423530174864 8.06634145740215 1.44759042191961 0.17875826128124697 -2.7124914665591153 -1.467854364742343
Ni 7.98920541461521 6.572283919747164 6.509535413713305 1.7642434238658973 -1.2577535845940726 0.04549078534294746
Ni 0.8660197169280298 5.348114424066441 5.482065145765069 0.13354824040351196 0.3303127084541924 0.9986426930956865
Ni 6.744808227541159 3.883299394876913 11.122134437175855 -2.126727317735995 -0.28886858237679286 -1.6224478558519282
Ni -0.1312629706826789 6.46067454871217 1.7108481215843414 -0.8664314263360433 -1.423172448453936 -0.44784220483194487
Ni 5.404902206918964 5.787438364282211 7.664887168491855 -0.48280715094290405 0.1030996941056676 -1.3179179127887948
Ni 0.7497341413994484 -0.10453385257375007 9.971790914104044 0.6796279261528166 1.1190366555054276 0.7870283045163672
Ni 7.284946017112951 0.39122172957317497 9.951212646491244 -0.34111494127601893 0.5696477028772319 -0.3041753879371923
Ni 6.046132080941597 7.627926418496122 9.206004462634182 -0.40711978741191823 -0.8446703805098678 -0.3123352980401653
Ni 5.634316317100248 0.9187035321319751 5.059922222654362 1.8279921269777677 -2.211475763027985 2.361772169424113
Ni 5.1439176879789015 2.565364672242245 3.784044589502192 -0.6029265195350196 2.543461488309226 -2.09007855616471
Ni 2.575538802209453 1.0591668099499965 11.179200455123198 1.3406256387989557 0.42843628950150736 -0.6500468700615902
Ni 3.8795803191095013 7.391148352805298 4.332618467148891 -0.46694987219567324 -0.7999542685494159 -0.6975870817343987
Ni 0.34495587055638405 4.596749825011353 0.30022586926299305 1.9585231778215106 -0.38804811549244783 1.2385579855022282
P 8.751569574418802 4.4632340775109585 6.995639947871281 -0.5310294762844016 0.10751659222644064 -0.7326132201005964
Ni 3.902692380985785 4.8513071132611 5.164348490991449 0.8363196945523274 -0.987370462615977 -0.2659263717583227
P 8.063911537574066 7.80567227156955 9.015707424433476 2.8450811997041 -0.5298290282183972 -0.7728247593224755
Ni 7.904148946129094 3.649646836751221 12.809173054246235 0.14536451631214964 0.6550286395468976 0.5593725462034689
P 3.7398692034978067 4.388351738992051 8.297702285796852 -0.2875763459279306 0.7040793743269615 0.258627009883432
P 2.374068770051139 5.838021504520274 4.027755346305585 0.026450995102677028 0.11255235487813518 -0.24730232889923215
P 6.681444821947751 7.648395246971626 3.7055053143870493 -0.2973352250869073 -0.5850306130912054 -0.48607193773710483
Ni 1.1134875749617925 0.8836626042904917 1.2009099692041847 1.286014636322295 0.21159999040161623 -0.3589766520477882
