# total energy = -340866.3800990821 ev
CRYSTAL
PRIMVEC
9.29759596007525 0.00000000000000 0.00000000000000
0.00000000000000 9.29759596007525 0.00000000000000
0.00000000000000 0.00000000000000 13.60797150297087
PRIMCOORD
 96 1
Ni 6.9805048540141375 4.236338011994488 9.85855335831287 0.016680545979474496 0.5378657824799448 2.80773541206579
Ni 3.2955049827657272 5.002115905150682 5.940056452287231 -0.08779006033179074 -0.037226488451626204 -0.11056412080351281
Ni 0.37899604316437374 5.012426939031311 5.865457191384414 -0.6147168273017285 -0.1756261434101685 0.06712893243801343
Ni 9.21636282922779 7.739532692528911 10.53874781074066 -1.922599210231392 1.330469009980928 -1.0758603772282698
Ni 1.7530896044131454 3.675079336396625 12.180113783482762 -0.810121953111037 -1.289967707432772 1.0355267106062294
Ni 7.276038238080561 6.6393574643405335 10.07188576704834 -2.4261744469595827 -0.37868132956556716 -0.3232216059353659
Ni 7.95043006089167 3.88222977360168 12.394875232711877 1.9899546568579147 -1.660069265749128 0.7327026944906091
Ni 7.022697344320985 1.428222305203906 2.6792194154463913 -1.9596871162226248 -0.6129471369958153 -1.2861115669114753
Ni 4.393374407164748 8.756857043431191 0.6527535278152687 0.7310134797136443 0.14363442099492038 0.24076478489103048
Ni 3.4196278883621134 4.367880399138883 9.202472220916105 0.7667885804307245 0.4393974164987013 0.1800767229823544
Ni 2.024542215034277 2.8813249771026386 5.718219532559325 2.0576371478065534 -1.3142687460719817 -0.3162973680117069
Ni 4.892078857380403 4.123335031124189 0.41730864669179174 0.09900958319669399 -1.3099678047037826 -0.07143373046095439
Ni 1.2269200558355637 8.352327942338068 8.036881897079452 -0.010166913230672814 -1.6873147317286428 -0.10078981502556836
Ni 0.9611482763244993 0.13972055251986967 5.8728878300475325 0.6060666078258982 2.0788199525317554 -0.5676137031663385
Ni 1.3125323191113336 5.401354674162581 10.374648961705905 -1.0877129056914816 -2.3067752443629432 -0.8343340315808664
Ni 1.5238852696744094 3.830990722459981 8.009488390206146 -0.27706439065301314 -0.9789773534562752 -1.405238746793651
Ni 4.145705046919314 1.979420982011111 2.0541643556507627 0.4826143182058076 -0.3217172534756975 0.9799538584369315
Ni 6.202026444824636 3.7866783802822748 2.9978768503374416 -0.7037389602684073 -0.4813639907384742 0.17954836128271015
Ni 2.3056178374376 1.1584618570410923 0.36809182266374135 -1.2562962833222557 -1.013261471450126 0.6790273164543402
Ni 2.9693360201270123 8.57674401517552 12.48384392811651 0.45079563103331394 1.4146379286203636 -0.16364300290636336
Ni 4.685198050457167 3.213992959292804 7.5358902382662905 -0.4142178319092802 -1.3567451700686377 -1.2087828111223247
Ni 4.031205153105119 1.7113248035188406 8.937334537447114 -0.5919029147310064 -1.2873251276036022 1.1621555981820888
Ni 7.25456079149422 6.461959334094912 5.851890139410912 -3.0426645641116505 -0.8407391637762617 0.8123045625846527
Ni 8.291614640948973 7.754715666674147 12.672858474710607 0.6868938636866105 -0.17590485099285189 0.5854309338534176
P 6.235088695933306 8.551659101370348 12.905460151000272 -1.2695058400339942 0.6864940571450305 -1.147863864149765
P 3.803637195249152 3.502041778639745 3.860663070094461 -0.1275621980234061 0.06229088761942175 0.6618798581407762
P 4.943792085914268 6.568965365593699 6.292638955188775 -0.5104043438348823 -1.0789531572209803 -0.5552832066254437
P 2.6656393468385953 1.4908695065453632 11.801227451950302 -0.1916374312367603 0.41535477372720075 -0.6508307994154662
P 1.6192135206916194 1.07980419551709 3.703355185123196 -0.8590616162345334 0.12577296733346727 0.22250378179831357
P 7.706126430371022 5.798203961021799 11.898047967113445 0.9619432807921239 0.31631279463067463 0.2981728904968542
P 9.180780929623493 3.75069668405321 9.42950742652558 -0.5446678930034425 -0.41782020454855784 0.8208179993723025
P 0.16129190482505143 2.2349932987926446 0.26944154062259223 0.8838087412722263 0.6727551102923833 -0.5175820925302441
Ni 3.9407953303321404 0.5759154058137543 4.548791161124904 -0.3207880567932088 2.332359263479635 0.8190331395577378
Ni 6.224284889468662 2.654696076435078 11.890087365482612 -0.8727141740209616 -1.493711177904447 -0.6036441144273346
Ni 1.7633913406978492 2.894415992164789 1.7795143017910848 -0.17368136097897183 0.35875502295528533 0.8837028118219813
Ni 5.663677045585536 8.620052216993345 6.206323793661088 0.5799958788807753 0.013547913887763765 -2.709619287217643
Ni 4.027699959441461 3.56135114304419 11.277919703398382 -0.30370667583088984 -1.9908121197622035 0.202915832364057
Ni 3.2426481499331086 6.274268765160509 2.4392019766470865 0.0456710196745536 0.15492336364517836 2.5665983314370053
Ni 3.7145476310974983 6.443094511963445 8.190665063435615 -2.7136276370460877 1.6573600943480813 -0.40297311223339627
Ni 8.556187030585736 1.5117890973762147 4.270888808210723 1.8110351874084551 -0.5844667701679354 0.21839310206404972
Ni 6.205066758692053 0.5015039563486187 8.046420300738728 -0.13424423802927204 0.652345950508412 1.9500025419450095
Ni 5.620824425968027 5.115304837939477 8.002902903012593 1.3397918300437508 0.16871193278883848 -0.0312432742849978
Ni 4.258038600883025 7.666081684722809 4.3084743397368195 -0.6888453309860266 0.9506695076505176 0.7863541612674779
Ni 4.670851859945166 7.508943015997376 11.50275044901408 1.4569102070260134 -0.7569844498561092 -0.5611265527800982
Ni 0.6622891421957672 0.32839201782433974 12.316942783670012 0.1875051542359416 0.7162746308415728 -0.6372970265950896
Ni 6.764735545386771 8.98167291289341 10.69548482332214 0.8366040585619656 0.26337403765011413 0.33249300393496284
Ni 6.7863059679323605 7.942443425992247 3.5026507711728208 0.030336960420644526 0.042936394352209924 0.2857102392534692
Ni 1.4123420113643084 7.714717409005559 0.8474935339798708 -0.3254461243905105 -0.014674828403355373 0.2264627664460616
Ni 7.894439938232386 0.8881193793733849 13.21495945390537 -1.1256173940467387 0.8733343241034637 -0.6586747209399173
Ni 7.3986642307330515 3.462303853657051 7.845743779576127 0.4615703530513147 -1.584235606448265 -2.159929772629893
Ni 1.58530518835379 4.305688779997743 3.958640206190653 0.7984149490867539 0.7356273243365717 -0.6081288896715655
Ni 1.9591801156827713 2.7875866149885726 10.04117208867028 -1.1357287714491278 -0.5435332651783671 0.1718304238131621
Ni 8.710480634958174 3.45607446438742 2.680811163868721 0.49692353573962805 -0.3417435759989534 0.3658672085200344
Ni -0.09787672206020388 7.380022550903782 5.924447648248639 1.6088243515312226 0.8472864779764763 0.34839064900182576
Ni 5.524696581701282 5.1121901433046615 11.938736106399658 0.6109627595759348 -0.2693230561446975 -1.2405513617831732
Ni 1.9892020529240246 7.469223686206533 10.246162694341999 4.512548300579196 0.06579298723540927 -0.7238637560427403
P 5.19527346048888 -0.1709149166072432 2.613343159040243 -0.1472725319681399 0.8596226309443259 0.45408432908691476
P 1.276969014698886 7.543511477645867 12.26721924066406 -1.7680440285589099 -2.3681868147012053 0.5628947004241144
P 7.989972736359942 7.797642667059054 8.41284227517437 1.0782113939589497 1.5040153880439324 -0.48506715062167427
P 1.546506320559504 1.5097064358890544 7.771036666560581 0.48385667525334086 -0.589656541898991 -0.012844202952519816
P 1.8066902449197497 6.618326302358584 4.080145838534202 -0.24772656092084433 -0.45143326461731287 -0.6072670558919026
P 7.673361702331945 8.827370010925048 5.242103591643028 1.380066104182765 0.11137478963026626 -0.055347623532369196
P 3.9353841295038934 8.40339963675312 9.536044859189756 -0.17053818736429985 1.0062014792795508 -0.41645700565244403
P 2.710704794286212 4.459749944472059 0.39406279736054933 -1.0722423208597083 -0.3605902763918112 0.7435059557537002
Ni 3.089163436406131 5.559609054398993 12.06308587333661 -0.6348102556174938 0.8770703941071283 -2.252408753796921
Ni 5.855969924502724 7.381482273463978 8.167327167904718 0.6593745752204192 1.2540244565689433 1.4476048704646876
Ni 1.1580341676285504 5.307207217827823 1.8374708659884686 -0.3415576852403924 0.3654982552163899 0.6592930712502064
Ni 1.8006282123767652 0.4449643457701777 9.884898096365855 0.17293651239314733 0.7755357304957353 0.15736025522144514
Ni 0.4150065619408056 5.380751201593173 13.260192258079634 -0.3822209672877095 1.3610175721917463 -1.0286137855364803
Ni 6.422584015353286 6.370350121447631 13.552791320872185 -1.0004404084260576 2.554668412768639 1.3112991219206964
Ni 2.943972178444095 8.86827943299427 2.8482710938303 -1.5690439863094914 -0.5619716743892128 -2.821061182640419
Ni 5.294776332076335 5.865760293011562 4.143395524091588 1.3818139401118075 -2.57223444667686 -1.3345328956376565
Ni 7.280110585095633 1.451438402228189 6.220475664418261 -1.9299121989530374 0.13596044938943036 -0.5863305628495514
Ni 4.323493676193778 1.7401566484817166 13.255742428670015 1.6666700588950973 0.8373717899659257 -0.38954578308389687
Ni 0.4417892167618507 8.335527186501913 3.526423794193 -0.2081220591553448 -0.5928717064021789 0.323953599005384
Ni 9.225613937172989 2.6330884635057896 6.323746851634048 -0.6060982323947819 0.4515242816692224 0.5562980210432033
Ni 3.7018099246804907 6.3914835569847535 0.36052450934052793 1.8376116523454031 1.3463975082857262 -0.4288749197008227
Ni 5.643742999922715 4.12460880176589 5.7157017435828825 1.372239923270127 -0.3357706462449701 -1.1945473842492331
Ni 8.039882231284393 5.901305002232161 3.7581273227163288 1.0449117513655553 -1.2331553264294182 -0.9373015709840438
Ni 7.481580191190623 4.729668451765595 1.075050334720728 0.05541138689076909 -1.73307316891068 0.25172642610885676
Ni -0.06367272617196514 0.8081377401896876 1.8741173403261584 0.8377721107281378 0.05608193059523245 0.19561672759948245
Ni 8.443741905470928 1.5876853729105447 10.259499165936564 -0.04962100546123712 0.6209149856926404 -0.04383345224518257
Ni 8.373321913936318 5.596343855897969 8.184664395025736 1.153924211411232 0.35198222300782606 -0.6075650467482956
Ni 7.266498904661693 8.490731955274983 1.1686715471261404 0.27878985798455214 -0.32715873620624303 1.565872016339413
Ni 2.385298234513333 7.4102211424676065 5.965639717233975 -0.015350000093509047 -0.6027141464138974 0.3268730866450241
Ni 4.716679710258617 0.7585332064115722 11.098689016995976 -0.6812911727878525 -0.15675733153012358 -0.21374711865160606
Ni 8.797496835218592 0.6492297389597609 7.87506932688261 -0.4735010430506297 -0.3012849537632747 0.6113561383596116
Ni 3.576180808544283 9.065983512739704 7.274168491540079 -0.2702594519160378 0.6881655313101825 0.9805161586983049
P 6.708912779454134 2.421224145166849 0.7388911052607913 -1.0911291304618822 1.012503767348495 -0.28824329008796806
P 7.668833773116557 3.6758603344543097 4.730008743776444 0.5662021675307927 -0.14203288083575538 0.32378313486579074
P 5.496376104514272 5.56737254699622 1.8634344026085368 -0.42626833531591096 1.0176914821970215 0.8739845560929529
P 6.403616919666647 2.2110984772658497 9.359644360986868 -0.9311306662866415 -0.7925839442272737 1.1544302045133732
P 1.3828407394948452 5.86799171603352 7.640032610220233 0.546474350084562 2.5996107818072844 -0.2890860977042376
P 4.871233647316949 1.4227088308204858 6.225347604682869 0.5549520485382701 0.7318498595720105 1.397955068648044
P 4.921635914825415 5.8091007434456925 10.008105188763647 0.2714269898615777 -0.36500974561574556 -0.3497276226456945
P 8.519945001670775 6.54317383449824 1.4628707261773513 0.6657267426906922 1.215433740779939 0.49301314494162835
