# total energy = -340868.34038663114 ev
CRYSTAL
PRIMVEC
9.24471567470637 0.00000000000000 0.00000000000000
0.00000000000000 9.24471567470637 0.00000000000000
0.00000000000000 0.00000000000000 13.53057586011577
PRIMCOORD
 96 1
Ni 3.6068258598384046 7.049631972386657 11.95576565561824 0.38593286892165796 0.22975120738934626 1.531355213509466
Ni 8.42095613167152 2.84496883277373 11.007069224842997 0.4116115046346847 -1.7238771042337087 0.25538793412084404
Ni 7.108428364719279 2.8263961987806105 8.889642883118183 -0.577072020365761 1.7351786452894569 0.38276964070232794
Ni 5.815240543169527 1.7685048831506522 5.289738541980948 -0.5417453200400089 0.4481155130979896 -1.7012243998311993
Ni 0.3040476081995472 6.680869504814969 1.1587964638487211 0.45421314135529517 1.1204139954689283 0.7094421813007717
Ni 6.702012169793697 4.97249225306862 3.1507840306295662 -2.142586139145123 2.1280532356362705 0.7797505399080312
Ni 7.153034118336401 4.5222745947983904 12.84810722349719 0.3867795331926694 0.15453512706782416 -0.0609549424168176
Ni 9.028666767894352 4.582540896939327 9.570907251466178 -1.2809608759484714 1.265505974845982 -1.7199931957982701
Ni 3.0280511839931066 3.391368513972984 13.052770439223055 -1.471619745322046 -1.4064741618626486 -1.1113863380490216
Ni 1.5423976247117757 4.80842628219959 2.150779427299913 0.41648374512532144 -0.326098927483161 0.3559728322244579
Ni 4.04908381782587 6.192082892329063 9.674780877920474 -0.8081455461109565 -1.4152951025883884 0.252072753704682
Ni 8.663879528106158 1.2577990495608715 8.574421186960706 0.36807989990063705 -0.7515450240080928 1.517696742185767
Ni 0.062362079207258565 8.81481800257388 11.937282695368145 1.6674295627689413 0.8632679410063971 0.39863103321461674
Ni 8.682729503572544 8.139805835504903 7.420803612889459 0.5894475112119784 -0.096672193312769 0.026775725431947433
Ni 5.77492433767227 5.4753770571122695 5.631060844187592 -0.4141900639951383 0.054648540582815555 -1.1318214659749217
Ni 8.107467819721963 5.736105776130653 7.4549554419075665 0.19054394106226538 0.4298123439134275 -0.004449036910289112
Ni 0.0579384827086486 6.118485710039755 4.117611197983856 0.7618263513294428 -0.7313271542993212 -3.3490282179494133
Ni 8.137226559803521 2.3084425080227837 3.8780122013421128 -2.245263143891075 0.26949377739460684 1.9277285610381574
Ni 2.152003427668598 4.573037329122042 9.363037043837767 0.2810100055643225 0.8243470955714836 -0.7883652781602358
Ni 5.750962034381994 0.9001884826292527 9.749835027416012 1.1221749440240931 -0.1640232690639175 -0.2699174951955867
Ni 7.87834678394025 4.354298109156294 5.334375727631707 0.10377615134740192 -0.2478972821707537 1.0645495802011409
Ni 3.6911284229958223 0.6862334030773621 8.908450332892002 -1.8803585563946261 0.026132435420993704 1.6005837087889854
Ni 4.134033511087577 3.254703880662742 8.670298134269137 -0.6178813410726391 0.22503708974312855 0.38037980031391266
Ni 0.8709058454101367 7.630292570250172 5.4091321972792725 1.3728523600431453 1.358729547488518 2.0152851652029034
P 7.275166058447449 8.487536574687173 12.125588311000717 -1.406576748878784 -0.11124983401662775 -0.40043980428858134
P 8.855744359312327 3.6817635259151706 7.5136233326909085 0.10037021098964649 -1.038908482594269 -0.33567191588357675
P 7.786879566056767 1.3392080166805356 1.87265862449295 0.22845871383016786 0.42113898450914566 -0.9438103186368391
P 1.1009254675652342 1.458788415237526 11.256411227440612 -0.02353150746303689 1.1715848619157887 0.5538426175241752
P 1.9020078236656504 5.9878301419836335 6.548528625072961 -0.4540131095293471 -0.094102889923696 -0.010304724360117737
P 5.422737645486177 3.6375922739394997 6.443774901676829 -0.705637719953017 -1.0243174721539712 2.2779490641598708
P 1.9875954023158717 6.812089000533402 3.068680785355156 0.32342935107079784 0.9988221560963444 0.3742842289391361
P 2.9857566093198766 1.8405581979054402 7.05928068224162 -0.27461515778157225 1.2587198051620838 0.03579746931458351
Ni 5.249547140146659 8.927446374867642 11.65580606073465 -0.24338293924016796 0.004994625001113979 -0.31475393478398694
Ni 3.9871627115611057 9.239973236376542 6.813984167267392 0.6932403747299286 -0.8894168314876231 -2.6917208096706675
Ni 0.5376412374734799 9.298704915698735 0.8061336688001871 -0.12138229446493934 0.0838290188015137 0.42855944534293283
Ni 4.939285234002775 8.547664206091476 2.2073376739432686 0.7605086609592838 -0.503587578023365 1.8632378375539396
Ni 2.1163003353433494 0.5207483683367818 4.7768213723776505 0.8640282162111893 0.21335939629488415 0.31958015252803673
Ni 8.36117979946669 4.17986881190285 2.1075770215375216 2.099345840399249 -1.4744330464011253 -1.4097407484290623
Ni 5.936753087323612 5.08168159109387 8.384396978665453 0.290866329533112 -0.5704632567999918 0.14134099697505334
Ni 4.747032124734034 1.7470756319828826 2.517647652609187 -0.09819505771519862 -0.28218062883365597 0.02040453179828099
Ni 2.8416222456629736 2.7693193235822458 3.86384559888763 -0.8085522946310719 -0.6430195309011636 -0.08643586029674145
Ni 0.9605444585132127 2.772296122061979 5.678769124418994 -0.061374032232107203 -0.031332748675010555 0.12478103573384317
Ni 1.501129213489634 6.763896297195358 10.860533084027601 0.010593202134814014 0.06396416155678662 -0.0693303109647064
Ni 8.411748394759053 6.593016970799733 12.173432488554022 0.245832429221925 -0.8618098684036318 0.3569354532480433
Ni 7.729664020121768 7.057166415743746 5.229405677886427 -0.09213985266005423 -0.5172843587841672 2.096637183218834
Ni 2.457217718999022 7.842135232247345 8.082354549317628 -0.4705612436960154 -1.3972421017414194 -0.31996993176728766
Ni 5.528071937033015 7.8421074981000185 9.097661930670581 -1.0419485549721732 1.3093461119593837 -1.0032362260036398
Ni 7.681711679393889 8.119254832335814 0.6941588979117578 0.17465632329773148 0.3067665457031362 1.3137576107635183
Ni 0.6803408212420142 2.6931890891704318 13.554795484699577 -0.04725661899411862 0.7700117153537126 -0.028063333895119412
Ni 1.2863097530127277 0.49755060304114557 7.088384896446267 0.05035402697251973 -0.5385201282344919 0.2333713206404368
Ni 0.5987432619205284 1.8174741426138434 2.693342551452306 2.589295773034521 -0.357346572643533 -1.9159907037759392
Ni 3.3520692272110386 1.772165790597778 11.118141711471731 0.5909487783478533 0.4855188934471122 -0.45258280484072383
Ni 8.020188458084812 8.58702820586385 9.81892263735 -0.44067988275555076 0.13731747763795707 1.1125667315103678
Ni 6.595429841617157 8.910611747440331 5.931006571997518 -0.5833874210608276 -0.006457068479253396 1.2299401619262302
Ni 7.815612142687236 1.7904518384018542 6.583477348590923 0.33596810696775686 0.5195317600574472 -1.367949009204257
Ni 5.693459902257952 7.348753996020982 4.298379596844607 -0.237664548699152 2.247653755610439 -0.5935358223487391
P 5.429375351413036 6.407595706489137 1.7803667779622856 0.9036653709868373 -0.6249963548508655 -0.2839112383715175
P 7.681989020867157 7.539121183271506 3.0785171629403623 -1.0412276176457487 -1.2460666351744476 -0.8100949565278436
P 3.255018200999111 8.10175458537266 10.12691866365729 0.10948811413051465 1.3243551837737064 -0.09574351085091252
P 3.57403485298246 4.09112878517316 10.861980806518055 -1.3360004813221185 -1.105241401493548 -0.6040002122151727
P 5.776791770258934 6.918061177468754 7.087369826654109 -0.16812700681964593 1.2926892201289932 0.33393667836002494
P 0.30859785730428246 4.118345228416436 4.020191307612483 1.0597529301434458 -2.760275933032246 -0.5598075768583584
P 6.911414226826119 -0.030780281174758346 8.046173505186783 -0.48774315479194064 1.55167387046216 0.2400520750947221
P 6.872983943347077 4.371946271571856 10.560073350020554 0.5283714698362643 -0.28242282675144903 -0.634852421709339
Ni 1.9609983550295587 5.407761205929754 12.91605773339078 -0.3550876014060272 1.5055027712227362 1.1126484925908966
Ni 7.706533741251293 2.1517168414795558 13.18769799043907 0.5915455313915877 -0.6793281355242107 0.07545827823931521
Ni 4.466057478167152 4.853993486257371 0.10646492028618998 2.1708253364964745 1.7246695182280167 0.5595090717813331
Ni 6.792453224226092 0.25423430618604653 3.5455250740021818 0.09331664657697478 0.1348314779913097 -0.4939757659652138
Ni 5.169266028351615 5.187903375355162 11.557236127720795 1.0876972219621976 0.6710759228177475 -0.48367566959078645
Ni 0.2530066079310509 8.592408630445233 3.175518267687102 0.32966299068533544 0.5176391710204247 0.44055055626653805
Ni 3.7701614981611655 5.485342860718333 7.468823440042499 0.13363822901415695 -0.08688554623965036 0.19959499552094012
Ni 1.0363233937255552 4.072426725159183 11.334766664939606 1.5049142457091178 -1.1142775435538874 1.367014927425762
Ni 3.4561924609912773 7.131290546832262 5.668986366185287 0.6829472203340368 1.0335230499126393 -0.6476459739295815
Ni 4.146070131027368 5.980702466120668 3.542426245274211 -1.6471481868120856 -0.20223397580568395 -0.9348171139992931
Ni 3.3132506656694227 4.674997299410797 5.282715331406248 -0.19635129177266183 -1.0538571334843012 0.16858466318235482
Ni 1.0547203781189383 -0.050720208631084 9.673387699253096 1.5818015430854757 -0.5552544102700373 -0.1552090132063972
Ni 2.383537334267734 1.0434048460096412 13.236474959814128 0.03148804330595222 -0.3996890421654859 0.23631446242916077
Ni 5.4799162125580745 1.7072771305690562 7.575242136749811 0.5934692307768618 -0.14610550824323226 -0.3518909488456004
Ni 4.091138029888935 8.7936198693005 0.2457134516557042 -1.7523096485427887 -0.24276561737114322 -1.7068337755981764
Ni 6.994477998069611 6.522146979664218 10.064556584450033 1.1311624922346841 -2.0522468300289174 1.0949073665573916
Ni 5.8338131771626465 6.9985641624424115 13.154209932013647 -0.23236756196627076 -0.32280225900976023 0.29392234275061635
Ni 1.3278370162765853 2.425166289405123 8.421985068537342 0.8386617124219428 1.4409691103157247 0.5719298140431892
Ni 6.224799941458804 3.172241015944662 1.132572903079741 -0.06124599129467516 0.3152583852242312 1.0428345571215525
Ni 3.3843147958362247 6.662620435873995 1.2021782170971582 -1.6580136687716802 0.2158867907024282 0.20909727858442054
Ni 2.5699755173136425 8.943217859980765 2.6305875718245852 0.4968399748868863 -0.1814743746608294 -0.9230823420608684
Ni 6.0593565079392135 0.6829561513349228 0.4255083819452883 0.1930242842819579 -0.24853080198969452 0.2530741983860028
Ni 4.007556554562012 3.9956308712115276 2.202425956451709 0.5717184693633315 0.4651385300185474 0.2768417331192458
Ni 6.129394474654927 2.3651218604427995 11.377780478500176 -1.3006059038729085 0.7979932881683031 1.203268823282631
P 2.3382936952620974 2.7653440957987505 1.5491971131647069 -0.08854185089615073 -1.0910435127266114 0.875790241843124
P 4.726490366280719 2.2494612213746508 13.398639292648124 0.7762584675943728 -0.8062786681055468 -0.5905659410871378
P 1.7643355163358705 7.675129441761683 13.271573447727654 0.35303071887699844 0.7640770950368325 -0.3271322538436818
P 9.191974672069787 4.843408286694345 0.20672108945750756 -0.5177237603144309 -0.767273233376627 -1.2005827918100356
P 0.1362541679298073 6.860069075408607 9.283896729969427 -1.5932102991430495 -0.12585627107589292 -1.2049737217888796
P 5.492692409759911 3.5223753812285783 4.062650438226518 -1.087388175362211 -0.1978319900832464 -1.4571855721745872
P -0.019596024029474475 0.5029985140476887 5.333739691186349 -0.703920223041278 0.24349041135230964 -0.6355232225241184
P 4.375690381460962 9.693916515104325 4.234704767997218 -0.31560317015815964 -1.6267343990424243 -0.054516642990641594
