# total energy = -340866.6244585337 ev
CRYSTAL
PRIMVEC
9.31608016234084 0.00000000000000 0.00000000000000
0.00000000000000 9.31608016234084 0.00000000000000
0.00000000000000 0.00000000000000 13.63502500139923
PRIMCOORD
 96 1
Ni 2.630320683277405 9.010792140334788 12.979221465323562 -0.45037088479106957 2.032219479064397 -0.4523244089730145
Ni 4.328474393278651 4.44060273317823 7.369663088140063 0.035242368142061886 -0.017984866613194834 -1.0830993181788702
Ni 2.181686214637989 8.597819626259644 2.9711261829763362 0.987674624119957 -1.3457801864167016 -0.7904697260977483
Ni 8.582708944362242 4.916840747108645 8.373814480622773 1.35512254686355 -0.09085841484446933 1.4185346925716085
Ni 8.828588246038013 4.142050314703504 10.856492995109674 0.27702582410559384 -0.5975369730883322 -0.2689461324212529
Ni 8.591251789799923 2.775986911481943 12.815600355971762 -0.16671701384599677 0.7310422760690507 0.6888818406509167
Ni 4.157719961405988 6.795446928350738 8.916188278682558 -1.075834923306973 -1.8962243197822892 1.2546942289424583
Ni 5.958555506100917 5.649746083452924 5.953092556739243 0.5512542879717087 0.5522742445957908 -0.6857924030923157
Ni 5.302545094775839 2.472534234882659 3.4796034236479003 -0.7407209368093952 -0.5934790009688747 -0.4146428352618407
Ni 2.224707872469183 4.308798832139742 5.1223516105613465 3.160236997912196 -1.6988031919842164 5.381070805116313
Ni 0.3324135747586239 4.479096776088255 1.623754562836738 -0.6029483739118906 0.2573229463600278 0.013720692020202176
Ni 6.646035635952146 8.487675611418108 4.974466292080631 -1.5579270504607232 0.040951759822013344 0.21212115301240886
Ni 7.66212185863138 2.4852600002783736 8.82108414352978 -0.48207747186573097 0.02520041052502757 2.2465515236851954
Ni 1.7672417599094616 2.1639483981566996 13.555955761559787 0.4785545463141371 1.1323403145928692 1.8010413094205369
Ni 5.690345560462094 0.17396288985383787 10.731664043230609 -0.826211659584048 0.8111879324817061 -0.7011154066026313
Ni 3.5517275840557225 3.6567663870108364 12.318277257985622 0.005670825132532169 -1.5051209624032853 -0.6683441257088812
Ni 7.511704429583641 6.760027191868668 7.400750847382744 0.009099905418739167 1.37872424544289 -0.19858609464045154
Ni 0.6364140368668885 0.9842811252700305 3.550028331048271 -1.2493373355059192 -0.8657927643107798 0.4940487852949943
Ni 6.010269066651146 1.4226772218963493 1.2275295659298793 0.9400529084769359 0.6458168911406426 0.7608840420208315
Ni 7.424086696386936 0.6159577882168805 12.407490835700838 0.6031604899226968 -0.33664687820233635 0.20861211141788588
Ni 8.3966481929104 2.5934942187025434 6.791060917846856 1.7848778122867972 1.1075615649862924 1.1831147169322591
Ni 4.634284038139367 4.457222620049354 4.604016093944142 -1.5364169443030895 -0.44306046717258535 0.09434380228990848
Ni 5.303728236946597 8.666330079202607 0.44527043212082695 -0.3616107472365256 -1.8626495691506375 0.15468913614718519
Ni 2.454088396314932 2.6676409000967563 7.736553612076185 -0.6110961998300056 1.0329486654664082 -0.3795603897364108
P 4.098180893584602 2.4720311665580845 6.071648991897271 0.7696918701204487 0.5053775800442523 -0.3484832087156321
P 7.3235196118724835 1.9175380799161001 3.157080731115214 -0.114041537829152 -1.1116784153681434 0.14940809025390397
P 0.42150324860871285 8.769142339017474 12.01391626357808 0.4737604673596035 0.03579129866699642 -0.9679403789158234
P 6.8135014915549075 4.2853875228868645 7.392924408503578 -0.11033734950468738 -0.961563528855202 0.37458813333280006
P 7.436328025618245 8.138397136882134 0.197777585374384 -1.0379486897841608 -0.1968320880638223 0.6328729293854649
P 4.346528956482821 -0.30897338565748317 8.454574647269123 1.4477151707903069 1.4279148482349278 0.5672072117565393
P 7.666891691634752 4.026521605573007 0.9010242491609789 -1.1546189234854114 0.2819032068025532 0.13177649321506982
P 7.151004440863809 6.62838166419162 4.2505826476903845 0.6146574348187026 -1.121960514020442 -1.1764324198160772
Ni 2.7115662176961677 7.989079005284389 7.616156319493418 -0.8983580998413109 -1.458557255711133 -0.019522900524276056
Ni 4.849308482574576 6.662580994182593 3.262220147735243 -0.001680987246848718 0.3710582658026706 0.12666719701296247
Ni 0.9779834551327661 1.529718982069676 5.826245741913829 0.6750781019986051 0.5239558572670718 0.4000945051340207
Ni -0.11349873528003965 7.116805110872836 13.276015007878295 0.5988088978222202 -1.519056855758087 -0.43309281443691217
Ni 5.094563606884671 4.700726321303524 1.9039403294244563 0.3076281223724831 -0.6650410294775773 -0.7564393759859166
Ni 9.05980403766045 6.741795623142889 2.9001972756433827 0.26009331001631336 0.006433157219853438 1.6888267974977946
Ni 8.343117996743652 4.94712732346404 5.890440054953546 1.1311630064553162 0.573358833180232 -0.572887292860452
Ni 7.205578038000045 6.188727896753865 1.8397329738726214 -1.42826271849265 -0.6498581510895518 -1.0686060096587016
Ni 6.717918509885775 7.6262456342251586 11.651360511705374 -0.11485400642811833 -0.09452917882783719 0.7417308661311485
Ni 1.6816083517708003 6.2926301379386445 4.158710260718993 0.44452239643009245 3.0987344105220247 0.5969864999015009
Ni 2.624339759863021 2.6551759849434133 10.113424747000984 -0.251858837921663 3.5038191697817846 -0.8409744197155195
Ni 7.353638498786353 8.65637118959205 2.49099591078653 -0.8434622191343797 0.6167783378164475 0.49383795483576887
Ni 7.145554534014253 5.584598735420543 12.90915056896641 0.6125254760773644 -0.7207349806057716 0.30388382483870247
Ni 6.138877552220578 7.777650567761879 9.273153450896428 1.4781745157214283 0.9118517634523715 -0.6532967444574556
Ni 1.5113849364629652 6.48682382730444 1.4361091461624855 1.5304483854244804 0.9673104586413083 0.3456683649746563
Ni 0.5694109256816318 9.127094084112317 7.586214438101156 -1.3710695571111098 -0.1617000202473796 -0.04745536526848601
Ni 8.452768259340697 8.697510999246134 9.87014928970889 0.6020456595919631 0.32376925090871983 -0.06744800634032899
Ni 3.599668132171644 0.9563794654163218 1.4818138350580763 0.7476341189894609 0.47272534122686977 -0.03381926254229014
Ni 1.434257109441645 6.2334916615609 6.713177556730666 -0.9947199610025127 0.3168370425652608 -0.0014141067387072421
Ni 1.8097789815762508 2.738284735379118 2.5474317923316994 0.17467020725480242 -0.07985923552048828 -1.7009618901984318
Ni 2.7100290644821903 4.4787334489649515 0.6236472807188008 0.44433110635489276 1.28597709821614 0.6557493197630062
Ni 6.88203057665804 4.354196090392538 3.72358876624245 0.284386121125407 1.2512543500229742 -1.1850690124451526
Ni 2.338960278628076 5.2548747129823745 11.023821904335188 0.4695322882108688 -0.7634919119573238 1.29848191555137
Ni 2.458103626831442 6.789643010457964 12.808932837455135 -0.15579085385179622 -1.3677847157122507 0.8779525396017653
P 3.776533912579878 6.751465714270819 1.14006089001453 -0.48631413565489784 0.31689592082765417 1.551062719240722
P 1.5660051139996243 8.683900206242372 5.017962138388137 -0.48302646604256166 0.8744620099500036 1.007080796560711
P 4.15009009181661 2.9478592729647715 0.8530846326530659 -0.11417806340701626 -1.0193112771886315 -0.0009572217069467386
P 3.451896469867962 6.366115377646843 5.908287801179834 1.4702205509816744 0.24380074350387693 -0.49411486264623933
P 0.9798653033098775 7.159957193825216 8.763748328648427 -0.3371094196610517 0.2736985595045738 0.7238778971101276
P 0.9677823474400078 4.242626715298042 7.077069234487519 -0.8606202189709048 -2.3693445824547323 -0.18326386246108436
P 6.824010029890461 2.5785419101665825 11.406680189536505 -0.21008278242614142 -0.6270303545617588 -1.0044443873791282
P 7.405100525174295 8.97482275512772 7.3601457807255235 0.45957029190215043 -0.30211490586373774 -0.1435248920002496
Ni 8.856378112930706 2.0672661190375714 1.6320850016484862 -0.38092256019126014 -0.020111683148210525 -0.706307492326532
Ni 4.975019667237663 1.214462832003064 12.665370180133724 -1.5856535698417145 0.34556346396567583 -0.2635771547998558
Ni 3.841392462129634 8.568650979514414 4.68339934395397 -0.527951094469394 -1.046034809226405 1.9200867282221836
Ni 5.199145921915634 7.624177464446354 6.802432125198254 -0.7674449830678008 1.2940200231252748 0.2201509652954209
Ni 0.1722776109665137 6.459537028736322 10.909151206180494 0.32490002207905333 1.0691775658914553 -0.5830552345323895
Ni 2.212671496999737 0.5148960198499297 9.313730569313394 0.4589272590015129 -0.8969203389535199 -1.3728019664211841
Ni 5.0162433216125075 9.12579914898054 2.909509629296059 0.7537122068627407 0.26718364120419147 -0.2113459654092812
Ni 5.263268501138699 2.0255393963381523 9.345200287839548 -0.5250580891923151 0.515132345438171 0.16023089190102083
Ni 5.804365064618869 1.1227926039695102 6.82242070662801 -0.17294679680579247 -0.716574678580495 0.48925316367856386
Ni 4.807833294037443 5.858985242155528 13.196004785678765 -0.1412396955104987 0.545420197788435 0.8368693964082103
Ni 8.157047929211725 0.7973344146021312 5.46381389390625 -0.7752567658027358 -1.1919757668673148 -0.22354122192389245
Ni 2.925593841562313 0.6714518140654856 6.715767426994216 1.4834144239641291 0.2790572527133258 -1.2338706073288879
Ni 8.996231107162385 7.499509680752754 5.567494412385013 -0.030554732858405445 0.4279475227905469 -0.7463809633086501
Ni 8.66507240839117 2.9309505876110213 4.556729534650167 1.2454068901032616 0.3371546710766903 -1.81847904528101
Ni 9.368436454786833 8.55981933559411 1.4487352295012939 0.4189964842448462 0.2513142782721026 -0.2110603158480623
Ni 2.904828299053492 4.7332394407991645 2.9258714607488367 1.4427663114254636 0.8789125895221895 -0.5295618905999395
Ni 5.221560410599449 4.8997457401532 11.214249102522738 0.7140521692689573 -0.8140858228547916 -1.4232066441259812
Ni 2.866529893825246 1.9749903457985114 4.358653834713072 1.1137581807153076 -0.8056184088137286 0.6656529520299632
Ni 5.860382654168235 3.2946503541181293 13.27237428378119 1.9298013844067865 1.8344993319686667 -0.09649761540811769
Ni 1.997963799287408 4.905149066602332 8.897971615684915 -0.42258265893420766 0.5384447949118661 -1.4376379890599629
Ni 6.529761640414872 3.143981390908102 5.663907456789693 -1.9603504608382367 -0.7883120563247972 -0.5983160173462019
Ni 6.130371971103237 5.437004078638469 9.029086126797134 -0.23084726866700242 -0.9047395778876225 -0.47840079434509225
Ni 2.3567446755097885 7.741532125273455 10.545996430358342 -0.9235261144665062 0.32332162184833996 -0.10332158030848658
Ni 1.0731378971180017 1.6688639542149157 11.546098122828228 -1.2546430639895487 -1.6353360246685062 -1.1962062600088947
P 0.9209699766223447 4.362897309191657 3.759081168149181 -4.609474775994617 -0.5316647958755553 -2.943660637341911
P 4.048833617375889 4.179407795843194 9.43821855266136 0.2931191301230307 -0.034895012104972166 1.219550848272106
P 1.5467208282242733 0.697175374395389 1.5056201461065462 -1.2029518062628444 0.9387478165122671 -0.6205293202184474
P 4.16685903596909 6.851129139017054 11.290904604283762 0.6138837898774717 0.28098917962871606 -0.06935679332726764
P 3.3127608138028073 1.0749265844942661 11.069608574735526 2.1470079223619023 -2.2910313512651252 2.8276406356301496
P 9.748159879039644 1.691539293141102 9.390332969417937 -1.2048788480822281 0.28106528428229016 -0.5635647299079456
P 7.419959672909409 5.811985618128163 10.689968995203477 -0.11338924895713375 -0.1685754072109742 -0.12472138614050135
P 0.9641304440468011 4.580120348526859 13.127024802299532 -0.6650993935193383 -0.04898594298039951 -2.0210673191023196
