# total energy = -340863.18097994855 ev
CRYSTAL
PRIMVEC
9.26502257049390 0.00000000000000 0.00000000000000
0.00000000000000 9.26502257049390 0.00000000000000
0.00000000000000 0.00000000000000 13.56029705475013
PRIMCOORD
 96 1
Ni 4.801848025683942 7.615727985397512 13.313553710386989 1.732051926735017 0.5777415356289598 -0.2584087232250388
Ni 7.4544702701467305 2.082184078977277 11.723256157296793 -0.8548187817977794 0.29072543307987353 0.2309881651202409
Ni 8.94804747466942 4.024623824767107 13.348525464020176 -0.41461583867864726 -0.15911220491554534 -0.8367259288518106
Ni 5.676808948127952 6.368767147697304 11.020236447458098 -1.6642187691411274 1.0552493858461376 0.2963116689183994
Ni 7.070648186280365 4.727190475009377 11.908557532234292 -1.119495340309401 -0.7310510178197991 1.0205636615384939
Ni 1.2109106354571284 1.278637949360214 3.24808430900724 -0.5235038573313178 -0.11143598188550485 -0.25694499419531874
Ni 5.087257041386343 3.011410237745552 8.113491315006717 0.4937564508655561 -0.8207933167819541 0.607215890938993
Ni 8.375376438780263 8.221382501108144 1.874399274128888 0.051216632083131146 0.4095258257502496 0.6697422916079885
Ni 7.007006747265276 0.2161122070010696 6.710286065688144 0.47947885790061945 2.5630761772163595 -0.297208726811372
Ni 5.287390790718842 0.9440038695309865 0.1941198232785313 -0.34419692263545243 0.5725329948448269 -1.992620376615536
Ni 2.8728332973832464 4.166962364232647 9.003223462697743 1.3486631643914513 1.2184573580976112 -5.763936347966557
Ni 5.07551825797797 2.041983146689249 5.904898976115876 0.11182319002159452 -1.2589175229951868 0.29800088369536426
Ni 6.758444725734225 5.35549797054122 6.342029219490339 0.4845202769792688 2.0268625856278577 0.6014753889107899
Ni 2.7180240377380125 5.958845495668832 2.229637837321874 0.5663584906029987 1.0155839489357155 0.5705589018375916
Ni 0.7478059017232539 2.2946217780858755 10.080317526312866 -0.14166547019400763 -0.1285531011817657 0.4049916853253218
Ni 1.7697026677584844 5.830775090732805 5.297384043902954 1.5112900673284746 0.289432682410379 1.0199381121393531
Ni 2.350193382571609 5.245781575022705 10.797399687183313 -0.49835564020046424 3.449859170625562 1.1171453520199857
Ni 1.4378758897230508 3.4357760597295526 4.935093872144765 -2.0031405594205696 0.24779058138956037 0.20799633221075792
Ni 6.546803818553897 4.907978857525234 4.028981164812062 0.025138704049156704 1.1834613016384004 -0.2770726181831293
Ni 3.9040673530151295 9.014422095298928 10.937722157769878 0.653961631734964 -0.17027722039342932 0.6041254249391272
Ni 0.789313202172751 6.833231986722693 3.549557020584494 0.39955071681540866 0.31356042869651807 -1.3288867530954724
Ni 8.988127961665965 4.889421017614444 6.062157907689425 0.6766099652620993 -0.6935782176853217 -1.537228127350475
Ni 1.1399776237961126 2.8409986803420697 7.636061003604312 1.165122908340529 -0.7041192264259616 -0.6005608475163206
Ni 8.685949255380173 4.229492000557125 8.308827635729225 1.5590359672541858 2.804085216907713 -2.419921781181652
P 1.7611047269510884 0.06421216439626903 10.886301283329097 -0.9284436063727816 0.779409868739161 0.23517057863270469
P 4.551701685318768 5.224370108206011 12.83023733024004 1.2141350765731735 0.9247905830012266 -1.2819173263244696
P 3.4444110606266354 9.008149675119395 0.7315550523954819 -1.0315407293752878 -0.730448865459426 -0.08856807614839585
P 8.845048220406683 4.173660975443583 10.964001467366968 0.9150162772232822 -0.16470409718102605 0.15351259934058076
P 1.3997317924126536 5.694885006872811 13.533908371154984 -1.0333492433389366 -1.6417403855329533 -0.3274623834895909
P 4.825483097881858 0.875458454148059 8.104256867158945 0.08073598169848675 -0.8814556676590175 -0.9109163961222956
P 2.7939045713722495 3.0621732955943903 10.56263050453154 1.1578749685288638 -1.9683681889363907 2.77003301241901
P 1.2900617220062478 5.203579397891576 7.825430649887205 1.0561834676246324 -0.0874892412619203 -1.3455207621077279
Ni 5.251071902825531 8.109312789894501 9.06631919189219 -2.5079506969971255 0.54930564888577 0.27537774697920964
Ni 7.7323560876426605 2.9293962592681084 9.485075042799812 -3.3440418204784153 -2.918254795674297 2.737839201295285
Ni 2.332524984813307 8.412760804252075 9.008701870455733 1.5154863647980092 -0.6543596385043311 -0.6140771368352005
Ni 4.187929109973097 2.910069422496311 13.00187001759871 1.3100611357485372 -0.8170927280019153 -2.7573466752005933
Ni 6.216348263836885 8.096712359400904 4.484837871505391 0.642664718664906 0.015537690624282919 -0.6842373999003699
Ni 8.96671649484927 2.432939297820372 1.6230994384722055 1.2776459526426254 -2.531718745951001 -1.6271797141099589
Ni 7.214107793458939 3.9439254794735525 1.9264168160136328 0.5202701808853685 1.975226349508805 -0.4729785948882564
Ni 0.40504083821668724 8.654105373316574 12.498715371442282 0.3998494790027501 0.35529817475493647 0.8969511921914554
Ni 2.5692277776445023 8.452693050889874 2.911545340568098 0.3939575389983473 -0.42688437163335513 -0.027801595593300508
Ni 8.738908123542968 6.524947630660959 7.700037836431068 2.0752206652162712 0.5677373732283963 0.43659928492827393
Ni 6.631588038735448 8.915471655834502 11.737901378238874 -0.568508447066466 -1.0640392162236254 0.6428896901915186
Ni 5.308644752154365 5.240806257982218 8.375435734923762 -1.0225526669440648 1.7444595563707503 0.24263063445517571
Ni 2.758688221147129 7.204731590768115 12.696871964989977 -1.160464583632911 -0.27503836136191984 -1.8120620860110728
Ni 7.213051580902858 3.1162995565823284 6.201584450607806 -0.6868213585774623 -0.03660762392070469 -0.661925366666731
Ni 8.65114056614161 8.94821424507301 4.368490499439621 0.9112560388499017 0.7251811893025834 -0.41240726106310266
Ni 2.2432286987123575 1.8267196157420125 0.49311228835347976 -0.8286534362563213 -0.5439806371284308 -0.44147126830859457
Ni 7.597197940553986 0.3825398047631942 0.23791558426620393 1.2152187965556556 0.7180504917950731 -1.3141569030844658
Ni 3.1075070503040756 4.361768725672632 0.5732426877725794 -2.4677761816607693 1.476736240613005 1.2399463812093225
Ni 0.4910230257973723 0.29268391130797017 8.266722741333524 -0.8262450839251448 1.0301325361738518 -0.42124002886338424
Ni 3.2431099184689955 6.738265506899626 7.361668099561386 -0.16717646998091854 -1.5253403747739536 0.9701553842892712
Ni 3.0153849323644883 0.41810081382240405 6.596013132142606 -0.525495690950366 1.6322473584408532 0.672798561935809
Ni 0.8979057504715059 8.395342562099161 6.136549552220484 0.2046670107272088 -1.4424181840574255 0.41185550232469065
Ni 4.889291307300539 3.297226914434512 1.6459896028674126 0.5192857054849122 0.2398067918531354 1.142783107192748
Ni 0.12890610995846974 6.52642076922602 11.772778628643357 0.18703412813679401 -1.8424759224162397 -0.6271434831008553
P 6.9105671288771475 7.561119943243641 0.2308667552077268 0.5075519619877517 -0.1132774059696178 -0.08405347610749396
P 6.540624048598582 2.8791891027645757 0.02696677426078271 0.38979800830401906 0.8626673313079207 0.04394195279858884
P 7.884913946839408 7.593251041002315 5.8180588474589365 0.9617543047097695 -1.0754775399675542 0.34061280482861983
P 4.904096813130516 4.509888639129353 6.307585572135194 -1.3951453671133909 -1.6197106594264234 -0.02673304511947009
P 3.8133627835060717 6.540133002410229 9.712115343747351 -0.48487200389173274 -0.22974915050681724 -0.2528543690657129
P 9.11019463207269 4.736511087565671 3.787105709962796 -1.2454742530060874 1.6505338154548672 2.6301966250139412
P 8.430030806046242 2.203148211715812 7.556420723871324 -0.39426272894359193 -2.6947122881988235 0.776812797435946
P 2.5771864319047966 2.884998271823021 2.3375781280421366 -0.46011922242708503 2.30604093730008 0.8548059262819729
Ni 1.3682214511562385 7.5351408203730195 0.9342079613244567 -0.25516604791802505 1.3121576132662498 1.8725015222440526
Ni 6.102453343206156 2.80715355343537 4.0072574667397545 -2.313296333310913 -1.9645195046142616 -0.7556490188741374
Ni 4.963661642280028 8.246398061646904 6.453372552946115 -0.10109449075018073 0.5732711585624319 1.3811485386136666
Ni 6.5718657042047655 0.8703339702465821 9.728482005855396 -1.1584277557085405 0.29034439559137093 -1.230549770485771
Ni 4.980069996988971 3.806877267810838 10.471505303004534 0.19395553784697564 -0.3795971565116172 0.7329441210774538
Ni 8.356447997972602 2.725723271370497 3.904660314450122 1.001824433257778 -0.5733022689106837 0.9010603292638223
Ni 8.744040945964624 9.351835681854686 10.46114515493252 -0.08818189645357072 -0.3802579300240677 -0.11919428567468504
Ni 3.629887544487904 4.40816795796082 3.7900214125189247 0.4238851797957151 -0.07413570277314974 -0.049678855282366055
Ni 1.76526472201846 3.641885748524087 12.23363844744444 -1.2799036383285505 -0.5955523385581356 1.3499574577228428
Ni 7.7713618320382825 6.805205293896861 3.459652022510435 0.14215089447085838 -1.9292840784507352 0.4551515940091645
Ni 3.1800614408889 3.060079400527072 6.650905610484824 0.19569334647368877 1.1355547077651087 -0.32882069728969815
Ni 8.504688356720806 6.0668756571065865 0.9134895181849109 -0.8342630691336148 0.635436576347583 -0.4716187384262523
Ni 0.3311939770040271 1.7562683852469283 12.50952302009727 0.34362330952016945 -0.4456274565688132 0.7897073940104271
Ni 7.24149519973767 5.422113481753693 9.543601262935846 0.7565869573073744 0.849745223929614 0.6415920544260176
Ni 0.6437513614066784 4.375675524327698 2.006109906374425 2.640371251554098 0.6220390719947546 -1.578847088442842
Ni 6.823503713179843 1.7322163870400322 1.9359088314847288 -1.2093582240098204 -0.34346287268290526 -0.21017611347089607
Ni 4.693706683977126 6.263803708681153 4.939718044835466 -0.942056569170526 -0.1237461667114256 1.6816017405042651
Ni 5.5609313126989655 5.791926851718355 1.1528532254556363 0.5856870157282817 -0.27573795853210575 0.5636722020200873
Ni 4.370700207287211 0.11076056354544736 4.375080709888221 -0.911518805592985 0.6458976237799069 -0.2504215912545042
Ni 2.917601885725204 1.3973321516054171 9.196755883554735 0.3571822791515268 0.5449581705503517 -0.5649299856865884
Ni 6.786851284479349 7.454118199294704 7.643857519972226 -0.41799812488731886 -1.3140018655638404 0.6398604164468915
Ni 3.1314663982867543 2.2141365283080225 4.367812299798348 1.69457578416643 -1.9269826840110686 0.17571098981449096
Ni 5.51559755798928 8.882534501125136 1.9623512054764396 1.0730465619285583 -2.534755733005112 1.6393862834784798
Ni 3.8449194498745958 1.2332022794038895 2.1952090140026033 0.43196384303879154 -0.5075918140867517 1.116511832201045
P 7.006599086278718 0.7482070771941162 3.687099057942289 -1.4123254784371033 -0.17516771571651124 0.8955995632595674
P 7.137736213636348 7.681463319479918 9.871787813661768 1.3003220540839024 0.4674360678034724 0.7210250010423647
P 0.7516045609161766 1.158943124693461 5.535001294447178 1.0372436932973361 1.142234947998762 -0.5372204355864619
P 0.9286146672884386 6.961496957129577 9.445438350377268 -1.030331539558535 -0.7170331062741523 1.1072939131472028
P 0.5239268264260205 0.33672334238533513 1.0656137743323182 0.19650710062423576 1.273132381042988 -0.47564637152840666
P 5.115376384436393 1.6084727475749687 11.47194335060872 0.548257924347546 -0.7633075638606596 -0.717086842330223
P 3.0331737754142725 7.828906886299851 5.561362136241577 -0.7545388165290942 -0.35068792967643475 -1.92958926839598
P 4.793361265145607 6.7853874109367105 2.9436829238424664 -0.2857585759929014 0.3746184723501032 -0.8076940603958347
