# total energy = -340898.0835624143 ev
CRYSTAL
PRIMVEC
9.00707103856894 0.00000000000000 0.00000000000000
0.00000000000000 9.00707103856894 0.00000000000000
0.00000000000000 0.00000000000000 13.18275891364441
PRIMCOORD
 96 1
Ni 6.3508315491351475 2.0197455468037813 11.339597645498031 0.35794152591505457 -0.20933484851652334 0.12469104712319817
Ni 4.558406454125131 0.48695647205355996 5.976957049035798 0.6032386514587998 -1.2177775584217672 -0.008677216059023767
Ni 2.7216125285605504 1.477664000296295 4.8913573282349025 -0.06451540607456632 0.5238604693397881 -1.26119526328577
Ni 3.1797391685314778 4.15172820232466 4.611025761494145 0.45464534379670735 0.5095903325740192 -0.010918189574400551
Ni 4.9981946980325 4.5427341510059795 2.6005493912075583 -0.44570716076681305 -0.33741743781977374 -0.17148615309986595
Ni 7.110343783743969 6.044456037297247 2.5996666982732615 0.6096898064007823 0.2107921497883402 0.3412314122492252
Ni 4.997942500051272 4.453438051509847 11.27868012383955 0.4009385983018708 0.1263884894302791 0.9380788154697005
Ni 5.674418549340863 7.778641412785175 12.504703680588046 -0.7429801651572172 -0.05599219909490357 -1.2939930265420811
Ni 1.8149517789761076 6.470625590218319 0.4553470579349674 0.4704414302886995 -0.16822136630566514 -1.647104220948028
Ni 2.676063771736671 1.5502970188898808 0.44088260300448134 0.0521694829147037 -0.16922229676635372 -0.49677852552133145
Ni 0.4538455792395866 0.023197710737571972 4.733203974206994 0.20491409374100839 0.49187620312370767 -0.0867690752664441
Ni 8.601689524521868 2.3274721192554013 1.3837805996630457 0.27686564437864575 0.6394922344741953 0.19989144371543638
Ni 6.8966690441487755 0.5425120844897253 4.97083572060467 0.04212572552545649 0.7655431380593977 -0.9844013526853239
Ni 0.6120079403382533 7.253556208798286 2.2830951823371546 -0.07399917719528547 0.09965415875922837 1.044569280424472
Ni 7.632789915998725 3.908600341350372 3.8534518485124742 -0.1660770662691527 -0.5502605565998717 -0.8062257033804243
Ni 7.584304854107694 3.6969792138880333 12.5960470872675 0.5254710083600175 0.6547936407179562 0.05055971522542261
Ni 7.971942158325471 8.779786334622436 7.0681465579491904 -0.2637666451028425 -0.23265269730685736 -0.6370633133177286
Ni 6.842356407477233 0.6370394906821812 0.33826684727122175 0.07804635068146558 0.3051092126053713 0.005817378012725465
Ni 1.9193797573459037 6.534584799671823 9.13344986864761 1.2768023736954077 0.2877282981247626 -0.24748847676810928
Ni -0.025825073277719417 4.961752089745092 1.2911987207543463 0.04610373633659803 -0.829544580612023 -0.016491055676487728
Ni 6.468310773033479 2.003118494184268 6.9696056010269105 -0.027019723121953467 -0.4156278248829293 0.5235845899705821
Ni 3.4775669702199092 4.151557067980256 0.43406244902642294 -0.9169044953849306 0.8788141162711122 0.03661225190639501
Ni 5.689145110030411 5.39801856898603 4.769324129361259 0.673970470756723 0.8549715053255598 0.3869170872117981
Ni 5.296725051240065 2.845720956536867 9.294991682694729 0.25195474006957896 -0.5434072811234641 -0.6677581712984242
P 0.2503452267727807 5.558191308277912 12.224543248191692 0.09164902906656475 -0.351604270843117 1.0932646887476463
P 4.028394382433543 6.113549277082887 12.484784543606434 -0.08819140953526748 -0.1746977180586282 0.9747226919449795
P 2.2978208423196267 8.4727082712654 1.517902188201179 0.4844541996280238 0.17738169264869452 -0.7812307239979835
P 6.361883224955377 7.577900826798661 5.690061129126513 -0.453824904777941 -0.4128181233482761 1.658209843942886
P 4.79376121303515 1.0887927273846536 12.629979424934616 -0.4665665207143255 -0.49670396352965424 -0.47820281940167314
P 3.94851067187966 6.088626712295133 8.038951161937678 -0.3699868871153628 0.9767003844966407 0.3585092254930664
P 4.717975719676219 1.058249750443824 3.831357503942773 0.293951653326655 0.1197319033457099 -0.5556336479863271
P 0.21687134900725458 5.531359244489434 3.632706558372146 -0.42818149317822385 -0.2566796563490741 -0.14956261355389724
Ni 1.4734396841107305 1.1490140024735318 2.7009358969281796 -0.3939259144294635 -1.1310727607343554 -0.7912261446477986
Ni 1.8505927579660406 6.445486855732369 4.80255841904462 -0.09082961848906293 0.5187272618782808 -0.5335069912906167
Ni 5.914646133531033 5.532250944494489 9.176636971518706 0.43040626874368454 0.6398305916502207 -0.27054998657326307
Ni 8.651507632885103 2.368841595247507 10.241751010587304 -0.045248073204522066 0.47073813559351185 -0.14775512803151328
Ni 2.188997413419862 5.191387358723698 6.749124218059797 1.0212830562030217 -0.41554143581671016 1.3461738223106945
Ni 0.7351976470972408 9.066247213014103 8.951660159536209 0.19509787898153497 -0.36127264717081653 1.1192240889258853
Ni 1.4358441707662826 0.9752856216906594 11.349484707069236 0.13653483383566165 0.6617554167477699 0.04974416130266271
Ni 4.071376124091354 6.998196745734452 1.4863161924665578 -0.04397229181589201 -0.41087385513771174 0.5173049276094575
Ni 5.699665368675911 7.827018389827109 8.04303857064772 -1.094947475766708 -0.13024874371663375 -0.7410682928464849
Ni 5.155422125186472 2.9006010386661725 4.996871559338129 0.20755153136385546 -0.5117667714000477 -0.4098837233103006
Ni 0.9832929075946398 7.452630486694546 6.944821745128832 -0.8118463920013115 0.2149917896919846 -0.04970379498303053
Ni 5.115106476473068 4.559640422818996 7.067790778654245 0.3178809104487429 -0.4161741843047026 -0.3391647595281836
Ni 8.16344148971414 7.340546498180337 9.111263651956175 -0.377707138577756 -0.9228131475598816 0.5426858295764073
Ni 4.589255671471737 0.4249400877625856 10.397808419249795 -0.062106539522757555 -0.7328070812789573 -0.1595886303313316
Ni 8.339043341214705 7.05214909957567 4.995448442158344 -0.5361148612271089 -0.430882951269787 -0.5465903068371362
Ni 7.312048126301603 6.025054806884229 7.103173254713419 -0.7542979041628816 0.34500399191778 -0.5568371813761248
Ni 2.1797921871050496 5.360666246552052 2.5888564119493496 0.21752329786458668 -1.2238551320744149 -0.4909881440917995
Ni 2.4420690805111294 5.2114821335850925 11.364131104829037 -0.7612072296882052 0.04340664912040912 0.26988741328859966
Ni 1.0290127987629236 3.2022568454268105 3.7237076963627933 -0.4950977953847989 0.8753436412240085 0.4438467105193066
Ni 3.4815661096365202 2.597540128867266 2.657511908096144 1.061098388427747 0.15145545970123594 0.18796178215738596
Ni 1.0465135372459764 3.4139410223844564 8.222165789643018 0.6283935534578726 -0.0595043260132201 -0.431062928491077
Ni 3.608574814396956 2.7760872925057396 7.172593451167578 -0.3926555323574722 0.34260952354367447 -0.6730968099025182
Ni 4.027061335961339 6.926329328155308 5.967465397870877 0.6126113509229514 0.23688653288254688 -0.1800803225267802
Ni 0.8198190768699019 7.381861931747894 11.19255721537151 0.3327989652111559 -0.2262480793320942 0.3644181347783337
P 0.2911895905396871 5.682605976660007 7.934043106696475 -0.4262613933373755 -1.0194485740974444 0.04722010932922835
P 8.499810547176624 1.6305500193448472 8.078367904989422 -0.357638649962655 0.6593005274493743 -0.08843000790863481
P 1.7751945686497077 3.276484115544586 10.373433484364135 0.6138549935220654 -0.6185513705564701 -0.449312104509252
P 3.8827050129207388 6.099804487105977 3.7352160306704603 0.006796968317175391 0.6026328995540008 0.07673303118668076
P 6.963402431395784 4.014478458112228 10.289630797323388 0.16819514105342 -0.8676542429995509 0.5030260490929401
P 6.269993089080903 7.7633383995671075 10.28375098153248 0.5347565474270016 -0.7563234192333426 -0.07942651885844385
P 2.363491395217176 8.51541079372971 5.6999211694854415 0.3104882175290975 -0.09853444333248837 0.5266706850950735
P 6.895804365355995 3.9301452546038265 1.6575207920230013 0.7303257096180003 0.8096375572754507 -0.17615784754392244
Ni 5.417185615559338 2.9547155197810366 0.43135582426360386 -0.4423505855897543 -0.49308899248488636 -0.8151911401038283
Ni 1.3666338390607875 1.2347523090202015 6.9703964218394745 1.2715123289410617 -1.0213769014684086 0.3618855981644671
Ni 6.883978081450566 0.5784890272189366 9.20325286560899 -0.41826474828514415 1.2102869064716768 -0.08349863204528846
Ni 2.721720613409648 1.6805392620524864 9.13736524230617 0.10111094581041295 -0.4901273387534011 0.6257306619137288
Ni 6.257527303151646 1.9862842789373167 2.43432840390159 0.7324013612001063 -0.20394427362857134 1.7182556442818728
Ni 4.1988712106727295 6.770876293940688 10.324788997320685 -0.12094726381004978 1.154755963283908 0.06864948284759789
Ni 8.064471796223772 7.15641495067182 0.15562867209440392 -0.04352646252772504 -0.025105279708059987 0.3973002302183351
Ni 7.6901289284450005 3.799912018511979 8.197012643843854 -0.3755193868978178 0.20426566152373204 -0.025374731319362753
Ni 3.182405261475885 8.29033310255472 12.513482872455999 0.040343179703736964 0.2919677901274068 -0.3122921035070557
Ni 0.3549686585780281 4.962391591768919 10.038050701149668 -1.2950957726879566 -0.29557967584838124 0.5321787593974964
Ni 8.682437913868531 2.231060433860344 5.83221071983137 -1.0876383436998043 0.9122752241430353 -1.1728359607140704
Ni 3.601648376983951 2.5315543284931827 11.361705500673871 -0.10795470820512376 0.1196491138239165 0.4734907586379845
Ni 1.1608042580959281 3.3416322583381635 12.531767226095008 -0.5292261045270756 0.17358982970643008 0.15900807523751326
Ni 2.997733289721881 8.524787154388928 7.891014528270721 1.2988333853535179 -0.3351098727325197 0.31414715443792346
Ni 5.6126120297985524 7.895057802334047 3.6768430065011506 -0.6522623896556703 -0.2978797847364676 -0.8634684870529775
Ni 3.1026926852664065 8.316273466338144 3.610388838447644 0.34521816481111517 -0.18651913617358845 -0.23448820785369942
Ni 3.53714874328496 4.347911210507559 9.312498726127311 -1.0084182844252119 0.1810282882623463 -0.6259926573258638
Ni 7.2007567600141105 5.866052986790904 11.406579627897967 0.00535329389211336 0.8329253241587979 -0.6050160550741968
Ni 0.5064729929722829 9.098852809158544 0.32158305010593174 0.3247843224367955 -0.680694419744118 0.3525167553550574
Ni 4.558676666247875 0.47649115653968505 1.5880744750636429 -0.06316017759825251 -0.8850482701062822 0.29916327943458154
Ni 5.860135341302811 5.4979880473305505 0.4360169833809378 0.12155275860453259 0.2723962957533825 -0.5114330422097128
Ni 8.068218737659157 8.851518646140208 11.266670996397732 -0.8684397150153237 0.33343608457452256 0.2903076288161645
Ni -0.0525877826213605 4.7549947804921455 5.814083989930627 0.6809438167507628 -0.3900252938234767 -0.20289989152445703
Ni 7.933076648004127 8.751360019309766 2.4165709639019304 -0.8973450851957643 0.1088021438070836 0.2960018509874644
P 8.345906729132402 1.5479551804927663 3.461581221038374 0.12282005535273043 0.6854234497886711 1.4734277450650626
P 1.7447866977702502 3.2100299474910794 1.5912647795261736 -0.39134504107616475 0.7655793906139718 -0.6307224587013653
P 4.7368815611975394 1.1323779427832599 8.004241514064136 0.12424136118028925 -0.9242107992383566 1.7718217504337872
P 8.50585429165533 1.6901317924098982 12.4211243689021 -0.26754179587455856 -0.21255335545382104 -0.509688034494148
P 6.206979622057003 7.672222871777832 1.402131605625666 0.8218333280106944 0.07127355073400629 0.8071492436359584
P 1.806052793067072 3.105719061041139 5.93313764979748 -0.9648807661538932 1.247376869345439 0.3362028486863823
P 6.931031019091054 3.8747607765120655 5.930356266347368 -0.20067511595899634 0.4018258860028306 0.5485705704919585
P 2.524735975929276 8.458017738858887 10.253694386412587 0.17425086032919668 0.03519300296136519 -0.549053423665648
