# total energy = -340891.94813250896 ev
CRYSTAL
PRIMVEC
9.08675328265457 0.00000000000000 0.00000000000000

0.00000000000000 9.08675328265457 0.00000000000000

0.00000000000000 0.00000000000000 13.29938193226170

PRIMCOORD
 96 1
Ni 6.481780968850031 2.016196061121557 11.538024825683374 0.08920828083555604 -0.24135690994907463 -0.5239669130106653
Ni 4.658296769674932 0.49390320099067225 6.110653433772673 0.3336592563289221 -1.1357503687156827 -0.1405868924178482
Ni 2.9556845616169487 1.6522806820620652 4.981762466847652 -0.7505628626004816 -0.395474489863506 -0.07507441253733523
Ni 3.3725484515950566 4.436670859033942 4.8298165057994575 0.29582753019312924 0.6738678837405878 0.3704543136700846
Ni 5.368708221902207 4.512345339715293 2.9097582935742388 -0.9611930328896607 -0.2776202631564832 -0.9779401704410126
Ni 7.3563900514702 6.274412173985823 2.81430922057075 0.04164878588903795 -0.07003170790710521 -1.049747996411934
Ni 5.127963782520395 4.624203271654227 11.564530884778895 -0.746113054359244 -0.39594731573486647 0.5485086069057714
Ni 5.6131873168507855 7.870345899431046 12.626299823137993 -0.30509532864830036 0.3828709421668825 -0.3224729006947995
Ni 1.9233385301317958 6.342998987168201 0.44278203614134287 -0.8873404085745686 -0.09725043441374219 -0.2226487920166101
Ni 2.7248810302401076 1.4961157415013413 0.4682204017354163 0.12446376160374048 0.22588375401414001 0.36048563249314697
Ni 0.41651768468104283 9.080065353454621 4.979820627687998 0.15061496607781158 0.5924333333131797 -0.443755693467397
Ni 8.78719929769574 2.199212357399547 1.3960496891949956 1.001058758736347 2.8672356243139525 0.16960102026201113
Ni 6.7644698610206415 0.9953811194520428 4.684613824303813 -0.008053980652728065 -0.006621619081575693 0.6629409524154389
Ni 0.584533568770179 7.603958642508075 2.462247511065632 0.891578100805 -0.824104126322742 0.14415224117160333
Ni 7.694844348052609 3.8497211225868693 3.4762319403518402 1.0298101198374265 -0.16791334814694306 1.3776952899577433
Ni 7.792236168891073 3.985031964544843 12.594355342249989 0.039836929491279774 -0.3915484153362225 0.26172904584752343
Ni 7.597116317345604 9.079574668781616 6.739887467578367 0.979167100869578 -0.38059628720009286 0.5865326515580286
Ni 7.18760361070938 0.5721156118418488 0.12018321522426657 -1.6027547482983753 0.04342361840127361 0.8556145382261975
Ni 1.6537890830938982 6.554184218378009 9.15847312949968 1.183120116248898 -0.8248916552210439 0.7307062328858707
Ni 0.18635658675571162 4.824738828109168 1.583663882594115 -1.0798499580036371 0.0750957526935739 -0.9147663659960051
Ni 6.298746499065633 2.2661272079924233 7.120675129986698 -0.08907921145685949 -1.3007257172802245 -0.5225921441503258
Ni 3.4857057892421355 3.9107114100908595 0.3115048039305414 -0.18291599220336238 1.2742009315168186 -0.09925846598270648
Ni 6.07232278273303 5.583491807380726 4.897191146104447 -0.7919643083654039 0.9816153052997546 -0.4758381758242386
Ni 5.272942929887226 2.7356670062930335 9.32249447688042 -0.4097973342440814 0.45737277003019944 0.4856502768186539
P 0.20138880258077888 5.741283276764932 12.358304210897947 0.5283442161427546 -1.2309403210559704 0.9875080166351059
P 3.9378989756766667 6.125298553911257 12.71991428066963 0.1761123390179677 -0.17869089837842128 1.3605655722559922
P 2.2320427967249223 8.641747639162311 1.4194698869025022 0.775723163916193 -0.7412112461822525 1.0533539685956375
P 6.21274946674475 7.8826311897626 5.719478703777063 -0.5661381470620765 -1.4548911197134555 -0.5761096564524917
P 4.734461935029289 0.9199883281200094 12.691028400910032 0.3416191346059471 -0.05425361913724205 0.8102584786889013
P 4.03066563913439 6.180037155211025 8.244739213609854 0.318908837492625 -0.8680687048291501 0.0714455575354963
P 4.807673905592407 1.1919094177441023 3.7413952116182574 -0.31403094057503333 -0.49651241634413845 -0.7269051139722256
P 0.277453104974574 5.722264702309352 3.58762826522802 -1.028213464774268 -0.5234015274254985 -0.52009740275293
Ni 1.6491366654535462 1.0668211731404176 3.031434462349892 -0.7924713299088094 0.6906754422162299 -1.3197678215133402
Ni 1.8079821982093947 6.570613068170503 4.7231425665633 0.9015251847153829 -0.25451118794284555 0.18104834286700433
Ni 6.117047782002196 5.644100451250156 9.302119250171511 -0.5454412808343574 0.30003205519278003 -0.17833402925963482
Ni 8.49271579986658 2.4269899999595186 10.168547528882288 0.8740534616576754 0.22807381968692336 -0.23338109083244965
Ni 2.210661666436351 5.29824045080664 7.106804201221078 0.34642966862071306 -0.7337984986579491 -0.39782447815292127
Ni 0.8617813131223468 -0.35609895395357233 9.035121363433243 -1.1416207114535306 1.1691423139125672 0.45184515534375086
Ni 1.555870230569613 0.9761353761663677 11.65482049931326 -0.13762318180383395 -0.08566761467214924 -0.7088824521425598
Ni 4.003069169654411 7.217889759137688 1.4496061039029469 0.4573645425000833 -0.26279116856345064 0.32250838191842524
Ni 5.591506323706488 7.971654110900353 7.96061097973176 0.21721707947807753 -0.495743656498914 0.08289056614764434
Ni 5.140339940383988 2.932086263546647 4.915598182069411 0.8023050281697796 0.515470702614196 0.6009061466708813
Ni 0.5467899219875025 7.336926226107633 6.79380280903787 0.4921865352752749 0.16937604873539863 1.2756710883044418
Ni 5.09715968915947 4.462531758651993 7.28782141179423 0.11220011374503902 0.30540437524828695 -0.4399818282472616
Ni 7.925829614493526 7.354082016156432 8.8030738555428 0.7605796234065354 0.2859059002040431 0.5988870593583234
Ni 4.877014919290702 0.3838898799521128 10.57581489880185 -0.7930223173162729 -1.3719972111317016 -0.34157953961726334
Ni 8.22880922656825 7.1792710580214845 4.981403540096101 -1.2118601644960678 -0.3926233935679561 -1.0272153625270566
Ni 7.197626299493186 6.01335884119349 6.945801473254645 -0.28995281657990707 0.9334379742635794 0.08860664269581514
Ni 2.5125145211138027 5.0268100458555525 2.4719694283183906 0.7965431859853379 2.081758466334789 -0.10753124751445996
Ni 2.3363496367514873 5.272606720018684 11.480185824190466 -1.2195181952619578 -0.23669652835892788 0.19970066786086896
Ni 1.2854393684709458 3.692174995539166 3.842949674099388 -1.6071143108186516 -1.573527990222774 0.7094390959769782
Ni 3.4172734508642226 2.817893036034334 2.8194959392994865 1.2675273761513848 -0.6625329183437428 -0.34411876109934925
Ni 1.0110739422350272 3.3071692622936246 8.291792239049837 0.46568617499190124 -0.6554816679239164 -0.36830847097167535
Ni 3.553029543729183 2.580946859491716 7.385864752837406 -0.15875662134833948 0.4160083481507997 -0.2272857765679892
Ni 3.9892027842653928 6.582098724220121 6.018541925220944 0.5035772936107198 1.2645330694097512 -0.35118749502067254
Ni 0.7564340398539452 7.52195978159687 11.301575694541004 0.8933799299004291 -0.014245197065104501 -0.2512805968206898
P 0.19382953259052715 5.478258118527371 8.012265536994153 -0.6581640998520859 0.7395096901101135 -0.4645525756080902
P 8.522665738426348 1.3683650782089396 8.027560359986811 1.0372773747487491 1.306369031608931 0.8682895625907044
P 1.8470279767261775 3.3016808633585217 10.36662875329688 -0.37983292667150714 -0.23381432171512637 0.6813271682321105
P 4.064559228584611 6.270386742316533 3.5248415266156354 0.08539044975136262 -0.5376312978716353 0.6290067615618393
P 6.756164568592357 3.8883398237030726 10.447063783981706 1.7043099807350581 0.46545349015580484 -0.49603136294266187
P 6.36389851953697 7.667992992335343 10.30788561986019 -0.05932614856414299 0.681160046526627 0.2800116462067952
P 2.34069310478291 8.41549657114058 5.76408466657926 1.320725557440919 -0.4098937506126296 -0.4167236290502694
P 6.966368430456154 3.9273946889730595 1.443076363050687 0.509277943539923 0.6124773964482484 0.03485695977818513
Ni 5.5765313544266055 2.8347398764742024 0.26450084695785947 -0.5460732579914015 -0.16051654146223968 0.20073168022854462
Ni 1.600540709319556 0.7489583679931685 7.054789808531814 -0.5737884645184829 1.9574481995897772 0.5740869695955081
Ni 6.808658741850783 0.7018044795926237 9.26589218249855 0.2780750913057146 -0.09335315624186503 -0.8869298033997112
Ni 2.6252629548667095 1.4432853583743748 9.448625880751901 0.7001221894514266 -0.296446908944683 -0.6352681690905189
Ni 6.781661998082255 1.8408580713007885 2.303745457580887 -2.0676515946197616 0.6631319853803224 0.9425877590836476
Ni 4.037835087412198 6.871457293242332 10.668737854414678 1.0594102020920464 0.002113189688260877 -0.970285482109232
Ni 8.340794373052038 7.4787795303723525 -0.005199440183221585 -0.40485387419587693 -0.3541985139328545 0.9066612203903676
Ni 7.7437946875615475 3.9243778869093937 7.890403089777822 0.23089611962706685 -0.5192659079905702 1.6738267245445368
Ni 2.97182263530692 8.318786256792404 12.73054032986617 0.8756519164930469 -0.15024575566385093 -1.404725040382026
Ni -0.1048574972707162 5.089853939583604 10.174066822778284 -0.21991031003952452 -1.020745438531997 0.06979645196784753
Ni 8.877948701942216 2.376004227732926 5.899140170772205 -0.15867614581939124 0.005966244885763918 -0.003755353277374177
Ni 3.7335651563825323 2.395876956989664 11.541535947121327 -0.357674645406913 1.3261007057099035 -0.4618323484634497
Ni 1.1558077472653547 3.3211719489807 12.599035928825275 -0.2278100245025754 0.3121136689476625 -0.35790193092637074
Ni 3.1568380172897488 8.138423292449925 8.05942578612194 -0.15615877871417622 0.8159976951655238 -0.3656671766940864
Ni 5.578294184548145 7.99895980427781 3.414696447655621 -0.267206781132643 0.0578171681187843 1.3444244437197557
Ni 3.1076786824571223 8.335505882687418 3.550509787065766 0.4080759806776005 0.22905649531516678 0.4234519489130385
Ni 3.505796600575765 4.467811162263408 9.591195221169082 0.6794572049029073 -0.006550656634324203 -1.2574939031747827
Ni 7.241742486297696 6.109605731128273 11.59352307955098 -0.6776949707961618 0.457395909958651 -0.49024766638134926
Ni 0.39824331531285523 0.29700325449257686 0.673062170533644 1.2377084930177393 -1.5783534366358754 -0.7490711085463035
Ni 4.821522117475018 0.5511161251878378 1.618415261546776 -0.08926201689162692 -0.34745528167175005 -0.46121014149841866
Ni 5.860483305292546 5.724754472687197 0.575071532659049 0.38506177917061424 -0.3638141826457476 0.08004255517588794
Ni 8.2151064027369 9.14190979575977 11.13690191828023 -0.5812896579915344 -0.7349454677781987 -0.4431964785298173
Ni 0.014608773125769562 4.94307561508242 5.684035822905592 0.06881686166339761 -0.6969769589542255 0.2982302260973509
Ni 7.808964881539292 8.895486135625575 2.846758924936885 0.6420736220481265 -1.2800566189666471 -0.025771709647465293
P 8.70259253861504 1.5460111033434767 3.67473933349169 -0.35341304191708167 1.8756488096237827 0.041413529949780294
P 1.7112264500951977 3.2396274257296853 1.486950842219976 0.5608637860370148 -0.6787784336683278 0.21711012158656803
P 4.68639301058112 0.9319646688426345 8.28359962236128 0.006275548596066612 -0.3536439269809652 0.01877650927655476
P 8.714714267388928 1.7042569103878735 12.386884775749898 -0.4808777951306751 0.838034363250589 0.05577365532619427
P 6.5147204492138515 7.903848758493503 1.4424639158847503 -0.2703036748904119 -0.9304881476066361 -1.3126582070517523
P 1.9265279805063342 3.2395274714444438 6.078641710910961 -0.7932354617683436 0.38443005912388634 -0.03606486404335724
P 7.037962958948994 3.919598254724188 5.82519580790086 -0.4424948244771024 -0.24259721011407895 -0.1824079422186923
P 2.670396858030047 8.439512859858258 10.294598969325575 -1.5945652705090474 1.1231488779015883 0.6211229879383884
