# total energy = -340859.2491208337 ev
CRYSTAL
PRIMVEC
9.34373134602163 0.00000000000000 0.00000000000000
0.00000000000000 9.34373134602163 0.00000000000000
0.00000000000000 0.00000000000000 13.67549530374174
PRIMCOORD
 96 1
Ni 0.12583015907339276 6.557318418317504 8.961086702039028 0.583880301536846 0.9715661485938686 1.2245999806602392
Ni -0.03911379309837002 8.448583046740398 6.670741971128262 1.1021853882760437 0.47224557337697376 0.10896797996098653
Ni 3.8980271179788124 2.545325811119414 10.881344928317741 0.5352016053842201 0.2898484297915589 -0.6683053020511458
Ni 9.157622743708151 4.991159572619505 10.84833259168081 -0.47948734254105163 -1.1994425075580053 0.3710893761509222
Ni 7.131182356284249 3.3158659467230027 12.662360069412193 -0.7974965510375427 -1.6436247470398597 -0.9661814872431876
Ni 4.909037519266367 8.084597998569784 7.1176161929820045 -1.1665120753785716 -0.4085562627481287 0.5239900529391169
Ni 3.2248299738228288 4.631351172286969 12.072029673984503 -1.059647514913833 -0.5578311698582781 0.4196343749391612
Ni 8.64002675491567 4.282353468931287 5.20426391841945 -1.3898625214478966 0.979050887006688 1.0885546848664867
Ni 3.753834658387774 6.700875504188208 10.795790922501682 0.005113152856849258 1.6050561427380423 2.5682258397380995
Ni 0.451493762549817 7.558452495746342 3.115524203343704 -0.9176002359003745 1.2744225606093211 1.7790061839973683
Ni 8.249533541383483 2.9559267341539264 3.379433218696159 1.7131687166772689 -1.3121591559281467 0.11762257031219096
Ni 5.114636980181427 5.847260254650981 12.879595278767422 -0.4073439876075823 -0.6103909462328649 1.3001220222579546
Ni 3.946997613100419 9.295293278934587 5.515627875695891 -0.6147443381055542 0.5298094878343714 -0.7497046283652443
Ni 4.158109875412492 8.860473404677942 9.69391553859457 0.35954692272896144 0.008104631385005397 -0.6078141866446242
Ni 6.762432005211133 -0.0021649425147254805 6.073068337365127 0.4224592459824659 0.9718080894013458 -2.3106447546206783
Ni 5.635680805779837 0.4483888406782448 3.731208813332065 0.32136835477671105 0.288530996531716 -0.2849949583539995
Ni 6.009046960056555 6.654586659915658 5.374510438036645 -2.0370801495908077 -0.6769652917189889 0.3365347781045043
Ni 0.7833634722769129 2.5049141737599507 5.373799380093742 -0.6524763054386893 0.0042178947360895095 -0.37595878842808156
Ni 7.302546386150738 1.5146748868886006 10.101158324642498 -0.9738253769416905 0.5067608335450241 0.14877637020717602
Ni 7.643545855615159 5.201010431222094 13.668479961799411 0.8777463371282302 1.1717918357202723 -0.01458432557207811
Ni 1.1152116914222918 4.071278581543939 8.256689905095302 0.8290578707835915 1.0356598937499841 -0.6500833797264803
Ni 2.9929092221698235 2.319123422949413 13.337819330887186 0.9928199157663223 0.06557418635638385 -1.397257271250071
Ni 2.70393564792332 2.0707203294924565 4.089889425311009 3.452139482019306 0.4333733217918085 -0.07554903818090859
Ni 2.914767598299952 2.0657494645039627 6.447462302071797 -0.13689375983697713 -0.48309485738665187 1.2613464441516535
P 2.075747256868038 8.320060024340531 4.941763003356028 -0.6657737938785437 -0.12096346175996588 -1.2975324071539074
P 1.063718388881713 4.974966886482176 13.28261189520201 0.39520863779662907 -0.8670436059987455 -1.0237178908967595
P 1.157118325770776 8.247842326039654 10.054141603710917 -0.5217984446044369 1.2243063606792204 0.5020091777926515
P 8.72398952331154 0.9213694474527605 5.283882786189096 -0.45407944399090827 -1.2513808482985094 -0.2987318483241178
P 5.349622475661924 3.648820463640257 0.3201760301536004 -0.777306449242913 -0.19255711483755225 -0.2704088330097085
P 2.0725797319975507 4.0092922688866715 6.169931995403127 1.1972958935286477 2.06143415295514 1.15314465293273
P 5.962851553095819 3.303074378735695 10.761342454382174 0.2971174526491464 -0.5873320075308723 -0.2673656753080105
P 6.700539129865679 6.388094102891551 11.74294252740322 2.025493216084157 0.6714333061571662 -0.128431745112553
Ni 4.409017088826059 4.657681806756094 5.892675460058073 0.28217034442101085 0.050567428534906464 -0.3822762460056771
Ni 2.848716762578785 6.547021626555625 13.525747927392024 -0.5787530076126097 1.1563027389457377 -0.3478270631888719
Ni 4.058860762803886 4.593247436529306 3.5586646702173685 -0.7418115987704128 0.17659442086070876 -0.2671962396096818
Ni 8.948098915696912 0.736280410853945 1.4731924579357512 -0.6562342298192247 0.9679038692509332 2.1540979964394644
Ni 4.610084840118151 4.893461519387008 10.004362875842121 0.5808947365459608 -2.0112541896666394 1.6083057600235913
Ni 6.3962231490193515 2.601761947454942 2.046100532202641 -0.5761214835270336 -0.6005641899504303 -0.46401135839263963
Ni 2.6540120922212127 7.231160279925002 6.664903073513019 0.534519491715531 -1.42560754025799 -1.318314376896265
Ni 8.02263037337488 7.183535282093516 5.303138347407683 2.0751175639795036 -0.4596541098652084 -0.7837951422910502
Ni 6.449856166000465 4.421509657415562 3.815777989881606 -0.552058529040559 0.22520986787556696 2.6534401689229137
Ni 5.16012226357238 1.1693866448119266 0.1316587785843369 0.25601065530650746 -0.14753195627711366 -0.3207415198259896
Ni 2.6337361955576206 0.6231502512022823 10.91281274619039 -1.8172433731016961 -0.43969977823046863 0.46351976346820173
Ni 8.630533524035389 2.960776130637062 1.0000885139096412 -0.3294624446387552 0.273856939459309 -1.4718861116095554
Ni 3.9786728618052933 7.1834511885128824 4.2668914625723415 -0.062344880785808764 -1.54741483807549 1.3504020014594291
Ni 5.865985091938464 5.158823484938169 8.216237155318641 1.4031983193248545 1.2836021702260603 -2.2823255959610114
Ni 1.0038437594714373 5.8696758657551085 5.151230768980179 0.3632307993384518 0.1911908306176449 0.7402807639481831
Ni 8.797216344580006 0.23156101800252146 8.757089691021575 -0.7024950605589773 -1.2083326109587835 1.0509646424278545
Ni 6.350177241757516 8.130896186573517 10.15803455071667 0.44332760479104294 3.094575908268961 1.0330283696644078
Ni 2.5703296357607837 6.345841750489356 8.91583501192761 -0.46329299216937636 -0.483722977888954 -0.4264195161817946
Ni 5.961309837450892 5.471464730267105 1.7161930060236348 -3.3947336904063277 0.3310449586345266 -2.000739920398877
Ni 7.631399005079366 0.8571369018194896 13.260936307607448 -1.6048792508405458 -0.05881527036599549 -0.4174605072162939
Ni 0.5056107848061271 6.62735902725312 0.731489879877252 -0.7087790937954761 0.08056757444142253 0.7256000220075568
Ni 3.9076605048268136 2.7413199163800166 1.8899667841618006 1.8162707247757814 -1.3267290833225216 0.8477382208019142
Ni 1.8666719279535051 6.099811964752469 2.9630830978657445 4.351439891169228 -0.9736834520471878 -0.579833385160982
Ni 8.120440551381554 8.94056786836472 3.5406948064093404 -1.1000230905174022 3.03357468599524 0.8722385199361237
P 5.189470923213091 2.5848778252101905 4.090353808750724 -0.7511020229334032 -0.22029648973434962 -0.6381061527599462
P 4.987151111942694 6.998697591863478 8.975569485370166 -0.5266334040992349 -0.8804573083014902 -0.9138232853564456
P 4.284044684275117 6.696792293661946 2.2563335494105474 -1.8715214177189703 -1.4958513641759013 1.3184295623178905
P 5.637605614403202 0.12223095382232564 11.581722052107239 -0.015973749720437004 1.918522469058857 1.0172407678128481
P 9.121854940745832 6.046477947169159 7.061259478361518 0.646881327849415 2.0217399196893115 -3.620841644616132
P 6.55966369484403 0.7998280609916206 8.04183360969885 0.35134433231351103 -0.5071961213102297 0.645273874152979
P 3.1671511212401766 0.1704193786440508 0.499525212687695 0.16895490203758 0.7928094299745184 0.04613921756022376
P 3.148510377533326 1.1421776996117512 8.651760612533245 0.24491763071713948 1.3926367417589243 0.04826834808808461
Ni 3.7817537271577337 4.226767612133265 8.044390988923194 -2.835553976939955 -1.2273834569426476 -0.5377462261829448
Ni 1.3276787947556656 6.613390149136959 11.347433598972872 0.9667790116178704 -0.40219689618900406 0.6334218599103993
Ni 7.987012070111463 2.315890491960656 6.955822012591485 -0.18994256003284063 -2.1504205475878773 -0.5913778954654718
Ni 3.92444184602857 8.426821496818967 12.394155740835656 0.30160479899653864 0.7058632057002617 -1.2641602594513646
Ni 1.0669886947951956 1.4348327039437183 7.827210907581931 0.6085405232876874 1.577341450431593 -1.0715486372267933
Ni 3.3759928568751754 9.036602737446932 3.0993455328031465 -0.7782171339826404 0.8042948049062987 -1.3251134020959696
Ni 9.138795125377673 0.9732897585083283 11.492571644159465 1.202827364869838 0.33671886909085236 0.039504485852525514
Ni 8.520987619664902 8.04648491908094 11.543348282518433 0.010447420585569103 -0.8902526971253572 -0.2124587388574857
Ni 1.102167842693087 0.8598989087567054 3.3924667893210647 -2.9658099197454404 -2.6371028652154713 2.0373711984686653
Ni 4.836427384255871 7.904488236317526 0.7364654167313363 -0.246718174260988 0.8512032965323791 0.3145585309437292
Ni 5.760120617653442 2.8179198246049606 8.429780656484109 0.45708274959360634 0.14957392640780692 1.8761098084206014
Ni 1.5693450580308483 8.584665147666 12.796980810781026 -0.4830323795798326 0.23040606736452576 -1.399526784010538
Ni 7.04431368749097 7.603769591976029 0.028724498397794878 0.4810971102303328 -0.13348010616973785 -0.20970663003364529
Ni 7.58832440433321 6.950605407472921 2.7359603521743776 -0.7748975826911042 -0.7252848047599831 -0.4278930154035276
Ni 8.124990948466886 4.434983317779111 7.680239622337551 -0.21420631767621173 -0.14600497810962595 2.4949892517404515
Ni 3.3640982870812803 4.817637140850119 1.2004227823039944 0.17097887444614426 0.2074710558349072 -0.3937418234431154
Ni 5.111460111579758 1.870082389834708 6.491935659375805 1.5366604277724631 0.23698397769235963 -1.7625907187538226
Ni 1.4655081734121853 8.71755169252757 1.4614726159149476 0.8007433401096145 -0.20646395472663154 0.44126635138664
Ni 7.268236205252714 6.344561659317508 9.687023602475186 1.54775550924436 -3.3704053980736086 -0.5556285057800043
Ni 7.024906757827246 7.8914724187818654 7.728405622204441 1.849144849795983 -1.3971181745690455 1.4990174206087088
Ni 1.3976539975730118 2.6750167999169525 11.080364533734874 -0.44858319676302744 0.6802524471106929 -0.2906626981627381
Ni 0.6352886923800116 4.447214261895536 2.1254727254691 -0.9799044932562351 0.11950204672309098 -1.6630651151526583
Ni 1.8673820515232897 1.8957215881964118 1.6578666328701135 -1.194069673281866 0.49113855362673486 -1.227772207740634
Ni 2.0586856037308405 8.72263468229024 8.129028374710359 -0.4601346490460527 -0.2972614344261784 0.9907666327817197
P 9.201874654583161 2.631848761858982 9.145829086211014 -1.6538597945043065 -1.1455897234036077 1.3096852404663575
P 6.481587477092429 3.917751734502703 6.421697897712263 -0.6745733944480446 0.08602911177662603 -0.8744584104055779
P 2.3047994830483596 4.355066384984777 10.090683067615053 0.9153482066414043 1.1516863232196488 -0.2549745007325092
P 8.994714790560812 8.52930354041633 0.13702208028244836 0.07640315865108778 -0.5180006681249014 -1.7037073141540529
P 6.383627799386852 9.18065504107025 1.6390492926439346 0.9781643706366766 0.8704577738866169 0.9170315078810981
P 7.772003471896755 4.883360945979938 2.2330031870237623 3.5170742350194786 -1.7436997953865905 0.2375676181099715
P 1.866008523039627 3.9220311633837746 3.653175576743897 0.4589010337492677 0.5300030919024163 0.5837334915463367
P 0.8793918007472978 2.5135290939091814 13.195881513630214 -1.1027389467866686 0.10419781226585278 0.5353813254951941
