# total energy = -340863.6659854503 ev
CRYSTAL
PRIMVEC
9.33790643855700 0.00000000000000 0.00000000000000
0.00000000000000 9.33790643855700 0.00000000000000
0.00000000000000 0.00000000000000 13.66696996287875
PRIMCOORD
 96 1
Ni 1.1694980893605522 8.398737240901818 7.345189804478841 0.3788795616193023 -2.0863404292785166 0.5530854276431764
Ni 8.989845399927557 3.4035268608021347 6.456030609734685 -0.011657895953902502 -1.5009537183994732 0.16931331381826323
Ni 1.7936157479622294 5.182528785048285 3.7145043605270485 1.0511939848298413 0.13245629289091382 0.40866142086742524
Ni 1.423395767852699 6.300444278749013 8.76842776171122 -0.20586103103531 -0.7365521501436864 -0.008577457256365873
Ni 7.36719738258367 4.458756987981429 11.643520624521216 -0.5451970260340353 -1.4842672588827277 2.568648786208131
Ni 7.002766904521404 9.15200748469014 7.445847767895763 0.08629393540223848 0.07238272463778501 -0.6487698031213794
Ni 6.7531740009385945 6.182207706293419 3.1407376277141723 1.8445487457848684 2.825923910049359 0.9657850231357175
Ni 1.6231429263898636 1.3337985547180116 7.255370349168791 -0.22723692560792477 1.6820128598997548 -0.5062489269056121
Ni 3.514153039437532 8.650225739509779 6.198845988144737 -0.24382851141801878 0.7934429497934593 0.29379198782033916
Ni 4.403065713449353 6.67622965114914 -0.05436062285185845 -0.9656793507957886 2.5467008211821303 0.9341321721171267
Ni 7.194259353687952 2.6325145946109036 10.200343435479924 0.6598193760673218 -0.5564142349060933 -1.0361160074507962
Ni 6.64236106417264 7.604604318147639 11.961454864609374 -0.1715432315900465 2.2012677121467314 -1.8853503531822626
Ni 6.204329206857889 8.964558349050149 3.604608406182128 0.9849551683062651 0.6716343664243788 -0.8797517975940333
Ni 2.13035933316943 0.9409528270915091 11.607071040180418 0.4599850108420659 0.22944756010599843 -0.9343640856222748
Ni 3.046744128186175 4.152548357120287 9.87167994079127 1.0431582590095583 1.0070676839345882 -0.1062984035486234
Ni 3.6386553471733096 6.630100392901578 7.492205804853257 0.40215524431779126 -0.4172468485435911 0.23054053605986102
Ni 2.1593068434057545 7.024907080898927 5.119797662784864 -0.3999039863897693 1.9536995311806222 -0.21268525304599503
Ni 8.9403638332365 3.8613270662363375 8.788312833662268 0.8073194506652355 0.6379945668827464 0.5755188169460282
Ni 2.6743951053882955 1.7045041059669903 9.397394595172806 0.142803954673825 -0.023635122920436714 -0.3394216127339961
Ni 9.272952050038809 7.099741063813091 3.085099579249305 0.04182079269052797 -0.9994078533964852 -2.15159322773974
Ni 5.638946980316366 1.9006188188648225 0.8034979092109557 -1.0464171322664884 1.1203116655631091 0.775363209473613
Ni 4.459205207494766 7.537987692977983 4.315386506315485 -0.2368299686129986 -0.9731774589450465 -0.5249570448380766
Ni 8.382395904478086 6.075895640473887 7.724270524092645 0.45068995869338513 1.8450102588023194 -0.8577228428184518
Ni 1.0661741536299307 5.212083259208918 6.457342585601848 0.9937385709258498 0.28226676078955903 0.10580320907975972
P 7.102393029266998 4.520303129906465 7.907216921204908 -0.9640518424946944 -1.597693531725384 -1.6166075950210674
P 9.164959161044262 0.7937724795622035 10.008636214463236 -0.10882888327996097 0.29200147157881967 0.44367830326224234
P 7.689812715214239 2.3508553200114695 2.7541819139248274 0.615653994404017 -1.9582015328160338 0.8023142841411601
P -0.13334904038025927 8.615283293282578 1.3894253976950461 0.49615091923966165 -0.2194950768789768 -0.19564835216836626
P 8.149275068010398 5.410177608290653 1.3754577571106932 -0.21952413034469936 0.8058222972944187 0.0700839013012793
P 5.975186318571063 7.306594369217946 7.513143258869994 0.04273764807784253 0.6603253691694627 0.5612340248922398
P 5.850898782685426 7.637483087032186 1.9391656970117728 -1.2491175061856292 0.8453090425351313 -0.8846726319344184
P 4.001302285088757 2.7289564932305024 1.9119681104587671 0.07992222754793978 0.5607205755909311 0.47434565043911214
Ni 0.24893177980063777 1.3658182362019975 2.0870828053661254 1.792989385650338 0.22914339860201827 -2.829115420403463
Ni 8.643642515407649 -0.03426264663197441 3.7561476884786327 -0.021357382629853542 -0.2120126524590026 0.9487892599086691
Ni -0.07829554486403462 4.544432280374421 13.44358326315027 1.1825570446565763 -0.28545210049607617 -0.6037392452443022
Ni 0.1439690414743791 5.181445587891054 10.756056259811864 0.5356512913271292 -0.08204441609726515 0.04382342494285356
Ni 5.912416910890879 8.098738317881693 9.585479642247345 -0.9027464587169937 -1.9884991553583107 -1.3467479496466097
Ni 3.6349668740948102 1.8980508945696648 5.851458123286443 -0.40359917585316946 0.10754975945722123 0.6825450997996115
Ni 7.265516918401949 6.087007749242025 10.23768105473152 0.17464706732635082 1.020663677451468 -2.629153528461407
Ni 1.888236754808898 8.777380012699465 2.6713322720471617 -1.0209668105141836 0.27379266188027684 0.2869358841304542
Ni 6.711788399207179 0.45824282220362283 10.745026324621172 1.3599497930488642 0.6019947517493697 1.413652938999275
Ni 2.0864431587689682 3.0078797612172776 2.850082213965811 -0.29524260422393667 -1.01003088032797 -0.5996064540228513
Ni 2.818114824758381 1.131623540483607 1.0481501264498814 -0.38217057366574825 -0.1601748418521048 -0.6148844632278443
Ni 6.726971835221457 4.116737485585995 2.406302875183169 -0.3796051269314172 -0.7801619164138371 -2.4581543423002894
Ni 8.92392911774749 2.0462247953535333 11.851135903098742 -0.17989725998169664 -0.23287535484062474 0.9389982419601764
Ni 6.0397952938372335 3.3383295974247105 6.190099171100103 0.7937725652187361 -0.4659106322978815 -0.6431923090336019
Ni 0.018501194203622288 4.354200448589132 2.708574644652172 -0.985823172733515 -0.5781487983697075 -0.7732183952164684
Ni 3.8691428940001447 3.7266277645721515 4.254103693354534 -0.23008673635189408 0.1803996535394119 0.4201915329942118
Ni 4.559905191491063 5.574851589909228 2.607138833621481 -1.0205130108062166 0.3844562843761314 -0.7343818819652449
Ni 3.2468834787975096 7.009434169782286 10.379421137917701 0.35130422310419496 -0.42973006861226637 0.8786030287015708
Ni 4.338129911454708 9.61757682835551 10.52323890530633 -0.8446503259052098 -0.8821529508363581 0.008038811144076476
Ni 7.717789083171668 2.793985674290426 0.6245453347206524 1.7496925226349158 0.9440705142767613 -1.8499709452417044
Ni 4.298425132898305 4.110574467277616 7.33651115415186 -1.8325802605690829 0.582810208401119 0.6727671944772413
Ni 1.82058362201465 7.661210707519444 0.46889643976124296 0.9013791460558218 0.34559534564487576 1.5394791281681808
Ni 4.4485133045203815 0.41835221930731536 8.007299669579714 0.6130008730518862 -0.2715141502587453 -0.9957080359473948
Ni 3.5192328605886805 0.8756351047198755 3.4717654803356783 0.24745608086827706 0.4130227831599145 0.1445800727376413
P 1.1938980391178153 2.441629109368666 0.08458275732923368 -1.515124096362584 -0.642298850685055 0.4763395409406893
P 3.0501151124427275 8.394983402477623 8.84581005931683 -0.28885778374351545 0.1553887333173711 -1.3000191781315031
P 6.2098105579897345 5.890650250774468 13.012677162306916 1.9732507138396724 -1.2752584262470552 -0.1284911375955787
P 3.4954398747557276 8.663037347265986 12.416004544781233 -0.3651650402466873 -0.6483509704164061 0.7981280139739544
P 1.6154578293174457 2.8280130056778985 5.34945693730268 1.0482189613619173 0.310619086680007 0.1247635522323464
P 2.718059156312506 6.865658422973033 2.624605387781818 0.16074279854043286 -0.5532072979330214 -0.3414604975408958
P 5.017359894383735 0.4698106208103191 5.107756432317206 0.33958179246094417 -0.10040646354422063 0.21684555507127173
P 3.333959457169678 5.138696651806573 12.665440571534374 -0.390407873973876 -0.6654755459118346 -2.041196742862343
Ni 7.382801024391701 7.51267262838099 5.226126536836147 0.45235551932126616 0.5183907044744684 0.5081934522264926
Ni 5.022122226712937 4.370093565499526 0.2382716257084482 -0.08396811548253925 -1.4678055137822785 0.9626991851215418
Ni 8.08032396620878 7.062800305588929 -0.09821049811597286 1.7478161315478091 -0.8680170256556082 1.3578083212258292
Ni 7.454852311160565 1.6030664273549935 5.710100894267904 0.32181572672677483 -1.249414725711074 -0.8923059801099601
Ni 4.846410839578449 3.245893660705558 11.46647858570651 0.3716622179352567 0.5083849994120083 -0.46968681151086206
Ni 8.108617822988155 4.759474929804198 4.81484591414237 0.034190786949095955 0.8163926166110973 -0.1169196307078954
Ni 0.8369089387675904 0.09604036863890135 13.121630921883177 0.05991853073250325 0.7393471963903202 1.1605337463079497
Ni 5.663421633325851 9.099052216770723 13.586307561684485 -0.17755652766366195 -2.824743773698329 1.3383412136401531
Ni 5.112223686800128 5.946602986689324 11.126102554859976 -0.9746666418960632 -1.2427776800105308 0.1830286065218267
Ni 8.296496502328427 8.095031168990138 9.246744281577755 0.7732921858771973 0.7830958022311804 0.3120349931909271
Ni 0.08048621773546741 2.3033160378782034 4.057874124206409 -0.838706192506633 0.36635006169372386 1.991852130990944
Ni 7.985170698690023 0.09655021833532175 13.167920792123018 -0.7802318504198239 -0.04691003428797728 -3.164894551288865
Ni 2.569306305323911 3.148088427732893 12.30349864556178 0.46559310105746265 0.6987685036370095 0.13039529659682705
Ni 1.5932522875942268 0.1723189256929211 5.038834278025823 -0.6163911296803578 0.7318881690091137 -0.29401233136126137
Ni 5.583741276923737 2.1745556447657277 3.4051255103997016 0.5781853080345978 -0.2959203470172517 0.9305544820681974
Ni 1.0919374377402593 3.124977109076473 10.486652053739574 -0.28887655279659286 -0.9864818893634366 -0.6470705610420856
Ni 5.877969373709653 4.293644124756047 9.536306226471705 -2.318550125510684 0.1395286263566629 -0.4714387612049623
Ni 6.015992970097752 5.726219054725619 6.126643427290122 -0.4505554899980498 0.005765955949499747 0.24000425257592214
Ni 4.446991225756342 1.3043094459030724 12.670825742228985 -1.4437772691884814 0.7873311804687666 -0.9613156745104542
Ni 1.3214258285686151 8.299634038921782 10.116810258844422 -1.564190771982248 0.9823938353369919 0.5816771232379402
Ni 1.6012361976755356 6.508390119217626 12.258110817092529 -0.32039853466427404 -0.5246238298683739 -1.1501919980623094
Ni 7.402009098119482 0.5812361242445003 1.439132007933426 -0.9790478016828945 -1.138542329638523 3.6083887635647596
Ni 8.332213994797439 1.6829055281680811 8.205690030298383 0.536730897544553 -0.6707352516488772 -0.5271561093719244
Ni 2.348436802220758 5.32247599018112 0.9150718853589297 -0.25252809607454574 -0.5567417934488411 0.8853776284212429
P 9.06185933507031 0.21753960563532337 6.334353952514234 -1.0955203175510424 0.729435336593247 -0.4710947476019822
P 1.8488961546070808 3.5417839048534296 8.10879057425892 -0.3611466631159135 0.26665553661486335 0.4806726210984044
P 6.66438918567183 2.1775998022938055 12.337857472630992 -0.09759367668577386 -0.2559432924036818 0.5027990206837987
P 4.857700368570616 1.973052959801328 9.256665807263591 1.185029674566785 2.898168823557699 1.2769067604837558
P 5.906095148171526 4.526466148214844 4.249716744867752 -0.6175303854911235 -0.5990251275980845 1.5510025554267484
P 9.398883057473345 6.780935597045882 5.070104125615623 -0.7661789718711837 -1.374953465546548 2.4202670803362127
P 3.5457711909408203 5.532831010533918 5.44344483408676 0.8455219298768858 -0.46853032930891564 0.9928762229255544
P 8.865146996154696 7.161389922709933 11.198605796304786 0.5037526428463196 0.7010544714577088 0.9017175032318471
