# total energy = -340872.91595797054 ev
CRYSTAL
PRIMVEC
9.24734130171965 0.00000000000000 0.00000000000000

0.00000000000000 9.24734130171965 0.00000000000000

0.00000000000000 0.00000000000000 13.53441873065069

PRIMCOORD
 96 1
Ni 0.0520893472524 8.305767513325886 10.440342338635796 0.7279420398771722 -0.7606570136116899 -1.6987458563837194
Ni 3.922010016994736 5.6317693935486846 6.3848617497095885 -1.9527754767044563 1.2593435547890117 -0.7409140266568078
Ni 0.4074341465678146 3.2479250930721206 1.677320628976912 0.7377803661238326 0.2752530484758873 0.3386178858857781
Ni 4.042068245505433 1.7148454141169844 6.1656988427137955 -0.6291270891897874 -0.7247497581921196 0.5923554288873928
Ni 1.5088793874961133 5.083910674599576 7.851695327039143 -0.8649815812633942 1.085956328011691 -0.0466827487685196
Ni 2.9550710501925637 5.882520292747335 0.25220550594167856 0.8563287906844026 0.24751624468225114 1.4483708020964345
Ni 2.5349551001448467 6.174690032391139 4.489095807400322 -1.3420615999145338 0.17605500341747096 -0.5057853570056321
Ni 4.290451825402017 1.612292402164151 3.766412407461754 -0.41334031440033336 -2.0329445301558793 1.8483084699376167
Ni 5.3171563572403615 1.586261137182435 10.182809439530365 0.5460331487820853 0.08808727985723538 -0.6431599131337697
Ni 5.177336560962017 7.34106640305145 10.645375308547377 0.48773184193803104 -0.3358673197238345 -0.6855900572735225
Ni 8.042976576114379 3.4521433722395125 5.355122240547265 -0.13390459530166615 1.051331281738654 -0.6059915316135887
Ni 6.649337552455615 7.784513394501961 12.522151836064475 0.17651163133891537 0.08517936218182104 0.030271654400347865
Ni 4.898871380715338 8.896413679191655 8.726194174031999 1.0401102162118538 -0.020465209832887334 0.3817753951098586
Ni 3.2929503965165163 2.7055038106449474 11.071113641937503 -0.4417314639485167 -0.08808059498901605 -1.5569747138497831
Ni 5.231581463407042 5.598811870140218 13.022817674833233 0.9226545104948305 1.6296114634799033 0.6299249025007344
Ni 5.308112457719184 4.75587049912484 9.391343392323414 -0.27984221050846647 0.28392255122542714 0.40282964467699656
Ni 7.782340269361392 5.061957487009312 7.422694531735854 1.1918682947551733 -0.7980436817902643 -0.38082151583702156
Ni 7.0076257804188735 3.2724397941259493 9.625136517552802 1.170819958725306 -0.5766467599028843 -0.44472705624173087
Ni 4.5221162127277506 1.021997635257282 1.5658235887859557 0.056537272965096176 -1.5277806087843302 -1.28850012174831
Ni 7.944224221322285 4.654279210638472 3.077442963427391 -0.7841944346119978 0.6627095531309233 -0.527283378978408
Ni 7.354419563489673 7.361595500124064 8.07690784453264 1.098231031613986 0.6191609791160111 0.816272546093465
Ni 6.152274477749689 0.6979966983416986 5.110244327632766 0.796659399848228 0.042673370498810384 0.23237707504796756
Ni 0.6655699723079921 0.47394102321026543 8.295705481557999 -0.10312874757139014 0.49749097820732385 0.31214709328875917
Ni 6.856293044566022 1.7436416340647864 12.032963796974332 0.6830261532010882 -1.0386408307551789 0.37738420802069844
P 3.9591380912048915 7.531127003111556 12.424284451808349 0.22943316192829522 -0.3075903271560122 0.5516962606051337
P 0.2346031923030655 7.628621719524427 0.14747197097545653 0.3690731170518418 -0.8628439660951011 -0.8913988949146583
P 2.577039749143706 0.40732225374142794 2.547583269046812 0.581752970781198 -0.5314367390251492 1.5204609351944653
P 2.1052496574555533 4.332656689834184 5.832048305439981 1.818299582280352 1.3873502965490043 0.9262280867787016
P 3.374863343304451 5.8755847869795605 9.155194969335287 -0.5717570359107508 -0.5751575769518675 -1.8058497865527738
P 5.310146872744398 3.176332178866635 5.1394520542561235 1.2393041196396335 -0.2903860474625838 -1.0981523558572506
P 7.606927457482826 9.03768530801072 6.660489845730197 -1.6350424046874872 -0.031157656549726985 0.9422090355879902
P 1.4790104759895621 1.0332978859882436 10.42886453895718 2.038570103872773 -1.8536900459645045 1.0559929488803812
Ni 0.766184741582258 2.2914356216267295 12.206136902856958 0.8196489187648659 -0.5749801708337388 0.5824361128911517
Ni 8.64015136474288 6.321362108368045 11.837094017283137 -0.39964790451490523 0.22386672358411122 0.7920378419158166
Ni 8.301060616744822 3.799279306928189 11.870577714395852 -0.6138588501768073 0.7296384537429886 -0.4977627438114718
Ni 2.782672871487724 8.571693299144428 0.565617312651023 -0.9813517672257228 -1.103313588343216 0.1077302508991435
Ni 1.4528774902565857 2.8941680622104755 9.403470355341893 0.17707804536534666 1.3670709774746777 -0.48369803818828955
Ni 5.645686641789354 4.420682129038784 6.837182489606444 0.9313121861698284 -1.9224351738497019 1.0750021429930325
Ni 8.773701463807155 5.66837036932049 9.496506003913133 0.31119989888414146 -0.017117376406576974 0.12385723836799314
Ni 3.581088295473986 0.133362378041495 11.220493339366149 -0.46519123763335374 0.6016466243813317 0.6179286493708067
Ni 1.268716693769599 6.728467049595416 1.8171441241916662 -0.5785851145761778 1.1629490406176617 0.7731407479009975
Ni 7.3277594793183445 0.46775177786310296 8.813098835504528 -1.1063022386578947 -0.06337126516779408 -1.2942136271933193
Ni 4.647732093193691 3.14570498539614 0.5772254998380737 -0.4371176193255891 1.2151761162431782 -1.1594312572723904
Ni 8.095982334862226 7.713253384573329 4.96392365061476 -0.37686098852737676 -0.3140499667384269 0.9378001078870172
Ni 9.035974549921336 0.059077562864010134 12.422619930424085 -0.8220793825832292 0.2737687506208769 1.454114132338115
Ni 1.116459223814378 2.7527207339119597 6.682280280118444 -0.8792103232682664 -0.6645880011005586 1.6821162182468385
Ni 7.560866451843776 2.146511293103303 2.044197787282983 -0.3545731236634539 1.1128330977978769 1.7827936760642586
Ni 5.835774983872532 5.266148024153632 4.381713833964913 0.0035314101920261762 -1.2596472020723597 -1.0494127245597022
Ni 4.140127049720749 5.55362936189842 2.5793081218968195 1.4735794401515783 -0.5248423736370832 -0.30425894878993404
Ni 2.871327129881936 8.628083584706951 4.976185624812187 -0.1887212860312298 1.0688255818686756 -0.08853053804224108
Ni 9.142642628629716 0.8153269612504049 5.688191120070688 0.11068984774809969 2.2714207761230494 -1.3575054452734299
Ni 1.8824904595356426 6.8164739941179695 12.01906411868161 -1.615495078683179 0.3207250647657573 0.1539077778964704
Ni 2.721094827610905 2.6517582646152023 2.29028062873287 -0.38710246374972684 0.18570538202304146 -1.6853156990207427
Ni 2.7759500545634936 1.5221863112292175 13.4989447694615 -0.17007461746432 0.8185569712522677 -0.5267388193288476
Ni 3.8537553928988055 7.675829395450415 2.975298683947805 -1.591043630509034 3.161044838525472 -2.0802821388995785
Ni 2.733033144872502 7.942171311615024 7.286849242629496 0.5411354543701519 -0.41083811680376986 1.8423566232295558
P 6.121406853412579 0.6728457802254393 2.9160444968702426 -0.6596962202258961 0.1462698017352384 -0.4150678386144013
P 8.380837427756283 1.751538863299026 0.1911860014626914 0.25174930892699227 0.8419663513151434 -1.208755300318499
P 7.889563188531194 6.959289928887993 3.0741536842252613 0.6301868979128695 -0.4016806186742179 -1.1929533002892359
P 2.2187792632035186 4.905261293362715 2.2626976599273774 -1.7195941605876384 -1.9276588841424867 -0.5209618076357544
P 5.041160217047011 2.247418278353918 7.989854300869631 0.7196569170502445 0.37017149232234314 1.858810140799889
P 5.929598505898992 5.12403488730141 1.5302287237175296 0.34919797539446956 -0.28639158159121 0.026436082704341567
P 1.142878877119089 4.349496097838342 11.203453264061777 -0.4108324603768151 0.8343024070119824 -0.14095610283180884
P 6.8891765892463 5.279556668637997 10.853304545667578 -0.1327797376686036 0.13567428560757924 0.0873408886095141
Ni 2.4439427697895915 3.876078474130017 12.789172507060224 0.4544447977501271 0.2533549628512153 1.6150019410968441
Ni 3.690632297240737 5.339821590089451 11.148057067659302 -0.6541066419532605 -0.10826709723922 1.0596858243509362
Ni 2.5996587452876763 7.715639198557444 9.963321026130536 -0.09088721119987572 0.1614984457595348 -1.4638994938596532
Ni 5.443077399960085 3.7713245950135437 11.932768856982543 0.8820071692871132 -1.385013935106344 -2.1705265743091324
Ni 3.3311789043084925 3.859202076761765 4.1637826727934755 0.9143786436392832 0.5507248978307999 0.579726941490105
Ni 0.9049253731631369 8.039943448258605 3.809979405226712 -0.034095141911496124 0.46183620511819173 -0.6102605913025877
Ni 6.924418205887621 2.2074975071546046 6.916155706682944 0.2733486323643228 -0.610345180596594 1.1868559291422462
Ni 7.631627105357128 4.149272669993188 0.643813753081533 -0.7894865362488727 -0.6502430452327962 -0.42626345021990464
Ni 0.8100291595779271 4.237899186364329 4.108331917078961 0.6750084251029342 -0.017925988350801385 -1.1053612149008643
Ni 0.7746506822894554 0.776698968326205 1.5214983090570544 -0.8447153748151903 -0.656954652925017 -0.7261759491156848
Ni 2.0400281612153965 1.8968145907813538 4.561328637604648 -1.1793027993853367 -0.7715240382331809 0.2497219940843183
Ni 6.3489931633468615 6.5347352551489 6.140430483366535 0.9851449157195679 0.9111868761748629 -0.0018727915426806458
Ni 0.5235261905134475 5.100870298037042 0.15578070688525103 0.2289037717873864 0.47594359105385137 -0.4796629488869675
Ni 7.605272183439584 6.653110467593285 0.9250771787219841 -0.003152686696368764 -0.09729697138096147 0.2637460762775522
Ni 3.4600036121096576 3.773950839864274 7.943255099983001 0.10386254041362113 -0.7317097344497204 0.34867964099715437
Ni 3.298443317084594 1.1725166051000475 8.828744411782525 -2.031659749906185 0.5951216787786202 -0.4386240286677865
Ni 5.0730727909198 6.737011592701315 8.109430742912993 -0.5344379877453183 -0.8266186652144796 0.672176612081094
Ni 0.6102745719226752 8.084654342108195 6.4406916464060755 0.0757603828607663 -1.883055386500499 0.11316941963684382
Ni 6.846851509380824 0.18070136621002028 0.8877576845526378 0.28129359824301237 -0.9237009494814736 -0.5105231288009336
Ni 4.844423036767792 8.279884205800549 6.360107542523246 0.7178926260609702 1.6015046779413582 0.20420806881291928
Ni 4.94101151376034 7.564121515884119 0.9031517331547914 1.0423025958774823 -0.022419505345780744 -0.21129557178732
Ni 5.295989193637112 3.243162712444915 2.724992581852395 1.8971229203371587 1.8502949042400265 0.307459972225735
Ni 8.705770496647055 1.5592404067111836 10.252348519294488 -0.6912282293959062 0.7965506421845056 0.5852427291020115
Ni 8.098349654164293 0.26563819351270523 3.409454871871806 1.091242773221611 -0.5208345380292708 0.22522015228821213
P 2.0448737679118154 0.7377639636800183 6.676366605533788 0.7909533506023861 -0.42469199196772667 -1.2828406094696874
P 4.59304331837953 7.044818586016194 4.709706848000428 0.27139330841016485 -1.0772852826002544 1.06741533178471
P 7.246799008655851 8.903811552010616 10.788880170223667 -0.9299302182206372 0.5533566790266922 0.49003992124591733
P 0.7759157185414977 7.4474848035521894 8.542504991937221 0.03695009486178798 -1.7286434152741004 0.38284317425274067
P 9.115936307753271 2.2558148640034372 3.910418475021528 -0.5394529244614064 -0.690887558227036 -0.9168062792441695
P 9.1802885539372 5.741100706471891 5.383301662848786 -1.3671825633518777 0.2877740637610334 0.9473378721741234
P 4.66769710246386 1.733848699920688 12.360794982541933 0.46795414509047156 -0.4122943896343222 1.1999235609594818
P 8.835991552942799 2.94211552541836 8.330109289102571 -1.5459559941417762 0.6343628836674301 -0.5329513758974628
