# total energy = -340868.1085030548 ev
CRYSTAL
PRIMVEC
9.25389206811261 0.00000000000000 0.00000000000000
0.00000000000000 9.25389206811261 0.00000000000000
0.00000000000000 0.00000000000000 13.54400643942758
PRIMCOORD
 96 1
Ni 4.136295498443153 1.6194496493538815 12.902386389075977 -2.0153188466543166 -0.5374328087075841 -1.930541347896604
Ni 8.149440198989131 3.6305147643081956 6.353019114484544 3.8475712915703344 0.4592072521357769 -0.1584666009117464
Ni 0.30783165067097407 9.232071559643348 11.375624649762514 -0.13835826019764558 0.7708432101160724 -0.7964526831540606
Ni 5.429082751811891 8.26057944476198 6.802301134952428 -0.7540101977191337 -0.19025314929472395 -0.07333608968998984
Ni 6.366381734875551 6.402333106218393 10.943476210772436 0.8473993494052569 1.495832595122824 0.8034720518946873
Ni 1.2925651599550374 6.995489090860197 12.518819958943757 1.2154543096052293 -0.49986359220455845 -1.7893193929979183
Ni 4.340177252220623 8.876712843829594 0.6355156763591416 -1.1187013836531958 -2.1754144985290536 -0.11262743109044474
Ni 8.943794308659518 9.2501536650755 8.936484659181085 -1.9537460681478416 -0.2606101017517318 -0.7507024735021395
Ni 8.208017336852755 6.93830929072444 8.341699989505475 0.4742692886752219 -0.3249445021637436 0.004856556761352927
Ni 6.113482113915835 5.2815572017610375 8.6596313381645 -0.33022349117449584 -0.06263901498745986 -0.06481493959285611
Ni 4.969062514791567 7.258734563341482 9.21226730486579 0.46650532845908693 0.9718962782397779 -2.7114018330393628
Ni 7.526116525652948 1.343998293011282 6.955673294118959 0.23234467914813534 -0.7963562667855124 -0.6611218969288292
Ni 1.5744017019415395 3.6548432470006875 9.390940530798979 -0.6121878902322876 -0.4496543183400192 -0.12479569102186251
Ni 4.752993384937258 6.449898112319345 1.048757488118704 0.4986220064879735 0.9856447381741219 -0.7902879491042454
Ni 2.14598686377764 9.041913328054148 2.629149234505603 0.31848974767733534 -1.0057240254225002 -0.006331598644982644
Ni 1.4712578190619245 7.71900465545222 9.12756365304792 0.6850591244707169 1.1643140392859883 0.38621337627655417
Ni 2.2606703502774663 5.639423722371164 10.29465066120804 1.6744659007904323 1.1468207675972315 1.483230590088097
Ni 6.51084424659578 0.8348759783893493 13.376535468764576 0.5186249319724616 0.09113943641999789 -0.8172454515296957
Ni 8.927239095446561 0.34426977674550946 1.809777227171027 3.5361816452728903 -1.624684458491931 -0.9117736019162683
Ni 1.2208845106830568 4.25413456219598 4.495012451749909 -0.9453853764334428 -1.666827153298252 -0.09966161495839611
Ni 2.7432978460340993 2.109350704409221 5.621696966400933 -0.2478707998081925 0.8686605727768781 -2.9777483230542394
Ni 7.061626658681892 8.291052511900197 1.403213024050073 -0.6068816475280258 0.18687137730668463 0.4168143889918628
Ni 5.730250674682614 0.1779930648537291 11.131250639721243 -0.5554696116046369 -1.6379675487540821 -0.12749149268647075
Ni 7.331109254531278 1.8525366870330258 1.8210327362995464 -1.7509834735321974 1.0342185333177671 0.5784100224508941
P 3.369675303808671 4.868370913354901 4.075974001892751 0.8850338719285791 0.21657198969491087 -0.2911092987818535
P 5.645031581067113 2.9105434404431505 13.29585355851314 2.0799466099370307 0.8471604939215732 0.28624014361501027
P 8.622961864784024 5.734785081879008 12.568405089720164 -1.1891156717107003 1.084662548900932 0.7021680162368616
P 6.249616122622278 3.347271630701588 6.281710471680513 -3.9474259963761438 -0.6611483792913904 -0.8565499055562732
P 0.6403582381670461 2.2771052628913364 6.120564117645223 -0.8732163104683607 -0.5879914954917422 -0.8778687216387074
P 7.084206155741488 3.8752246906376895 2.4783228210936183 -0.25227407108221067 1.3918900934008867 -0.3560031712417611
P 0.9145020195364814 3.87657575890437 2.3788147924741323 -0.19509222255458014 0.5958359312368254 1.5593650684588305
P 3.6709172578172935 1.4939113472594212 3.2770947389182075 -0.7170480186724877 -0.17704102147982412 0.14834313932449936
Ni 3.817591449782294 4.189375824317679 6.31230661558549 1.606593405318175 -0.5729328013864069 -0.6449180334754571
Ni 2.9434595351320785 1.9967493436628407 7.850160070134867 1.0054082939542943 2.224042801059718 1.4857034771086222
Ni 1.0752837702176108 2.1815218099697913 12.421046109729586 0.1543520645227406 0.3263717215285734 -0.628440090425092
Ni 2.148272575160312 7.946770705094779 4.889508654003888 0.16233096896315913 1.674516808633026 -0.6814338690133038
Ni 7.277408917876837 5.98517689804235 0.9500647274053455 -0.0787120092899225 -0.13528502058896055 -0.13337546227107352
Ni 1.670799497379988 6.065639491047756 2.9327925735498668 1.780475312343727 0.5123529829208209 0.19317777914068665
Ni 1.5083104035810326 0.46225320121724267 7.2265263914087265 -0.8734281693688506 -0.5741242505913468 -0.43183605921167567
Ni 7.532659027464888 4.86430845466262 4.510669112026602 1.6173532149378402 -0.2587123705083867 -0.49789875516870374
Ni 7.0664849521066 6.293368525121364 6.351502401546812 0.09229463307036363 -1.3358459580221251 1.447358044561204
Ni 7.907497186438661 3.669917837455639 0.10518529150721609 -0.3877961473826418 0.25249981393977156 -0.2601971825840293
Ni 3.3397759779891807 5.3468526653891155 12.546097657092352 0.16631566464252 -0.2640551228775388 0.05018870503924905
Ni 7.846328958748525 8.220787708140561 12.493019181996273 0.5755676679060926 -0.7903175167906002 0.2242873560612976
Ni 6.714355844683747 2.926256549462492 8.537343003023864 -1.1894877103381385 -0.03501148307817841 0.8440278618298627
Ni 6.094400588122029 4.916444883528917 12.754418502976169 -1.6133906307456662 -0.17195306543395547 -0.81069556622632
Ni 5.155361873317712 1.5166666682715308 7.117876442647775 -1.1652098116273804 2.3687807395314624 -1.5704730054465341
Ni 1.2827375263987706 4.815984629398189 0.5264715117888715 -0.4760556911516834 0.4073283038782985 0.3297866607473933
Ni 0.42718742736153437 7.042554386780322 0.9953236635607036 -0.9878612862094663 1.1806557138688054 1.254817127673568
Ni 5.478294950731127 5.137020658902908 5.017688942332166 -1.970024493592891 1.8378026853102867 0.37959355696719144
Ni 4.661102235018491 4.254874873574984 1.5519943272775614 0.2683429516196153 -1.57211234082217 -0.5005822155381379
Ni 7.8087303945874025 4.619783606177878 10.69222100646333 0.2900304638953779 -1.184353988655999 0.007762674664554373
Ni 3.6694643967359992 0.22614014077642317 9.297513234768779 0.9539404650923053 -1.6774776910335627 0.4653082228271922
Ni 4.127476539140778 7.291733943060548 11.211133013683355 -1.19183795573787 0.45313250669660665 2.0977558702043098
Ni 3.7206846902707804 4.266340446057295 8.601961081740154 0.8099080373280181 0.32675275901707596 1.4702886852154484
Ni 6.095474039621583 0.4666265906887038 8.680326742764533 1.5723367981281502 -1.728598678079094 2.8255896666383915
P 9.17330934393497 2.7542544544433465 10.502564335833405 -0.6518870085941225 -0.27819619026461123 0.6221871675368446
P 1.5480928863102148 5.758215937024458 8.372078666942869 -1.067322772070904 -0.5848146404256573 -1.8143367409778626
P 7.7834580148866825 0.5059047362909401 3.542719387093764 -1.040754534664072 -2.0438298096098153 1.0332646540449302
P 0.13663649505494146 6.251022714242385 4.857977866982919 -0.1834032162524261 0.5696970680579286 0.13606535039841083
P 2.383386215239477 8.663234803801798 11.036888700575055 0.7431002356748492 -0.8952095269100002 -1.799106297181353
P 5.871640894179978 7.808536062850414 13.071469806483403 -1.3039845905371543 -0.5946640224159113 -0.9162072122075898
P 4.705789280633569 6.181803600305589 6.8977318986520535 0.3412177854024704 -0.2959262605545226 1.1219990805678615
P 2.8796909637231938 3.5121297209133533 0.05231687976492937 0.5880074363313422 -1.34748842735706 -0.6768699037917052
Ni 5.13912129244083 0.8277143911867175 4.834817225490806 0.37971517014672024 -0.11534303024939489 -1.3224561669787804
Ni 2.0898897690336757 0.050759449701351475 12.919424655463736 0.5582649149615869 0.13336852029253807 2.7059629214119787
Ni 3.0280863796443764 2.652924334442289 11.056446801819094 0.7067448369742667 0.8703582721942752 -0.49095549108165115
Ni 2.2364899298607757 5.84030721506367 5.753819412822402 0.585113916833631 2.029370696761692 0.48035020476197915
Ni 5.460795840509939 3.2238709777139993 3.797658565902634 -0.8218562108288296 -1.3538457370336554 -0.42440659951682397
Ni 9.006221065693959 6.987651044135001 10.55003587762276 -0.7065921134464863 -0.8417138689847053 1.2552778693600704
Ni 7.845782979106511 2.396202855988469 4.267648946419683 -0.10851649424586471 1.1384471988215557 0.6165479669731962
Ni 1.0693057558321604 1.8694898176121981 3.492051550925564 0.34243186031522965 0.24204545137566702 0.3710541520376126
Ni 8.378427762407044 4.575966426433128 8.319486946578484 1.5399838357187412 1.8750389439539255 1.2670892601727017
Ni 1.6532541176976134 4.071212874336538 6.928639898725435 -1.663573936468277 -1.3657247478594285 2.0121036821511282
Ni 2.4895098514195797 1.6541332374601794 1.358586128734539 1.0408244686700592 0.9657572552215756 -0.8665795218781333
Ni 9.181924717608121 8.02863988972029 3.3150986235593347 0.04460838273799414 -2.001544161467727 1.897536096615177
Ni 9.136367806122713 2.3684134175991387 8.364223037822422 0.21346275464196784 -0.7183330560324983 -0.517192056180677
Ni 0.32119242028353356 2.3675250439443345 1.108029593289368 0.7100589889491643 1.437232783201744 0.29885346150364656
Ni 6.8955840702637206 2.101558927145213 11.185426626436694 0.7595349841921049 1.3020562631661898 -0.16734050636260858
Ni 0.6674684408661415 7.606431056382553 6.685118172159242 -1.2835959995784734 -1.3523226155209096 0.22040807561154946
Ni 0.8124158565396173 4.458155124357013 11.773872379929593 0.8798808669727299 -0.5173481221425671 -0.8765993680079806
Ni 8.69420758112084 5.554130597617762 2.733370270441667 0.24588565105736362 -0.5746986350375779 -0.7234194694164703
Ni 6.820821874876639 7.921581610424196 4.8451788086291785 0.18477541400960437 1.516911013059678 -2.6127146661790936
Ni 3.9495889686585564 7.378831576800269 3.1614146082243977 -1.2465587443195176 -0.25817423861672956 0.7411369413008914
Ni 9.070165461055357 0.3144083918841934 5.410709148774257 0.2479142514516182 -0.20620504463829004 -0.8244756507295478
Ni 1.623919279304613 1.0742103187180563 9.58549991353635 -0.8475011650904437 0.7924975551610545 1.4266321248677625
Ni 3.03995912338514 7.767606097483777 7.390490555630345 1.0061600845186542 -0.6061447693620012 -0.532843903785321
Ni 4.903406149366225 1.5549130048892814 1.4300169229161064 0.7899804451661555 2.1894090130359327 3.2824862683631206
P 4.72364929265202 5.005476580746285 10.670631675873151 -0.8905969678386534 0.6147898466315088 -0.22672399052724826
P 7.195437940436712 8.103948064749387 9.815165787255275 -0.8790113198835828 0.8285945579939278 0.8880423197375997
P 2.701127859107632 7.205099003932704 1.2705714342740773 -0.47628451933303784 0.6219915065862708 -0.4523655466235952
P 3.590852582178102 0.29492802333494905 6.179344841138074 -0.5470479631998449 -2.33222273790177 0.8569741375778853
P 8.777973813655048 0.9371046513266715 13.352007101999755 -1.215141663460817 -1.222021678410102 -2.427612207847374
P 7.582259889858099 8.403320732526026 6.860297128383536 1.3073943875496516 0.8512991986802951 0.15030823347067018
P 4.629851840932321 2.1681776973632596 9.401043930343924 0.5222481305473456 0.36611634841636304 0.34832817119500653
P 5.980753537552807 7.2100035668185996 2.916132791354624 0.9982148615296486 -0.7556834716564985 -0.05966064908542629
