# total energy = -340872.817280785 ev
CRYSTAL
PRIMVEC
9.27466496227515 0.00000000000000 0.00000000000000

0.00000000000000 9.27466496227515 0.00000000000000

0.00000000000000 0.00000000000000 13.57440966979420

PRIMCOORD
 96 1
Ni 2.6837820127662377 4.013305253253371 1.3818889270453079 -0.3357559909569508 0.5106012903370367 -0.533419573783133
Ni 2.3918155557691327 2.7261672322222976 6.901895057844213 0.5855944560144754 1.0862574041918776 -1.2017009645748788
Ni 2.551747880561321 9.0296933598615 0.6886828364407371 -1.7529321126181359 0.2756435990460866 0.3461226789032555
Ni 6.33300101329158 0.5611450618708964 8.585000065379738 -0.635864407913621 2.9699681648881886 -1.530355311490042
Ni 0.9696384110443549 0.5962951150911419 6.319376530276054 0.7180520344569697 -0.13447615153442002 -0.4131942757407723
Ni 0.8968304351638381 2.22197788866205 1.6358793403695935 -0.6828960553811272 0.04298601664322274 0.5839358373651298
Ni 1.6236785184452067 7.363722368611123 5.240482564485006 0.4192764773791102 -0.09001200768377401 -0.5067495206911143
Ni 5.805346767056533 0.4065299025741482 3.73596308816837 0.04392909728278241 0.6551988465761748 -0.7596280581265434
Ni 5.600738380531339 0.8956479153650092 6.168062224284428 -1.241784977079958 -1.0430788119218746 0.45518656101215804
Ni 1.1691457317706802 5.969619635110304 3.21693149806643 -0.7999941206484158 -1.3176698013337307 0.37706821944217644
Ni 8.75477373729771 0.8796370610221216 8.553819568817524 0.83656060691854 -0.13537320942739267 0.14795567407809357
Ni 5.578173120370158 3.093175004453315 12.55228350299571 -1.1820932176462802 -0.5138401089893087 0.7993055792218234
Ni 8.913027347708814 5.456368943758246 7.624596438364355 0.903211057058238 0.9106664848950187 -0.23186465418792324
Ni 5.305284649460825 7.789596440161093 5.514821593014236 0.40115148564362524 -0.27247908527517584 -0.1725891563560576
Ni 5.945366385902952 7.092141625479318 3.2088959282334475 -0.4227148136366978 0.6905522863748043 -0.09611863480214414
Ni 6.81210238778648 3.5739365439991193 1.0969313344558498 0.0614701914903393 -0.41508197968178845 -0.24613890471875027
Ni 0.0770817415534605 0.28000770383153706 0.4678261641463803 -1.670128449757343 -0.9688693184879958 1.3350627999991975
Ni 1.9249938378518756 8.91047681480938 8.564461319540472 0.9680913026713909 0.3513250490398014 -0.14310708773654063
Ni 3.339055650623907 4.246730024209632 4.210402088523103 -1.7686960603206119 0.14370615477312024 -0.9876692248033183
Ni 7.12528927850688 1.2644892888840928 13.637259794152028 1.0067704644091435 1.0102648507156473 0.08281677548691543
Ni 8.85208352340996 0.5964091934717348 3.3683543176395947 1.6837054171108294 -0.6388952243201449 1.5078152214059968
Ni 4.182076333875235 1.619625489801378 7.926912494134111 -0.7214502615052414 -1.9252759857326067 0.7178620299333508
Ni 6.546438880981363 2.626761371799967 5.076910861111952 0.25887949221387024 1.0760691508049662 -0.6800243902602868
Ni 7.409251699532304 7.964841237014978 8.05610023162326 2.0921866036466485 -1.2702015805494382 -0.5639971894596738
P 3.9348044879413155 2.071190383647471 11.301849969053775 2.4380884247883494 0.48077752210738495 -0.2879933788606911
P 2.2001731510381557 7.631491224391409 10.674752763736043 0.8844453464149605 0.8692609253650384 -1.3140224343891307
P 0.493874061048425 7.864136923480207 7.090986929675756 -0.6388044643785514 -0.20498017109225344 0.5150194740093904
P 4.447034966133599 2.9246821637841154 5.48364109645202 0.6950229205516483 0.5359078874226254 1.6740285561426975
P 7.046009441327361 5.339350494332183 2.429466058697334 -0.0118026490618829 1.2938053360113073 -0.2565097064301131
P 1.3984247274322246 3.7172486689520814 3.1063134950181848 -0.6021621305651694 0.2737751783787801 1.1607494618631815
P 7.554168341545638 2.8907647135541787 11.961322247797167 1.5521232992947527 1.3304034468503152 -0.36160226259609335
P 8.0405410534702 7.702396038995693 13.653548888447581 0.473479702894391 -0.7012241642663536 -0.18695442393879416
Ni 8.327953649908675 7.249653262683315 3.1838237260987503 0.4043725636840842 -1.3625702613908468 -0.11365278703116555
Ni 1.2553537437715723 4.4302663716529525 9.152450972044546 -0.3847987553172147 0.2852469264638055 -0.29291806985581814
Ni 5.661914071457415 2.773347453529295 9.646030098743147 0.04267799848450069 0.6406821410172386 -0.04323669920144812
Ni 2.3393580500265783 0.916260858524986 10.635129539543442 -1.5469898347229294 -0.2613567501097693 -0.5549235092931797
Ni 0.5297178592173167 8.531003892698944 11.734968481504648 -0.5609380909183758 -1.3897583917698646 -0.4455168991328779
Ni 3.260684730623096 2.160486859122952 13.338093414646446 -0.33131518157677775 -0.001845537849171015 -0.24268617028345946
Ni 7.956132326496545 3.5952960976987485 3.2709851736707765 1.3096780413775058 0.6279783202973249 0.9987689342609057
Ni 3.0130418980856217 6.371509422740499 8.778394454346001 -0.016541449298448932 0.5156095421849055 1.3100919889864728
Ni 3.894218553512493 8.52262887012371 2.956669556209062 -0.8412413002236607 -0.2039509584967907 0.03745248841950324
Ni 3.2275092536002674 3.245678322509331 9.572416154466408 -0.15890111734600376 -2.2533698321586093 -0.27109686021566853
Ni 5.410617020874933 6.736133606043681 8.348126046476933 -1.0729583730901264 -0.02945532914663959 0.0837328595432816
Ni 1.0386326446403353 8.07296528262083 2.2865545992762093 0.14506318302164695 1.8029213000520692 1.7192421765648587
Ni 7.788010472430899 4.473746001589497 5.761807779263419 -0.5251907581154375 -1.1782902989604223 0.03078741769450181
Ni 0.508870267030592 7.122516153645313 9.304293933946237 0.3736699923939048 0.5584268944607479 0.01921153993144433
Ni 2.9218255669367488 6.546874790240539 1.9616788481443261 0.6559853470332122 0.47639199144517946 -1.27434362774227
Ni 4.8172424978202715 5.226394348215038 2.112205735069908 0.27695871831308433 -1.0633267635376333 -0.764857939066915
Ni 7.710214581665596 7.067415368352435 11.337604730437812 -0.46418413652507795 0.6172025698380597 0.9669739012374958
Ni 6.499240110344188 4.851744251950805 11.099821794356298 0.2345350019312348 0.1943427459830653 -0.2932543701493143
Ni 8.288564147276317 3.435011335633184 9.572185215305696 -0.05448193309796424 -0.554987786872212 0.4487410624971304
Ni 6.696632807430254 4.694603601350363 8.226336709329162 0.149776015116284 -0.3773140169043953 -0.0812175493205956
Ni 5.504958914158749 4.92402171698824 4.368272655266039 1.6066885361351426 0.27632648404572413 1.3310935309388043
Ni 7.980079511755964 0.9812595664006882 5.930686446000315 0.6695358320241372 -1.1322076456697467 -0.24491300273144917
Ni 3.871746040002201 6.00596704759352 6.495015500396215 0.905230401481112 0.6902751214540176 -1.5742468706666695
Ni 2.8848382025624013 6.615757727855453 12.377405055412837 -1.49853251055249 0.16067697829950392 2.3131634072774747
P 1.6977552685098787 0.1236581821631733 3.957089653216812 0.04654082387401662 -0.10007119169198894 0.6701037887124652
P 3.6397681167998006 6.491273173032862 4.181582921692509 0.6137770890962784 0.5370096051272365 -0.08661018109107664
P 1.5174094058571248 2.037949983969021 8.762213873631987 -0.8802876154928453 -0.36087489751176555 0.19132144265823825
P 8.241819835228496 5.798557712211492 9.750648320945412 -0.8871637737873884 -2.815622271013035 -0.9669019103489799
P 7.325603495095935 8.589814544027362 4.631222395066156 0.48946990767506027 -0.9811846455202394 0.5433741138926834
P 4.756975724072902 3.06449773999858 1.217653157651892 -2.0753335366450516 0.6422749394256551 -2.8897464038219587
P 1.414970729950739 0.9283568767338686 12.710290407315453 1.9623592637381495 1.3042226746898893 -0.649836553822997
P 7.830117451934293 9.01595758086491 10.23692364888654 0.6597057333075929 0.7594979603065823 0.21742276773098038
Ni 9.330498572688283 2.794076330002882 7.166405723778785 -0.7247379311175776 0.8354066958197547 0.09141814400268126
Ni 2.6179597146306453 4.581582532577595 11.315777733617706 -0.7302519189572714 -0.21048464585025042 0.6831673067646429
Ni 6.375618099374861 6.026167268157043 13.594635288336676 0.5727021734328396 0.5939016903285901 0.27970388515838923
Ni 3.112345737191975 1.4391961551628243 2.1091376758585154 -0.7109200513978788 0.9992993528430789 1.4911822408350062
Ni 3.1535623488468394 8.819761315575304 6.3418286395231505 1.3547417664853636 0.14245814129863207 0.7155452088747161
Ni 8.661238739876623 6.45335834214963 5.322892601132013 0.07623963649002999 1.3821921493868325 0.7332986762033952
Ni 1.1864708061566582 4.71654745895059 5.2518579412164845 -0.4538637284356764 -0.14174054640631717 1.1335299640255962
Ni 4.5276318057557345 3.8101808131423924 7.673722484406994 0.01667488955251967 1.8048622258285238 -1.445572413415691
Ni 5.781612899094156 8.435651060920442 10.16488454274189 -0.777136756434268 -0.7879731849281396 0.7178316909160476
Ni 5.008588113268405 2.630730928457996 3.135824551864407 1.048420535849762 -0.09311610053039449 1.8918015081242452
Ni 3.6645129232568614 8.908148873872078 12.201426632550422 0.972514371439751 0.6395608829286018 -1.105643007807341
Ni 7.4800637674857 8.847520388186243 1.858404524913435 -2.0265129155979227 0.2721481842983184 -1.3851442900366209
Ni 0.4455641855336055 2.4462021918501695 4.747527622746887 0.3949456139432295 0.19830507306492298 -0.4157324687815937
Ni 3.4159982722010347 1.3423222783097506 4.545906605846811 -0.44927842305783916 -0.7215672466990798 0.2226163961167779
Ni 6.279671689030672 1.2159549664741232 11.3311838797968 -0.07371121364122143 -1.215123408628372 -0.6032072840002322
Ni 6.126222355135594 8.509338275051382 12.804442169964947 -0.5595628078374041 -0.5990328409075684 0.41126440570791106
Ni 0.9433354608523666 7.048726918198395 0.34339169251526996 -0.8129357684107484 -0.7076614352512651 -1.2650992263258665
Ni 4.365557033328022 4.888870736301485 13.21711746562697 -0.7312191679665472 0.1783993352799315 0.23540326346880106
Ni 4.83682131582284 6.848106637661408 11.351193042259492 0.6001535847755729 -2.158020214312006 -0.23940672820123934
Ni 9.008788264751226 1.4670572490897396 11.294289262073342 -0.9262411994048242 -1.0134522473046932 -1.9270842425859391
Ni 0.46886307170331404 2.871250818207231 12.911490354420494 0.16408574687073677 1.4725481706735866 1.206842142456186
Ni 8.592550570228575 5.006260172331102 0.5930304329798654 0.33951340111685396 0.884347901605148 0.4539951118072181
Ni 9.086509958195817 4.823011339505538 11.59141892512541 -1.283623253271983 -0.4344187323371873 -1.066373006563125
Ni 5.072175217117583 0.7970322564082489 1.1045541816923785 0.5840116849083877 -0.9638266138577659 0.014298161790226986
P 4.2842460444940444 8.72726508064417 8.367537920507903 0.22263130851511337 -0.4293333473944799 -0.5253360254440501
P 7.14956107704441 2.381363008213995 7.377121477264989 -0.6949565860900869 0.6725553355767514 1.1451279532758405
P 4.207757881506271 7.831768342320109 0.5355840848860165 1.914797454798786 -0.9492160630334427 -0.27249554033540807
P 7.480379106098721 1.7577994502951158 2.405453023315783 -1.8994083739372258 0.20570702195594895 -1.8482668180664041
P 2.1846009883539708 5.091846781771042 7.193392216787822 -1.673779416246369 -1.5650184100898659 0.6412220726811086
P 6.624809800982174 6.2464591133474885 6.539743500253719 0.04647886028782963 -0.5131687939538968 0.05814446955121599
P 4.47420973484394 4.897811513447141 10.070379415352509 1.0882482093696615 1.3601765643476897 -0.23455968452158313
P 1.217986118128582 5.029456109718325 13.101830596172995 2.32985449477991 -0.037327018585232484 0.8867171731682729
