# total energy = -381167.92882914376 ev
CRYSTAL
PRIMVEC
9.28829234749823 0.00000000000000 0.00000000000000
0.00000000000000 9.28829234749823 0.00000000000000
0.00000000000000 0.00000000000000 13.59435472553873
PRIMCOORD
 96 1
Ni 1.7907734980577958 3.0605480954311592 10.902740729630915 -0.8081463174419049 -1.045824750098128 -0.6814675504647167
Ni 4.183762726073088 8.790755786393248 1.6413685273457639 1.9680966804425586 0.5483990779111008 0.49928946486864334
Ni 6.6702571942864495 4.351546441076361 6.286178870418129 -0.34019217235143345 1.1813704805476428 1.2483790853577081
Ni 2.419897411272847 0.4783461328773836 10.747384749939554 0.6489996597439984 -0.12017439019976722 -0.29609646758379976
Ni 2.3973918786414847 8.592952310158212 3.7310253443380605 0.3654666306475061 0.043746291848014984 0.18318312982182
Ni 4.848172862344906 0.7780505368653767 9.137513751155993 0.9459813581462289 -0.9078781235166042 -0.501144258689195
Ni 6.41284145704106 8.967642028007637 7.253797883423221 0.5968011233635722 -0.38609381997955444 -0.5448170169867972
Ni 2.7702610911686874 6.639029955034845 5.209044387501109 0.8439265603653079 0.28126428766697364 -0.5133058337523934
Ni 7.4940915823472505 5.907753401341162 9.649463068496331 -1.244661527296805 -1.129758669908622 -0.5461635037123627
Ni 1.4825786659318216 7.671711599066005 11.308450557810081 0.2096647210521163 -0.39264216262103346 -1.829905284840081
Ni 7.923405748155835 8.567808902468117 13.340643495838098 -0.23195181458509087 -1.6349493307530487 0.05636475194297389
Ni 3.382898285266666 2.4009307180688677 9.39829370793051 -0.14796390160820969 0.9741123120544902 0.314735937061858
Ni 1.6845711620664636 2.016209644362293 -0.04673961648959089 -0.37721708631521483 1.571656998452306 -0.556935397516886
Ni 8.894180922938943 5.190372133168122 2.9000157503516606 -1.3367201330969622 2.083302156672825 1.2701925816883737
Ni 2.1054236934436945 0.44779043717065936 1.5894924851256143 -0.5043727929288218 -1.3088820278387716 0.3671730718156515
Ni 3.5356071016068347 7.114005366578377 12.386564026752419 -0.6221480867687931 0.18810859214789538 -0.07380763000976967
Ni 3.066000323105369 6.961240820483446 1.1135371587275178 -1.7014442291514893 -0.32546592188485235 0.13703285651800273
Ni 4.526249933962574 1.067921425625626 3.389440029646471 -0.5174548229237604 1.1367772673183003 -0.23969597730688397
Ni 7.119652648394252 9.524215088815108 11.26331688708688 0.3802044510783129 -0.7525606097568006 0.15255100675825986
Ni 6.0863486887682505 3.1885872069967105 13.308247789394985 -0.2335870361956687 -0.12415882876881197 -0.12622291038669228
Ni 4.054906244771027 1.9297727947265282 0.8241278981025466 0.39779079670150846 0.8065576327985463 1.708204173583142
Ni 4.605878465224922 3.4006760770357234 5.256923677475582 0.6415015515947403 0.8865767909356668 0.6681993726009008
Ni 0.8845083008993677 2.1060460090385362 2.304460654917462 -0.054223537230255 2.045397668317568 0.7608927837715799
Ni 4.959353723094971 7.995018483024924 3.8209657378898587 -1.12873074286474 -1.4155938647757298 -0.9483578287982054
P 3.701468140070821 7.85911218774548 9.92268283536296 0.07878734261254819 0.3755615529896629 0.24052181564228897
Ni 8.053692626496785 1.5584547270401992 13.215235757526557 -1.4500875276772254 2.3244124978287326 1.7973049823065563
P 3.7916667481530166 3.2755906424725554 3.246141182397855 -1.2607340073786353 0.010938244179058582 0.040652740524355795
Ni 3.759668580627204 1.9561236804364643 7.132632108278309 0.5637686183886356 -0.9470396242074142 -0.437403268886808
P 1.4486113804044205 7.337583854390809 13.312992249183718 -0.6557716883605094 -0.13548659507680538 1.2719609864427062
P 1.1831426935959317 1.610394858478325 9.24133364013125 2.033715861104265 1.3436433425793568 1.9903122973076497
P 3.3289518826571105 5.178139451997876 6.711954196799331 1.6711106111649543 -0.48483266601336505 0.40138494181067
Ni 1.1796224307534693 1.5840811259382301 6.387959979198348 -0.8985180224579429 0.3356449193003832 -0.2767437740888008
Ni 9.139354690721627 8.706668874749946 3.9382304302014357 0.06123442133044938 -0.11694457040855988 -0.352921961213276
Ni 6.274325151580266 2.0871257572968585 6.763817235410037 -0.4616256317692824 0.1032452185445964 0.8548812596045987
Ni 9.279700789797108 9.237141833743907 9.999490512205108 -0.30164825063996437 1.0444890620058398 0.5179291914570177
Ni 8.70879589372336 3.3698296577749915 5.72673108309419 0.4907132931638581 0.1882885693691854 -0.16352653193315708
Ni 3.9936592442876586 8.632975562369744 7.559780244285146 0.13836134552143914 -0.3468397595749382 -0.4990963750212307
Ni 9.03354246301363 1.9840814407420362 7.923673250978693 -0.2302500014026357 2.804499678737312 -0.7231549029011738
Ni 5.023795896184691 0.055612722276937365 5.534167132636021 -1.0758758038472374 1.465155477753941 0.4115348857604783
Ni 8.803072062195637 4.775399090918276 7.965612677924788 -0.46600319201168783 -0.793260401469008 -0.030930113919953182
Ni 1.73134700289665 9.191861407999832 8.1109493765392 -0.3290132729164785 0.10279630393263586 -0.14517554022979515
Ni 3.9802562382674127 2.314382408923579 12.085585269038871 -1.0929918947022337 -1.891297314794317 0.03333435248607162
Ni 1.947606316250348 3.4773323547107684 7.533447935160131 0.2513106787276769 -0.008839709778817035 1.1713652897058149
Ni 2.4059092428276005 4.465941051017698 12.571244074570265 -1.0953169432909846 0.7841828646477721 0.9613989782528798
Ni 1.4709032823091956 4.369444980647403 4.0124828977877485 0.9216661784396321 -0.43390939680093665 -0.09479708777724319
Ni 8.21114776028418 0.9359069248870566 5.882250536732853 0.00889858804121048 -0.6343405150699268 -0.7674920342556524
Ni 7.353243915478914 1.1944929869824463 8.774652673754787 -2.800850512020499 -1.3333830983039294 2.147824247615611
Ni 2.7487679824155005 2.1070584329167112 4.969320989734143 0.4315303550457988 0.13769311580982094 -2.2806055279461113
Ni 8.490660345292676 2.0557777702432687 11.046935897101951 0.7955227151406234 1.3987865634104037 -1.8373236887913391
Ni 4.720941832223403 5.642526210136642 4.092566555380653 -0.1585167374233915 -1.3637717378981158 1.1516395291421133
Ni 4.925646509756459 6.286994382496146 8.881872077770524 0.07613396415010115 1.1228999951155758 -1.222958074181442
Ni 1.1720338958133854 5.225732662564571 6.364210744206549 1.2165814812311369 0.3763819920084292 0.7598391456960849
Ni 6.522703380261761 8.092749896292442 9.34121157778635 0.4788216839325947 0.14236892401893544 0.761486965712153
Ni 6.431678114150596 1.5963695368632373 1.845433241528304 -0.20442892657447373 -1.6571855164434297 -0.30272220043043346
Ni 0.5754719494764882 7.784880154402579 1.8165048546606284 0.3956087014485251 -1.3337715919915998 -0.9194665996851519
Ni 4.864575986829836 9.281066168788774 11.39401337912533 -0.6497918166279906 -0.20800275996866113 0.2549212788970706
P 1.0726305899030097 5.639126695096164 9.228093179229061 0.27582306204674434 0.12987207710350537 -0.4205872257707337
Ni 6.758077999498803 5.932116592464588 12.779795034011142 -1.3451695494158962 -0.710016822857319 0.8071510434081711
P 9.5988000772715 3.4333987313734413 12.473078898044852 -0.5290317291280824 -0.3521912536948386 1.3276834768159909
Ni 7.23030407647408 6.635769764381271 7.163694944753367 0.8410083582772484 -0.14921345774459463 0.9818829571388444
P 1.3963647353151043 6.554608664862969 3.4542843857997236 -0.2966716233609794 -0.05835401445886079 0.1848774868051074
P 5.847630284245491 0.8791164471261503 13.415806216085523 -0.2592214489343213 -0.5083538890637567 -0.5771684367343092
P 4.400895138918056 4.172421720979033 11.504875651444006 1.9877386230432024 0.6719660387321846 -0.15506811675315874
Ni 5.194598306237569 6.6741304122424046 6.286790968891265 -1.576687361787362 -0.19675238386582242 -0.45350788775815437
Ni 0.0923609225669589 4.99068313356364 11.033640635274246 1.805252005067775 0.8517321724526558 -0.25238411429751373
Ni 5.013151513025161 6.231970537961193 1.9884330057596975 1.3398998163765248 0.6797302560586358 -0.6652850271675833
Ni 7.355231610065423 4.265341798752104 11.453216955267429 -1.1576433121340322 -1.5858857404571784 -0.5467458585783939
Ni 5.55504907174532 3.8140329563974738 2.1079538243098863 -1.0383443825606826 0.113191788234347 -0.897744377516712
Ni 8.757271492073786 5.904140255574097 5.322068045475302 -1.5578218923414267 0.40229614077102976 -0.9021139673393173
Ni 5.055153171530741 4.0529464150619 8.455023024780909 0.06757630438807717 -1.1224929894851443 -0.5641787093428606
Ni 8.524859838131585 7.192742221764534 11.18557109270624 -1.1619244560078892 1.2086419146690863 0.7534952057559281
Ni 7.043739434116033 7.988925363170953 1.9109723619575885 -0.06437836627606977 -0.4928930744239962 0.08083394072893174
Ni 0.40640552128444457 0.38565640475732926 12.384320904123252 1.9225022796422115 -1.4386926555767223 -0.628778447601117
Ni 3.226985008027685 5.428254591369452 10.408952810538244 -1.4527753589220336 0.7925289226196222 -1.4027892568118938
Ni 5.8442400574974736 2.3946425440732293 10.545807440477889 0.4303918705659814 0.956652721817146 -0.01468074194062633
Ni 4.387585015822413 5.056778622711298 13.499534599639858 2.1231807380353174 0.5990089296481684 -0.2616974212786396
Ni 5.429174132323024 6.818860585359156 11.179970252352664 0.5949766685603237 -0.1528479691733884 -0.8754336298346537
Ni 8.708099271788836 0.4467204258792301 1.6578450293411306 -0.24672923000458158 0.879691119559427 0.4109296480763116
Ni 5.694540647914449 7.701842819807293 13.595170574128327 -1.5229389644213127 1.3777811648033305 -0.3380031351199147
Ni 3.206717953879261 9.510004001350813 13.160572298739064 -0.34872206419931556 -1.345213258169638 -0.7499553109234697
Ni 2.4676670993962877 6.942719965317562 8.061302524509527 -0.20809120591740934 -1.5877695877434528 0.5365833162230952
Ni 6.519591802287552 2.207149072469151 4.352191977402353 0.37250271155868103 -0.703252507550292 0.37331415171638294
Ni 7.038890945451746 6.6997753877253565 3.9023274645253037 -0.7676645552777747 0.669767488418969 0.1995453732299273
Ni 8.75976075445315 6.043065245903146 13.43729932483871 2.520145439291105 0.504863359411995 0.866444796072482
Ni 6.808643463652801 4.2813919681235415 3.989072685470751 1.033977878061871 2.2046764807179646 -0.08138364258481469
Ni 2.9395309329656123 4.593107063091978 1.5306836614130799 1.2453657524526809 -1.1373413673518864 1.9007098663574684
Ni 6.804723804234544 9.367986009632476 3.8650247531754007 0.8509605843939538 -1.1836176247106065 -0.14414915584780982
Ni 0.9097891753178746 7.890125796270498 5.976214618578464 -0.9013400652877702 -0.007718965910812513 0.7195373607532447
P 8.811180741513498 2.2509433714195737 3.912319809554119 -0.7060712079460099 -0.4519246024314346 0.07139002170721254
Ni 7.912213355741147 3.371752334314278 1.787208651411524 0.6147577078419929 -0.35186729469651656 -0.3019500981510993
P 7.168583373075234 3.3793037160845207 8.88887266379787 -0.4997962293017329 0.7811062826049774 -0.056657343482728224
Ni 9.149562524135522 7.463830325511519 8.711901898722092 0.27931796257388025 -1.3815843405995045 -0.9623428302233877
P 7.034413988485869 5.4485495103952575 1.5416949321247928 0.5923109488027024 0.40952505441930115 -0.3895408979878904
P 7.763201279800186 8.033917851848758 5.607521422341422 0.17359291503022362 -0.012236651275507958 -0.32412997668224824
P 2.4460625311335766 0.086754509237908 5.889917093329604 2.5818904817093857 -1.4338042171361696 -0.33829906909377866
Ni 0.8022010260914623 4.568474511487202 1.2454643495169604 -0.24410901877291508 -1.4443771075560092 -2.1320567003687088
