# total energy = -381170.275413852 ev
CRYSTAL
PRIMVEC
9.21177872773400 0.00000000000000 0.00000000000000
0.00000000000000 9.21177872773400 0.00000000000000
0.00000000000000 0.00000000000000 13.48236930889847
PRIMCOORD
 96 1
Ni 4.473018667514221 4.838367023636191 11.130154677271378 0.16069343335973613 0.004994625001113979 0.7338676613329878
Ni 5.755768067134514 7.034666943246599 12.32382894012778 0.7899776169526782 1.6347351578597136 -2.2495183196230033
Ni 7.484671545876747 6.201424710205155 0.715932994476947 -1.0092004140068749 1.1101321539269462 -0.49728349018220813
Ni -0.04251788589588167 5.139325046451068 1.8313780688435333 0.07207933446475329 1.027107890414915 0.6283758128460597
Ni 6.178874275879582 1.6417600519775577 1.2573055455963265 0.6801840557666028 -0.36676195242016185 0.9646316262575645
Ni 8.293511777068334 7.547330064783019 12.229870639460302 -0.2110214921903269 -0.724566695647036 0.36426489702992104
Ni 3.864488564757929 8.81358116870188 6.0371621142873595 1.296922027263418 0.1273153721199227 1.2386765133579636
Ni 5.6294930043342815 6.690938631798699 3.4438557186012653 -2.158192221113496 0.8215304520582948 -0.17003656513753299
Ni 5.214594490435654 9.032775443529097 2.5576862897015644 1.7700703149603192 -0.8839213555906905 1.8899410578767386
Ni 2.437952510975921 4.544419164433144 0.43152301096862994 -0.0941360571544766 0.23296380078937298 0.031113690685668997
Ni 3.6842969610640774 6.890778959518877 9.7055125651958 1.4838175729398189 0.5106324006852884 3.3210656712982156
Ni 4.559047469052838 3.478947989664694 1.2466981823913026 -0.4875194688169088 -1.329107610857027 -1.0455966932477219
Ni 1.0675161896460144 2.873531468118387 12.017968408673985 0.5399995409934958 -0.056156492586909745 -0.2739371578779411
Ni 3.08568794399759 9.135855247492811 9.761936552259117 1.0452128275457417 -0.8125477889437103 -1.2259778348443726
Ni 0.6163481393625484 0.10176988902862501 12.731819541158458 1.055216475725673 0.031669820299455136 -0.9541379258150922
Ni 8.149411922429875 1.5740074194348308 13.037127365888585 -1.456197497229705 0.055486463103078636 0.7916938283128365
Ni 2.8886479970106524 0.5227610733777989 11.931290176735061 -1.4223489241113763 -0.048062659835181744 0.9951112829036605
Ni 7.935201219894379 5.006417502966845 4.38197221010259 1.105019258180413 -1.6554903881291938 -0.9209454982235237
Ni 1.8701476819750866 3.0337795708666224 7.461278233797582 0.7171153815753133 -0.3515415359259817 0.10149429729176067
Ni 6.141188889104288 3.6271102387220995 9.879745069230658 -0.9788757948814044 0.6575737745662547 1.9507605031569566
Ni 2.7305278151485304 5.098977455623449 8.95083667174561 -1.2420778257300287 -2.2980831159055843 -0.412929709225476
Ni 7.943031231812981 3.2935425192109262 11.512392829690707 1.1397864864582694 -1.3573123554260171 -0.9530750317682167
Ni 3.430015021062795 5.45961859281553 4.252514477751916 0.4614052882283602 0.5894781073395977 1.0182121305871819
Ni 8.763644116218654 4.3655724804335465 7.558917561244677 -0.5828917123713316 -0.1353313004458637 1.5501152677257883
P 6.29856291688946 9.021159390553382 4.950051550109512 -0.1977016351529692 0.11794858619304202 -0.674945947296115
Ni 2.2701507496709157 8.580136272182807 0.6751939030533971 1.9964721462614583 -0.37669540948378993 0.6348961304630808
P 3.0212791871330427 2.734267797312004 5.411539556101695 -0.39046520957437264 -1.0638618101054969 -0.6291360880508521
Ni 7.182202791350516 3.8675745106317305 0.6904311062469967 1.406892737457306 -0.8864765179123766 -0.5260435930340359
P 2.770838558861239 3.5469677637905255 10.631954048337553 0.19122014119368358 0.3989269671884807 -0.9240056252060861
P 9.164872350485277 1.1531580964780646 11.039553148772297 -0.7079013191762131 0.37172109619765015 -1.6070541470046775
P 7.784174107652638 3.028418315647062 2.6315021150029074 0.34230844736348787 -0.7034687373261562 -0.30942712325443483
Ni 7.426010938938327 6.5249608026817905 8.141005253162914 1.0120214283954376 0.1770371648250822 -1.1969354248654354
Ni 3.1002149190512784 7.929471493525708 3.824516814502402 0.5579234724617682 1.143974556397688 -1.3052243764815263
Ni 1.995013342629969 7.6415941965042595 5.74369142522241 -2.415476086705472 -0.9129434538546536 -1.062298579383435
Ni 4.199898640014656 5.6305339353305195 1.9514646586944504 -0.06051682643813448 0.5233233658893954 -0.03571802222689978
Ni 7.771793477042519 6.9167930226460905 3.0033051644794235 1.633106364007039 -1.062744151561286 -0.47444669479335067
Ni 4.525203394007021 1.1543924748275856 4.378992199684157 -1.6232757510698625 -1.293846730772204 0.33602055747224713
Ni 0.4846491812474082 1.1536371089719086 2.037630715736111 0.44696340177141736 -0.6379626852035465 -2.563612509335804
Ni 2.035084580095756 6.59216994027958 2.1856133351083247 -0.014657344901858629 0.043291463698783506 -1.707246180545247
Ni 9.426044700974929 5.093524082616611 12.962448396920452 -1.3990585861248679 -0.14483101240618282 -1.1294233980563904
Ni 5.131614787655928 0.15584855722785435 12.831049742791835 -0.5377840213994157 0.4970608326484407 0.860540257662589
Ni 4.068787393382347 2.780179302491195 8.615516871920414 0.21281303687311093 -0.4616364304025598 1.8276486275954202
Ni 0.3208932331596386 3.1293241398310223 0.7931378331722355 0.6544977067440922 -0.6271686799118361 0.22132338833696721
Ni 5.096213922005119 7.250848966429836 7.911629199307896 0.6480534937806451 0.20475622800690543 -0.43051219819392955
Ni 5.860303332137214 2.748067041846199 12.713752479539687 -0.5198909431690787 -0.04429625081421403 -1.5803519551231426
Ni 3.973869225371435 4.036868580090633 6.775996511859408 1.1713912578477441 1.109743917349592 -0.5024542357498702
Ni 5.362102703203388 2.0256977775721614 6.5254536328437265 -0.36798065531861146 -0.23221740954165168 0.4982576811700193
Ni 6.834200214572931 6.802870955119795 5.293474951681523 -0.9411535977402823 0.8909299256980399 2.1012260881410976
Ni 0.16053182553305112 3.3849049406329197 9.496158312405584 0.0631195541683042 -0.5121516655432922 0.997545603376766
Ni 1.9909693717684793 1.27673410811106 3.6606116355992424 1.748611630865911 0.13767640363927258 2.072211188965986
Ni 7.238836806968827 9.35557459370751 8.354862223395264 0.00310049330219466 -0.9120841911781518 0.3632662805620776
Ni 6.110264947915173 6.070930652747608 9.91618870823345 -0.33617122411749845 1.0383214997425472 -0.23322965285624994
Ni 1.8486842375393895 1.80705620946861 9.750746083460626 0.021793698836323757 0.04911886901383799 0.5081988515431312
Ni 0.22111769422557512 1.4513249503384291 8.08490459953294 -1.2121740961920606 -0.1975571391553049 0.6915167071706027
Ni 4.691319399804845 1.3628734509944098 10.882537459179636 1.030966859149689 0.9537350339497187 -1.5692239635307812
Ni 5.860413873481947 4.377345133647633 5.062643436787518 -1.317230399803467 0.809451923627206 1.20325493932556
P 7.017901505962062 8.974630696199432 0.25591334601396964 0.8448593565922224 -1.0119327253363732 0.42142823361479037
Ni 1.2811926090152992 7.853879637285651 10.542390687301092 0.36159506350724174 -0.6272578971915326 0.9227527266355914
P 0.557285898871597 6.271001274935981 8.449845795035142 0.45032923291985666 -1.1868225048011496 0.18614195533982783
Ni 5.408870903804261 5.185476057877182 -0.043043878461237174 -1.5102294872744442 -0.46502565858976685 0.6801604016175189
P 5.338879809030686 8.404025486465356 10.125515325687484 -0.0404640215523174 -0.26952411641191004 -0.23004868402510703
P 1.1950993250255881 6.910059212396094 12.837453771363379 0.8648738520409363 1.8030133455452433 0.37331929392270546
P 0.7166902026883694 7.952077198523648 3.3261678759310587 0.21863555709215896 0.7574212802832117 0.01214537711328231
Ni 9.261245979535177 8.077292906770186 1.1017241299515772 -1.576561377732459 -1.3694078531379705 0.9158732259069388
Ni 6.970930646229178 5.13247148307761 11.821448927185166 0.2954801741560395 0.872715459572542 0.2525548355474231
Ni 5.227675216229082 7.511542304425644 0.9844701620594487 -0.0020232010776158704 -0.3068449643495554 -0.11346149695596588
Ni 8.93614388467482 6.039785628869027 6.130918677000699 0.9582401209089241 0.9478405228421548 0.3555812532129941
Ni 3.6174102357217603 1.0678570254589417 1.892843662404559 -0.9249384214330006 1.3907968603367078 -0.8425299371280973
Ni 0.9798108443789441 0.774914171315094 6.022964920912124 2.210116677896929 0.10736823957403445 -0.5807432985697611
Ni 0.22152669720108797 3.189891584966091 5.783882415811658 -0.018186441101039647 -0.1126315448555028 -1.2580155800062076
Ni 6.205413410394279 4.50978287641674 7.688658095202293 -0.4093054822093274 -0.0020525116536545297 -0.4074951684734659
Ni 3.475640961101425 7.492639734476266 12.354232415818776 -0.5448496699969455 -0.5472847618009994 -0.16496814947569008
Ni 6.945506136940541 0.25429852120299207 11.111197757827505 0.6791643562528369 0.5380871544621314 0.16472286623410343
Ni 0.9406699965646618 5.828789837109523 4.024149877201206 -0.1093670151716181 -0.07194846531384382 1.4398805052372363
Ni 7.857048489168003 1.0387109575642868 6.198734870816648 -0.8263111612763899 -1.012679630804727 0.43143419578756664
Ni 2.240286163035495 5.614367263663289 11.427278757779758 -0.6677815683371919 -0.6093013127131118 -0.48009078045300546
Ni 6.534642382124674 2.2042865317673814 4.340972425341044 1.2359370029396135 -0.44870532416318853 -1.2520215672063018
Ni 3.511640592369539 2.734166467745999 12.471758131183373 0.19913965315107637 0.7506479661151201 0.9459996129786739
Ni 7.905797222195346 -0.07835078396902279 2.9101694756523346 -1.8914145570984717 0.10858668536216781 -0.21937012126533834
Ni 8.987204774162834 5.506709205671875 10.328708740864569 -0.11648280028079294 0.5805257832423163 0.39240305002703385
Ni 4.3198083637139995 3.2019682268781935 3.466533275473282 -0.7918013004249783 0.5559938595392231 0.6765546865441315
Ni 7.25805257739495 2.4251481385443245 8.5774565657509 0.6495696733148555 -0.6462663199732354 -1.8321174620000513
Ni 8.810495222828077 8.203964076055712 5.290710496885319 -0.18453270187117896 0.522118804058333 -1.42050107226936
Ni 2.5523904381109714 7.210685611176771 7.821500235057551 -0.5453088690215512 0.3670082641030131 0.04528304020751556
Ni 8.935480636606421 1.434762172185904 4.101431173659935 -0.6390680024525832 0.9244429698538208 1.5769336734702133
Ni 6.271268416519085 4.574339021740931 2.697767966458972 -0.16369365363864063 0.21546101601891923 -0.04673957014838402
Ni 0.09049375068796534 8.205769584686353 7.767583694163929 0.0679246888664314 0.39789106972479865 -1.1319050268276634
Ni 2.0825252405437564 5.144612607440807 6.349939770387835 -1.4672249586884603 1.0589823705260086 -0.19664594019494522
P 2.538701734921509 4.30214938389287 2.6092971223796253 -0.7937113729634976 -0.04129448787341276 -0.4193698084238649
Ni 4.9459882345126935 0.4997224147796534 8.319902601945515 -0.5345845406255115 0.11229858699611628 0.06657074594169825
P 4.439064051123672 6.25367391914905 6.163344138122439 -0.050336029250390726 -0.5395953635765416 -0.72602219714664
Ni 0.5563158985715632 3.498108489418449 3.3570558911831343 1.1316070359712704 -0.5880521735263485 0.016865922517403212
P 1.9919918792072615 0.17370743264737637 7.90157177929292 0.6534474111027069 0.21690083378923936 -0.23881280337098226
P 2.096775862235612 1.6105781809840662 0.3123962884611462 -0.39268818536762046 0.1555334864253515 0.451017517236133
P 7.243479543447623 3.0326925809767458 6.301928900836585 0.33396290361227 2.220725563761027 0.47883608211029793
Ni 8.288436086989336 7.852387329131753 9.899308123714817 -0.728875350324719 0.07045465437713673 0.02389814677383626
