# total energy = -340867.10561947507 ev
CRYSTAL
PRIMVEC
9.26465266415804 0.00000000000000 0.00000000000000

0.00000000000000 9.26465266415804 0.00000000000000

0.00000000000000 0.00000000000000 13.55975565943486

PRIMCOORD
 96 1
Ni 2.8964175841354383 1.0003230626338129 6.61952011324564 -0.08764839254760388 0.4010614970329802 -0.9231715593405649
Ni 4.882536734240894 9.139737216874014 10.592623732002563 0.8612033451678845 -0.7671955860611561 -0.6939428001135919
Ni 1.1273136548199505 8.40111279416738 -0.011745726473596375 0.19106664633495482 0.6635659875939475 -1.1967364214807519
Ni 2.0870390100809133 6.489527773640788 3.559056106212245 -1.207744085445165 -0.20537072166245277 -0.6456492552145268
Ni 2.065267076642712 5.969122976552618 11.656060387045336 -0.06614240015502802 -0.0018056857501710837 1.267716095123423
Ni 1.6616710186136232 4.6304270096790505 2.329037292874904 -1.4152393096497884 -0.5302481180336868 -0.03799859073096037
Ni 5.582592408478068 0.3967207593888808 8.47231164883656 -0.48933980985509923 1.754134360456353 -0.4579597528819209
Ni 7.193715482904956 5.12258388121272 8.490522249843425 0.01497436192164518 -0.3659276294443246 -0.27772413572419913
Ni 3.4241692506774353 8.74501669596569 12.360246243378999 -1.2516510712407605 -0.3437351525076854 0.1909882276885356
Ni 5.297787725148815 2.849770058662526 0.18512628679239848 0.6503440895870347 -0.49210246020190085 1.1436454551930435
Ni 7.936156942452671 0.8635082329081565 9.562597266902275 -0.36758676231430243 0.11993193517165796 0.9573512905460673
Ni 4.191504831564915 5.7256849667559475 2.9833765392181193 0.8157562685786789 0.2076734016537004 -0.36690799107972294
Ni 3.5485194168934084 6.054302191884882 5.4459637982682025 -0.10624878125761059 -1.5995046167921936 -0.39342300665111596
Ni 5.085793946028424 6.475176826876629 11.461993710564485 -0.917037421418369 1.002170503743287 0.41807808619563486
Ni 8.240408131435874 9.104670507059721 13.373932640817605 -0.8605826808647502 -0.9392383829954404 -1.5321910791472
Ni 3.2057828613134873 8.852709016938308 8.342327647418985 0.0974869759045805 -0.36283022146592353 0.5653069094100328
Ni 3.228749934927657 4.338312515506079 0.6961348732877926 0.9699178143571683 0.6014787313448996 -0.9815124611733033
Ni 0.71439179755729 2.3361840458341505 10.952079279532517 -0.5447234288317263 -0.5723489038584788 -2.3370358430196974
Ni 5.855075103946551 2.403047043120745 10.208163813767774 -0.6765842542304863 -0.4362421586991712 -0.4729947928381725
Ni 4.667124298338078 8.15004071068855 6.061427636143317 -1.2099806880851676 0.002726140681911434 -0.03058790008918603
Ni 1.0593481638826554 1.1268967454562404 8.628140324943162 0.7907695167263542 1.1197573357215362 2.535485926302917
Ni 8.654463982167828 5.77358322031999 1.3481811181306014 -0.03814334383894076 -1.5775024014894896 0.038196308564063246
Ni 0.17511860913284744 0.8591065964926291 1.4365473739321175 1.6290926148619553 1.8861972745635902 0.5493439583228732
Ni 7.891816315458956 3.255339487679844 4.650670275450314 0.5724620323975754 -0.6677229471851146 -0.590400362043551
P 6.885045054666426 3.8593485091707067 6.414835218503715 -0.012535927683481636 1.1117766315089046 -0.10067668648647178
P 7.988020467298225 1.3538251444499851 3.0734678733201433 1.3613032217529653 -1.008321096725715 0.9515940763473161
P 5.033874833267709 6.116588450823191 8.901057532615157 0.7383652920930253 0.7096378422513455 0.42152876374839665
P 8.953193438245002 4.638172259191535 3.2787892496906657 -0.1407830675890543 0.596193057465928 0.7192152015271356
P 7.270195189514467 7.36110922476088 1.2710834591975464 -2.183227823925885 1.9366795995838582 -0.36122508176233276
P 0.08984489434480851 6.502081377814729 12.940942619716438 2.248631803252992 -0.17055824196895789 -0.5904055042498736
P 3.633828337361049 1.9633558988468767 9.157716201567705 0.16782027421250453 -1.1452531659997953 -0.7428575235364239
P 4.821102823335059 3.693816962472689 2.436485027020811 1.1428383859107154 0.11449250932364152 -0.3031240638545425
Ni 3.848249455443487 1.8199390777305557 11.505601503543323 -0.3068909870961424 -0.5175381266661861 0.08547323927315602
Ni 8.69221744121492 5.143299644262856 10.650116459723456 2.2449517832982435 -0.2036768788997976 -1.6211880153028984
Ni 0.6699418476637575 6.829688755818233 5.674419011998379 0.4321674744091654 -0.32236002926601903 -0.9895443303388441
Ni 5.3342348681896175 3.959814401172346 4.9755899777557655 -0.5703763535131403 -0.05494164634320215 -1.0591878016685952
Ni 0.8889156159979109 8.85810104470896 7.213125856414052 0.46262604800933865 -2.4216724453241714 -2.6743056995180137
Ni 1.268868280778366 4.418794552007208 5.329431145854422 -1.2410213594410562 0.2417806277500546 -1.0825485878817227
Ni 4.526153345488857 2.8643526217398576 7.183551232617702 -0.18291573509304626 -0.6809736415474337 -0.25253580938402964
Ni 6.698881126791014 4.794754151548572 2.8267344266196566 -0.3613667495465196 -0.09167294032596471 0.23596453528890973
Ni 3.1873276734799134 3.6785858737184753 3.845872145605086 -0.9090883417746214 -0.5422235452280081 0.5417450629296928
Ni 3.463303142951036 2.135632112584473 1.9572690221367073 0.08419000168535823 -0.09655032302292405 -0.0993476832624031
Ni 6.349177552510869 8.195548683900652 3.3869290533803316 0.5367640647753337 0.1668165155383385 -0.3570074441365593
Ni 5.836073301613891 5.934139648611066 0.6719865564764429 0.5738126328881988 -3.3943991898850445 -1.247907287927612
Ni 5.654245231121068 8.206203034306583 13.198577783045321 1.7136880795158485 -0.6659895094337757 -1.582544334788771
Ni 6.6193255555425745 2.4936924034438777 7.81020213841904 1.9035637908664957 -1.5355689944804973 2.4190406641282793
Ni 2.8140455585188224 5.872807648883026 8.48443352020275 0.39764578648321197 1.0605018924943286 -1.3573930880652816
Ni 3.8677052257499644 8.547985330676234 3.448679815402586 1.451616819837558 0.8556610751934166 -0.16190827960344373
Ni 8.012692236977344 0.4362057819932509 7.2265901759313875 0.08502818131593742 1.186165845053757 1.5726818401723948
Ni 2.922173318160204 9.321630139934529 1.1892284011919314 -1.1656181028093926 -0.9687356211236091 0.37239421100527476
Ni 4.300568321111513 4.10969794975244 9.246966305220287 0.06120871029883651 -0.09290398451958838 0.6955834210408085
Ni 7.900645529317086 6.521398178333304 4.231525351085339 0.4337438177573498 -0.4430314137068628 0.5541341806226651
Ni 8.372392371334008 2.447554433859944 12.750224188658807 -1.1723158265445421 -0.9333973508336313 0.07551561383981187
Ni 8.062239598691173 7.485274097926315 9.153838018019947 1.5730831893758714 -0.2937580492586102 1.330986573047295
Ni 9.25358126712449 8.377765869799607 11.440297747277004 -2.4156570923680265 -1.4430761293563985 -0.010015989475105331
Ni 6.376508277465207 7.739338664171333 7.849349001206179 -1.1443435097013324 -1.3234660963005338 -1.3461997904526235
P 1.4624995185904532 2.7564750077167024 1.1503177870442287 -0.3371130192054775 -0.3504256771539836 -0.3938714070424442
P 6.997119556284263 8.262356093272087 10.960228467895174 -0.777580528839906 0.6636138101127473 0.3904104450770373
P 1.6259187245123388 8.558926885310495 2.7921837579511104 0.9578899366583568 0.368413629090972 -0.10998099460653316
P 3.7910772847000236 6.571723770859393 13.451114608088655 -0.559656653102791 -0.008593140985649715 -0.7045234038429158
P 1.6635888016866904 -0.13125881760527794 10.660191769346453 2.7325699824765453 2.906847068057987 0.8389915849575357
P 5.574708189177681 6.498671985684832 4.5794547444065845 0.3718337105161145 0.40853543681252225 -0.6561522116283796
P 2.4336389257645497 7.2460329757243285 6.77723321967621 0.7807368150807006 1.4743134901041255 1.8086682298381755
P 4.6126852000900485 0.9796628874988389 5.219488440783023 0.11287220011139915 -0.3472038277825762 -0.29217373549062586
Ni 2.0873725375718815 3.107855484104216 7.705357771633191 1.0497747358848115 -0.24877582812096508 -0.33500471461322306
Ni 0.002759013522509071 3.263297824200446 8.590851024987666 -1.4514514979042872 0.7854799861926407 -0.8244473685947736
Ni 8.87047862048489 8.10562596647462 2.393296922801442 -0.2964265972297088 -0.40720977602256314 0.9413690561851982
Ni 6.4588710384292956 4.888521699773268 10.637682369567113 -1.348554149617413 -1.6098342808529758 -0.8472186008530183
Ni 0.6345656984550649 4.113283370280348 12.413752391117571 0.7897747569132528 1.173425000448321 1.7065023604006868
Ni 0.8320899432589531 2.65631484924845 3.441533988908593 -1.2466461618270013 -0.34730795746060833 -0.4970389782715698
Ni 8.15009629860371 3.0008765413761695 1.599644169946067 0.20946546055711668 0.7993474882033524 0.2509401827621356
Ni 6.784931219460808 0.5440880283426696 1.2848461005262475 -0.7181142551534728 0.15305545719850414 0.9002596877393979
Ni 6.228218249119739 1.0370852038605287 12.111044693245349 0.794925962096889 0.25593840730767536 0.6875394676904094
Ni 7.400530321262814 6.158260857889162 12.200484722274732 -0.36556947477395746 1.4084580250618968 1.7299328235094853
Ni 8.576047963180196 5.172242418756873 6.559206298830307 0.12410972069843142 0.24568510501078333 0.4359811917283007
Ni 6.688708538316485 -0.03725965306741011 5.562577979624218 -3.1240042408324067 0.32963085189581937 -0.5345986816928987
Ni 5.93278700934214 1.5166792065677301 3.2965393974669417 -1.9864862386933404 0.9337611619309532 1.189724766049609
Ni 1.2200528266141608 7.6498328561090085 9.33430511105657 -0.0401356916786212 0.48728421287765117 -0.9543104468372146
Ni 4.813913452974188 7.588111740974839 1.6342893380703876 -1.184540136524876 1.3805386729438094 0.7441657008248862
Ni 1.7612104453625737 6.557530323188191 1.019512010947516 1.2431854569719105 -0.7215980999370152 0.17824301220772526
Ni 2.253432169463932 8.287074186213841 4.848263078682901 -0.6760000995922423 1.7006754693062647 2.776313446111083
Ni 1.883698416420641 4.335264444824731 9.801805036355166 -1.0299502449597167 -0.5565623304481834 0.6341376550305013
Ni 5.768895306141381 5.727991865235144 6.608604499638453 -0.37189953075704335 0.36352724753294813 0.4109309336278923
Ni 2.508562170749542 1.2760947097493434 4.192378488298201 0.8844242633690381 -0.05042601786103573 -0.27209444824224754
Ni 1.6653120270566926 1.4986965160130286 12.79314083855914 0.33221301080069887 -0.22398885098427232 1.340032999520279
Ni 3.276407307526001 7.392516396827052 10.257846439408496 1.2295385556124372 0.36638477158640126 0.26919707208979443
Ni 8.723976670077114 9.181076096449017 4.873105317968516 2.505819509586736 0.18208192633784123 -1.487637203796225
Ni 4.659694047011509 4.015393051681184 11.884501703796722 0.26778013713760984 1.1611526108388712 0.08182021590160103
P 2.631448521866266 3.6060529090854208 11.65025700870249 -1.1437835234328044 0.1114794335289306 0.6648474254095325
P 0.5211385575683001 5.85257364776429 8.73427247843025 -1.9225660430006115 -2.9366258419823166 -0.8220179332176746
P 0.22096844802319376 1.9470593750520702 6.454782547269177 0.6064214200621555 -0.1658783199947853 0.4922384715591329
P 3.1297756519828472 3.880564563457294 6.013100429167278 1.0747802567902134 0.4475403573208099 -0.7874759335767471
P 7.118060330370339 4.109392216219052 13.459142429503208 0.05340901174875963 0.12385852391957379 -0.28246473573297803
P 7.828140358641613 3.0892427971776857 10.114831704211841 0.176101026164058 -0.04399260353086617 0.9905434610273198
P 4.766997252577997 0.7000473360499 0.4636977119015565 0.2521743122795528 1.1114683562398664 -0.5409675613337199
P 8.230467159274516 7.5744463784976706 6.572291694059292 -1.1306531566984335 0.14936746682395563 0.11537774014207228
