# total energy = -340856.88305726455 ev
CRYSTAL
PRIMVEC
9.43498208162069 0.00000000000000 0.00000000000000
0.00000000000000 9.43498208162069 0.00000000000000
0.00000000000000 0.00000000000000 13.80904997905876
PRIMCOORD
 96 1
Ni 4.066722538605588 1.1317732622125656 6.94726404797035 -0.7504582187018173 -0.3931360715383165 1.0361504602331575
Ni 1.3182934207776957 3.3275483111471136 10.574100365686352 0.02544775064914327 -1.1089998400947159 -0.5656740629414645
Ni 7.726684134520099 0.33805068649447806 10.14737311415034 2.2327128180298903 1.785642972587596 -1.159926451741254
Ni 7.74604471752256 3.0331391337549176 3.9651860931389296 -1.1375781659530408 1.0763691985438884 -3.297288109262644
Ni 6.614460154949394 6.658304516164031 12.782872102284589 -0.14909698677138836 0.2005707291706481 -2.6629496510752464
Ni 6.474822421793244 1.3895369696332422 6.522138856372845 2.152674119508744 -0.4192831622473295 0.7264032346351426
Ni 5.122997075094132 8.386198809205776 0.5274494580586585 -0.1535935890901613 0.8381832301236275 0.0031755695145042084
Ni 2.403382392202651 0.14727818155546418 13.391450139808773 -1.1500963530247097 0.30361205923455453 0.4753357822665233
Ni 2.4850893360629387 3.8080813778616998 1.2817696620735897 -0.5845102218113611 -1.0331039600973497 2.2834669086543062
Ni 6.132058961804745 1.4900572675417305 3.196698320197831 -1.8537185852095945 -0.7245435557185844 0.5752113130079383
Ni 6.01543314967345 0.21039066294925596 11.886678074386616 -2.312099227679018 1.711997064966671 -0.01775192466678233
Ni 8.364941794827345 3.1828251227091284 9.52647676416611 -1.0034933363197684 -0.6706295793089482 2.8388655578116917
Ni 2.8764995630888093 2.6049419120279778 8.24119917579607 -1.510502538430173 0.6045841097431007 0.5935671898073068
Ni 1.418908068505884 0.5438097167946561 6.0043819552919775 0.11332162894399193 0.6070176588852577 -0.3825780935168121
Ni 3.4874335156109058 3.5162951254571664 5.738115442119927 1.490544093030375 -2.8158536702975505 4.229367255505484
Ni 7.590810959169983 1.7123548777371391 1.4303687411048553 1.8773351961872697 -4.479767763714066 0.8554188772756236
Ni 0.5430341612767212 8.932493700251333 11.3661048311877 -2.637176398765884 2.834519107917538 0.5109684438684684
Ni 2.5449826016085635 4.816501685798353 4.378007124749344 -0.40079204542167746 2.2970698441497213 -1.9001910177395211
Ni 0.8111112474888161 6.778817540866971 4.0353078226382415 -1.8534085101683437 1.208163689481087 -0.44609616867511553
Ni 1.1899399260576782 1.7231862370387105 0.9774546971110798 -0.36305210766874246 -0.4393789045559401 1.9304387608804687
Ni 3.574310829590759 3.011099015872974 13.204945077214795 0.8915097094609097 -0.6893451534405806 -0.3797961598963007
Ni 8.599184092196785 2.4566900403332084 5.696440183260196 2.2930285842008127 -0.8173773491218698 4.179714882585679
Ni 6.590382080961929 5.162991963665005 3.911413300397251 1.61039452423182 1.381191218926144 -1.7725781689838376
Ni 7.8981838017889725 7.273314380897172 9.517514474792796 0.08713031526060477 1.0608060539983084 -1.8101566414582437
P 1.0787297935771687 8.06276762727383 6.981372451290134 -0.5615009054003813 -0.21604594198811178 1.329035877078827
P 4.014216863942481 6.5393482634861435 4.163718870748276 0.5178836829310629 0.22038956366878815 0.3479841575920265
P 7.001228370846019 9.020040897951057 2.185365433327036 0.24047090779969554 0.4575429770594765 -0.6141745816450133
P 4.72090644847821 1.942370303184016 1.3917315464394666 -0.49856107134305094 0.8895474435282164 0.6206015682172795
P 5.118100319451697 4.041757576312941 4.826263118144525 0.5927842888946951 -0.07004019254753745 -1.4321512549137785
P 6.7249626637821525 8.451337924726728 5.408466607069744 0.10112508687780003 -0.025363932686085347 0.8967200500172557
P 3.976599590828051 8.531318266886503 12.458731409708497 0.8788961344619572 0.015194962572883509 -0.21927884710311268
P 1.272665847970727 8.922785103804193 3.540889292958392 -0.9451490920529205 0.8272583556810075 1.3731706626145124
Ni 2.727511762800379 7.12368500183478 13.631189257673942 0.05613952330604525 -0.724502418068004 0.569456155691716
Ni 6.641557423167264 3.551553653079094 1.6411500123076694 -0.7760579215477925 2.5914999797746914 0.4260369360313953
Ni 3.052820506144359 7.012701308921551 7.744460584049794 -1.1496615794801361 0.5623617107387798 0.833625692659932
Ni 7.072320959990045 7.059612039276441 0.9642627053206115 0.999177482553234 0.4640126439442202 3.0483161059704726
Ni 3.1441888715419366 5.231857897064109 9.756853549422438 -1.4848195318417718 0.6687007377173516 -1.5514126463809734
Ni 3.7041078765521886 1.1381890499521725 11.421243809318636 -0.40761832431489153 0.10154854756846382 0.014628034325819968
Ni 9.140572792617936 6.221021406799971 7.142744608912398 0.5230798824200218 0.10575615789190818 -0.313046465174577
Ni 8.706601361925351 0.0118239194048167 7.424476944529689 -0.7067759473225182 -1.068443515938908 -0.11274441628428324
Ni 6.106235416152828 3.7891736739937993 8.577394944835243 -0.04844292599273592 0.26437831054491245 -1.3378586175767797
Ni 2.321505618666903 7.163038311631693 5.446510341369219 1.3740288968497496 0.29550151431227817 1.4955232914125212
Ni 5.041271261269904 6.382114288955925 8.88642740078276 0.9840930774162857 -0.012286016456204647 -0.3800069903555262
Ni 5.865133886891189 2.0252188798626753 13.442654730458214 0.1332466500026931 -0.6302144087166953 -0.5171786864442384
Ni 7.492102177799737 -0.17941467364351568 13.45871401326937 0.8281620984421995 -0.24403291411934103 1.6979495857346696
Ni 5.217111020244983 4.727199581452206 10.601649569540584 1.7866878689123424 -0.6568610647699461 0.945921451442571
Ni 1.1051005681833468 5.553194512998714 0.6048304626856966 0.9277046713242281 -1.3397290951266152 -1.5740216420297408
Ni 5.665961417504276 2.3459422219692296 10.391558939017976 0.0602975113384768 -0.9468200519974405 0.6025274843243881
Ni 7.5327763850724505 5.602256419242767 10.815785920331935 -0.13085758094522626 -2.035206586717179 0.742321962747928
Ni 8.089732805744118 6.81571775535168 4.8877820310835824 -0.7632630837759694 0.3470256503334991 0.27687361479844574
Ni 5.218026213496074 7.854396050466155 10.777176087114258 0.8254963786845784 -0.06911665229200355 -1.7322432168102164
Ni 2.2949838843492048 8.243221092432243 1.8757112120676975 1.056502027306316 0.2606406978793511 -0.9603869920485977
Ni 8.10940474315159 2.771205164303496 13.41760485332784 1.29571052345382 0.2876696769726852 -2.0714218602954713
Ni 2.589260971993821 4.874206035526935 11.895115778762394 -1.8763926297683426 -0.22703560823039606 2.5956625957928137
Ni 4.43232808994348 8.33281568121946 6.119894439550812 1.0445728799688978 0.15373011466802555 -0.417274616457733
Ni 2.1216915705060284 7.542692551122931 11.300677005218468 2.508338676464164 -1.877629073278605 0.48942954135542804
P 8.187016904836893 4.13437135933056 7.755590088781618 0.5374279236115777 1.0354524057248684 -1.9738526090897297
P 3.765086165024364 5.125770959793315 14.148476296652703 0.6397681138434014 1.1078562134085759 -1.4437842111670167
P 0.2498034131325793 2.4546426492457165 3.1532823071646328 -0.2046443850193895 -0.9673811639782437 0.0857941129476845
P 3.6764256394521784 8.36111119214752 9.388496757342091 -0.3781475685492842 -0.10274308209719725 -0.7070811372677629
P 4.9860388768174655 1.1365096231615106 5.142986971393992 -1.5000427765494295 -0.6949501583321838 -2.735364000281915
P 6.907020075875468 3.364127736244843 11.815768523892807 -0.01946170826903745 1.4822337733924666 -0.5700153706292957
P 3.9345950510975656 4.331779487089082 7.957893085186181 1.4942590799881168 1.8536797615518592 -0.747282649187313
P 0.6817425487088252 1.2071682031349165 9.999506189719947 -0.2692384668506912 0.08192794512405892 1.1158788266027362
Ni 1.9226983657765448 4.919182594577973 6.768974967675856 -0.12859038217760432 0.7018653973947784 0.6437903476289171
Ni 0.02561503255038051 4.772091225665515 5.048215407999832 0.04568798895541809 -0.8309756566315947 0.1931998906278737
Ni 7.003087062294111 7.069820689767993 7.2638643029560095 -0.9249859868414844 0.1252392063171843 -1.1286155574431143
Ni 9.015276232056202 5.030836171211073 12.780786971269217 -0.4737082739654294 -0.2967415573669664 -1.1904747568417562
Ni 3.596266032634972 8.74205802416865 3.8972315789981287 0.010370801711362785 0.13307592875278373 0.49821602929880643
Ni 1.2356901536302571 3.0241192909915875 12.9816671723927 -0.9299369030888566 0.7991492561496172 -0.47420886775093174
Ni 4.2893220682240365 6.267667957659702 11.977044444698977 0.4426809723459796 0.08522127116335002 1.942347596502913
Ni 0.8258703897845029 7.623984355776538 9.401463253063476 0.048437012455464966 -0.6925479766485944 -1.8900364458040224
Ni 0.7570733317537801 4.972754422203691 8.894187673453093 -0.7880184363437783 -0.23895755647896263 -0.4477203345420999
Ni 5.766528890322613 4.414845068353051 13.508730739688787 0.06719963777494878 1.298311194301461 -0.8143678728715846
Ni 6.648595919716891 4.300955400993059 6.084391545895861 2.732786469362726 -0.13285044300553894 2.0276920235076887
Ni 4.695073467844322 4.054589151792155 2.7886683724317884 -1.6275183283963002 -0.4654282933448242 -1.0223917158861684
Ni 5.788257653799546 7.544249323147982 3.3344433959707973 1.3462632967007073 0.6867964188767979 0.6591254353240906
Ni 0.23288932095494214 1.9817519179268386 8.120053063802942 1.2604930950124227 0.6875057862389967 -1.9239739790917314
Ni 2.2382890776914137 0.4175998499782245 8.60100787421159 -0.4342572670586586 -1.5143733342394887 -0.05433975109314512
Ni 8.226332474705925 0.337942184201823 4.006143349870744 0.44314274247374646 -0.25402293545251736 0.0801410284269652
Ni 4.285029151427683 6.590004681683127 1.892916845188208 -0.6017504969490475 -0.7154955865837033 -0.18528089289111316
Ni 5.598322031761273 8.814877215013187 8.161299974481235 0.05595286121653589 0.43555978792016603 0.726284192558775
Ni 9.290221041644267 7.488648974398713 13.218519185775047 -0.02320369180997294 -0.05949095627678141 -0.31489843078165125
Ni 0.27218224686724635 7.182597029255524 1.7099329178654377 -2.1459884799584525 1.3572714748857528 1.1950263807681807
Ni 4.726652352497947 5.89287273388302 6.475118680227102 -0.07088300016380696 -1.0313139580764625 -0.9880001257801758
Ni 9.096058547683429 3.6516022018890815 1.4742546162401604 1.0900448962587679 1.3343452051068827 0.2503084627154076
Ni 3.103769408782413 1.0613033818785598 2.5051830171644696 0.33097656729043645 0.5301928393157191 -1.4380416522562849
Ni 2.227231278822562 2.4996758181885745 4.073448737252008 -0.33400404126285055 -0.7870362749361671 -1.451984744699938
P 0.11617198949853777 0.31910712969509175 13.67740840385043 0.5224250224448421 -0.4601642167324075 -0.9650674282434025
P 1.4858115256552258 2.934090693033751 5.9563956369925055 -3.1723088414750658 -0.8167800818575031 1.783991810137418
P 3.578311261946043 3.276797543130429 10.767068390929786 -0.13904397341076055 -1.2207417832564138 0.3229621816263922
P 8.12015118761543 5.540428982393291 2.106971111636419 -0.8771277297076249 -0.17147149781184662 0.5655113121113551
P 6.612129714402802 1.3218975838902398 8.7402172591863 -0.7299421010263364 0.9066671339276385 -1.891365191917775
P 1.4201817910718353 5.40906572842484 2.722440459991499 -0.17757118295168128 -1.5817933155553598 -1.946246674447003
P 0.7350407618574124 5.668942871806799 10.872734528004719 -0.42791049890502436 0.6883146552935371 1.065054030641385
P 7.43060496531921 8.210576054816007 11.356410387213515 1.0105476720633888 -2.983146611251675 2.2333887610509926
