# total energy = -340864.099294765 ev
CRYSTAL
PRIMVEC
9.35747739978700 0.00000000000000 0.00000000000000
0.00000000000000 9.35747739978700 0.00000000000000
0.00000000000000 0.00000000000000 13.69561404289917
PRIMCOORD
 96 1
Ni 5.530091479997934 5.022270527161874 13.408033982138637 -0.10001565586370517 1.6443138026870843 0.6307857078391329
Ni 8.76467205316006 5.319454658823052 9.871469827045203 -0.3215035948029947 0.6306507249231654 0.6610020835215132
Ni 6.490206113486504 9.5079458578132 9.164119378966495 -0.47069236995724095 -0.6467172914677249 0.4930897638158346
Ni 1.0738079865438703 9.226454216116938 1.3954329139947714 -1.086052744380239 -1.4727258339020313 -0.10235355996826243
Ni 1.285595777465733 1.6608867748020215 13.37536983501846 0.08257329201754167 0.7683618384551155 0.06260790463920832
Ni 8.45428452058028 7.492934700046171 6.733668030396588 -0.2212197728795674 -0.7500021050010051 0.08439826104142238
Ni 8.33467724167058 6.239921659645341 2.762555715204892 -0.5437631218009861 -0.2862799957140102 -0.16672524137611286
Ni 4.116756775572703 2.464712817119427 7.688964498659793 -0.03601241353886701 -0.881980429814236 0.19405092577425936
Ni 0.44592591713365 1.9976062493980673 1.9315611723721975 -1.8050833407003943 1.2379098103952682 -0.5470924432845352
Ni -0.043590873734388046 2.1235953280430526 6.4769708971440005 1.9151301555478566 2.481136405017759 1.1504442232824317
Ni 5.439136797553695 1.528506538944133 10.572014581652544 -0.9602772059436107 0.813908930957295 0.07840013447645852
Ni 3.146854220495998 7.510779409863163 10.818151801413535 1.3359719420770282 -0.20634414131931558 1.7108318410139762
Ni 7.542548046375324 4.104199040609722 8.043530554568354 -0.5277268942737299 -0.19047169306343326 0.412763873071573
Ni 4.825183333577451 3.1923315617181185 12.28018656235243 1.8649093117190914 -0.7555577447119116 -1.6648669442480875
Ni 2.701204348952071 6.942312644586658 8.521246630412685 0.49270564100353853 0.37806040815211667 -0.3598564835495803
Ni 6.104444098695987 0.5348593844124633 12.643818142577041 -0.011566107571044598 -1.5652894043630656 -0.66346288635718
Ni 8.683739229244399 1.9384295609436044 4.185243218509036 0.0970966824446973 -0.417654625504971 -0.43108735397110926
Ni 4.78257873798397 3.445572978486482 5.6722034925782525 -0.7386936219667213 -0.9214831158945486 -1.3542141761166677
Ni 8.078366572243604 0.6707739395665647 7.800857473021445 -0.0020082886792804123 -1.254221145960782 -1.9251032076001684
Ni 0.5134850340380667 7.0897209894986055 4.651880040853986 -0.7449437166414913 -0.007093930732303911 -0.8881487634084769
Ni 2.7321963148219606 8.050481288942798 5.05225749993562 0.514060709640547 0.13324382178921568 0.8555723721343523
Ni 4.680273435189435 5.467181157974002 11.23026728041884 -0.33270383439418827 1.8169559237682642 1.1288844948337848
Ni 8.938786639192982 2.149113169506576 9.175760081122938 1.190630308583014 1.2921076365939101 -1.1939200350778794
Ni 6.368577619411377 4.4073064556029165 4.076869591479409 0.5128306938881877 1.4587107505698618 -0.11704921430722423
P 1.3008016785945282 0.03721375273791169 3.6276395489989413 0.5945310963824729 -0.22475735371918068 0.9209480693266849
P 6.820927444929591 6.315586223662226 8.160860223425901 0.04469220070105206 0.7820223666613435 0.9323545113914137
P 8.22023529040586 2.2830748190818593 -0.34194375435001895 -0.5894413405643912 -0.6292695283049227 1.6273681759716814
P 4.762123291911633 8.839616091400382 11.145655096303889 -1.4763451758221735 2.5898961256226816 0.17161547958887863
P 1.7540498219640444 1.81058770173031 7.988035097808703 -0.19118568841132236 0.21597523665117646 0.29255862963387036
P 6.419033138726124 0.0919447035761957 3.4942720992523832 -1.594938851798382 0.16589708904786268 -1.4292860175508417
P 0.8202886526902607 3.749700358540008 10.389315445653128 -1.6201292350210807 -1.9654245329270346 0.6323075438002981
P 3.340947021242752 2.9170907150704948 -0.21494687536560494 -3.2391909480095955 -1.718503498626621 2.7727735512786245
Ni 4.778854461892117 5.391451091613792 8.991773356203323 -0.04717228681042844 -0.7212625709744676 -2.441001998890718
Ni 7.193673208353859 3.434241073091423 10.394314210196514 -0.7017692381365462 0.28341115880664736 0.5158859357747438
Ni 2.4383995900583977 6.2587301896569585 1.0715780996275677 0.06535667102893906 0.9558695637942183 -0.12360552736850325
Ni 0.9639137694013636 8.85333415358796 7.834932727766373 1.1741724201373067 0.22714667988696363 1.6153662664147987
Ni 0.5110754835515037 4.405902833960259 7.867665184473158 1.028115762854139 0.07558220541168918 -0.5101181800530311
Ni 4.63292459844377 3.596088005967512 1.468649561866862 -0.6273463431402808 0.10186813569141166 1.4850907832252875
Ni 2.2360347790975794 1.0829783146092362 5.95359313776848 1.089700882655788 -0.9153001270122881 0.0401644880340276
Ni 2.889841740247694 1.3893421318133974 11.646750829976092 1.043697162232164 -0.24759157800487683 -0.11139844377935008
Ni 1.337436203467903 6.724994584392723 6.801680049217702 -0.29001169484230055 -1.2257945151889726 -0.5599911536240743
Ni 5.875747345718904 2.129705760927424 0.4024688553291953 1.415976187815813 0.7823990332744719 0.40605766469599097
Ni 0.1000726086349475 9.422324937611059 5.878020277032247 0.7205200363814882 -1.8098995311421153 -3.0151326772399685
Ni 7.256939114527266 2.8915448011741187 5.950319892097801 -1.1996178567936049 0.1941116038088657 -1.2665783819745542
Ni 5.755859342480671 7.66812539600513 2.3918564321356186 0.8977957995799376 -2.0999839882038804 0.9259995157076634
Ni 7.323246200926432 4.29121758827748 0.8927127222081301 1.4561221639070794 -1.092524468147512 0.19133661216688982
Ni 4.840885181019985 7.712844781540215 9.231186292548218 1.2701984952256447 0.08347909166126269 -1.2992840997376915
Ni 9.045808110706847 1.9261525503091552 11.381808823194534 1.0454138878129544 1.1787099029963441 0.5708008426450686
Ni 2.3729066042119733 3.440585442916237 6.186541928575056 -1.105518823524651 0.0744347220708073 -0.17011369823237155
Ni 3.204767649472069 0.15046356135413286 9.245552827934704 0.43032193655999434 1.0783108956512912 -0.4475156747304615
Ni 4.621358756108267 7.313757718622064 0.23642602948932 -0.31948347904917235 -0.590046578248558 0.4859030162594084
Ni 6.046708461794653 2.2846375178440184 3.170205805891019 -0.10422429462841404 -0.9772104913638398 0.06360934932052917
Ni 1.1903460127949583 9.3827428072881 10.400668873246707 -0.010058926897898805 0.01981677761561103 0.3911511798978038
Ni 8.51326470200477 8.833477586083157 3.297958769066945 0.8038826570695445 -0.7192331992492645 -0.3112613482496962
Ni 3.7392854859514855 0.6398549620220934 3.780263751935006 1.1585537397634433 1.162019843935173 1.6436460871960983
Ni 2.0898429062759356 5.3128763520577955 10.082958178683299 0.7062532420498289 1.9859972148720637 0.2159929772629893
P 8.904772208052568 7.962202845097225 0.7312475744188436 -1.1684805119588522 -1.6956811014154667 0.1002938492257563
P 1.185311689836625 7.27416623082149 10.67675844311426 -3.865693455092342 -1.2223896032724817 0.11139870088966622
P 8.4328558968357 4.78467481297034 5.991105394042397 0.49674227296675744 0.3834527828122815 0.18374414453161259
P 3.358913378268775 8.95011854458804 0.2065176595275625 -1.610068765461285 1.0698537660228737 0.29353899126926863
P 4.765735278272073 6.445973316787541 4.877556200056069 0.6776697739851814 0.25375811182690494 0.3920001581616604
P 4.940093158723055 3.64091968123401 10.244292321785938 1.1548449234532885 -1.4608172553899035 -1.5877559608966976
P 3.704906113183981 3.1482859145715096 3.7013493359414857 0.814538594121494 0.2714712128359518 -0.24096687359950755
P 3.5338794947649084 4.8709881865161915 7.231024516012752 -0.01856439326574867 0.4593139529169703 -0.09759341957545772
Ni 2.8317692341521217 1.1219989962751296 1.784428873049973 0.1691940146315796 2.6576891740072552 -1.7960860222977906
Ni 8.799509942330833 4.108484765358638 12.385355253297988 -0.36516066937131303 1.1852495038870747 -0.32713173962304953
Ni 2.254375435228311 3.9583814668927877 1.5924714486955833 -0.7632049768445244 -0.9874031156261254 0.3316949335136997
Ni 1.815809174240998 2.1900053466960134 3.720070841411258 -0.3108024063354067 0.5163371643795495 1.2411709976450434
Ni 8.347122686902148 7.623611874977635 9.131838888428645 0.44584702877878696 0.6367835772937808 0.5255082893558561
Ni 6.216060091720154 8.219673841748797 6.851614357029143 -0.9108001822594057 -1.2377712279348747 1.315845346530482
Ni 5.940005144519788 5.225234216690226 6.503348690800593 0.030952739627772497 1.5456050385602607 -0.3234959426426751
Ni 6.852022343053275 7.618437189855035 13.56756026056553 0.9450513901327917 -0.10674808949153229 -0.00828795104040508
Ni 7.2510345461504855 0.5184688266172645 1.3703829464121342 1.1667956680572613 -0.5486693008533519 -0.19152353136671532
Ni 7.2234861320439165 0.24398780715219973 5.327333654977172 0.7666618250448732 0.48927296117290575 1.100762282676272
Ni 4.915754359439365 0.2894829275817939 1.6817389779253493 0.7001648697639038 0.42349025835014165 -0.831220168542233
Ni 8.649687368193513 0.14662699553086755 12.804194079971623 -0.5067371793959403 -1.1517205188916941 0.32855587366408573
Ni 4.022424043708465 5.403045006382147 3.102084304581777 0.09822205429839213 -0.05042344675787445 -0.9028487886228128
Ni 2.574260807590078 5.493148158363176 4.825772854667367 -0.03854983524874006 0.36784875772643744 2.153511270698059
Ni 1.290639457901684 7.915705538814772 12.96109090718794 2.406737421280894 0.8202220176595165 0.08209095306448443
Ni 2.9547826349146726 3.3153917498687577 9.473393371709767 -0.7725630210206565 -0.9119476656002875 -0.06834352157140487
Ni 3.0705907779115784 8.165241394446518 2.5479597452499516 -0.4185236583734857 -1.4173234458723267 -0.3673509921544125
Ni 8.8442199703883 6.792817582165959 12.270640063686832 -1.0075482231154327 -0.5416296203977511 -1.1753317305527307
Ni 0.47899898602572044 4.380796721511915 4.055490562366203 -0.8834457015058528 -0.2750818130053456 0.045799317722301766
Ni 1.9577995396122851 4.186891070317516 12.45439472316153 -0.7782220190786469 -0.20398463994820354 -0.19884680450100592
Ni 9.448432300164496 5.622880228055249 0.7472460539018599 0.4001045324363497 0.31718594126424726 -0.3035287554921289
Ni 7.132101005629261 7.040931101199812 4.739189050018362 -0.6850346989906847 -0.07724545204672503 0.024960526600079594
Ni 6.484170540423075 7.850540064684969 10.991579548589316 3.1183745533504554 -1.5290409635539925 0.6321867019517177
Ni 5.001534356761006 0.7020569229903654 5.962878562808544 -0.6726440386358158 0.9960307093941363 0.058144726661532115
P 3.5968272466993123 8.95397382536654 7.178981032746278 -0.12683431871844608 -0.9590158227326837 -0.4278901871900502
P 6.20782551141656 1.9302230530728635 7.5496934162842155 0.17767197019560368 -0.6819180077385739 0.3865111100226311
P 3.235160736774424 5.862375510203181 12.89996786338899 0.798704969523347 0.4614914201842632 -1.4475177100675198
P 5.854393581795266 5.341304369060429 2.0559033349564646 0.9440103504627871 1.7487579266357882 -0.7384246845760508
P 1.6252722149889782 6.0797310003075875 3.0002159959919896 -1.0477476781524537 -0.28188366641852747 -0.026870342028282757
P 8.044829372461693 3.3963807186501263 2.78440074670346 0.4319437884341335 0.6797379693681197 0.17935424299403305
P 6.984421293866399 5.699677046863879 11.905966996203372 0.1594544187463125 0.02741284479531408 -0.07525824641336716
P 8.441137264527383 0.14109859775431843 10.396861315604056 -1.8855781529223525 -0.28995435924180385 -0.6153927703228305
