# total energy = -381163.9466918271 ev
CRYSTAL
PRIMVEC
9.30112073323013 0.00000000000000 0.00000000000000
0.00000000000000 9.30112073323013 0.00000000000000
0.00000000000000 0.00000000000000 13.61313036477934
PRIMCOORD
 96 1
Ni 1.7443600933572558 2.415984723342028 5.234521023679693 -0.2380571561518803 0.6228767374047015 -0.7499781937416051
Ni -0.29940307772174957 6.2441493127112535 1.7770712050080675 2.4884607065933144 -2.1655615169943734 -1.1132740419900375
Ni 2.1544372071713043 7.74217852348439 9.794089476361602 -0.3422840218834557 1.0751877766412774 -0.9381022125084681
Ni 5.516252902042525 8.074144825036642 12.306256159517634 -0.705467770034056 0.48096392708657815 1.4638282743020856
Ni 9.319816026963972 0.7893758888741654 0.6921280206194358 0.18422314105056015 1.8972902991529579 -0.8580987381006318
Ni 2.378380292051906 4.803089466680142 5.7654875945323525 -1.3472896810826926 -0.8906615025280016 0.5316015467377878
Ni 9.207309670079153 1.28229901553616 8.817564806277524 0.13655874509506158 0.5833987339147372 0.4450895817874722
Ni 6.063530848396913 7.193635624704711 4.51964060142239 -0.8089808975280585 1.8402611741531079 0.49593494657411363
Ni 8.368674115472706 8.312486044875715 1.7581899298364256 -2.953585866875423 1.720928048907714 1.7962935103229065
Ni 4.57373312950895 1.660715114234805 10.15397960270218 0.06038724283880568 -3.693866630823606 0.8898289793243772
Ni 4.532957016034823 0.631633531103988 1.3888117301940783 0.5312878721521108 -0.003348604757258749 0.48609430633460793
Ni 7.986937516657669 7.950970082623808 6.838379316733843 1.0233957316706503 0.3744225542892132 -0.14704524644868225
Ni 2.778737734656907 9.157753298594175 0.27308369626697365 -0.5220283012270558 -1.0582534627797842 -0.6252467802987748
Ni 4.073091002716441 6.284627790320607 5.2577040672094055 0.9134574173765945 -0.2691109401338914 -0.5062214161017863
Ni -0.022947725174125518 0.3002690120658283 11.906057766077874 0.6793541036661397 1.792279504067507 -0.5268046395697766
Ni 3.229284024959533 8.550306401951437 4.851637596673196 0.5023645042495413 1.783568092336438 -2.3419605340148246
Ni 7.245135930431499 6.096447514816833 3.059687388762628 -0.317221422487873 -0.41843932618979546 0.27940435164009947
Ni 8.981841201391582 2.8100546083036644 1.7226326752287067 1.7739084577594868 0.18461986226834656 -1.428286886862366
Ni 6.724533598457539 0.20490276054372072 10.537161595685529 -0.5490397968188933 -0.40231568115505545 1.1225832352061054
Ni 5.4897075033529354 2.2140480902132023 2.755175205399606 -1.833886895195648 1.39439563343156 1.9495762530408682
Ni 0.5487670557903385 0.9408734741565398 2.951802758790514 1.676658280456061 -0.7878135194218238 -0.05983008478375502
Ni 8.682707856172284 8.360991389713211 9.159145676374074 0.9147722795332762 -1.1055501909832186 0.7393312555507202
Ni 4.8718526525638595 3.6070397440832096 11.338186208217312 0.04707381355935118 -0.4276590450158505 0.9196234369779904
Ni 7.198351292937234 4.779464619913653 11.65221343813235 0.34516751407883783 -0.6577318974106736 -1.0965266473283697
P 4.219602257151762 0.03454250233125298 8.397314126560646 -1.1891346978740942 -1.1250805477066623 1.1449947701320862
Ni 4.15005777712301 7.349075955083272 2.6477398195608868 -2.396030319276035 0.5657496533744063 2.030016557875807
P 7.7627340003953895 4.535849664595602 0.16810008586433525 1.9256475101394126 -0.558133017369413 1.398710972977462
Ni 0.21293148799601688 3.748630705628975 3.7363820596814206 1.01658050852103 1.3301689622420059 -0.09890211108455225
P 7.758064837766737 5.519201357327948 6.835193682868677 -0.5073354751015714 2.308494541046895 -1.1895944111193317
P 1.9689356544505034 6.613924670210659 1.2735680534654112 -0.4139324394583775 0.06912745092528094 0.4351270712581216
P 7.795036792844213 1.7977578277219832 11.081088348224968 1.4458814600156775 3.119061552115151 0.5981648364803182
Ni -0.14494401558486747 3.0599478201443056 12.88418780960758 -0.04693317421642885 -0.7049548349533794 -0.5021467318117803
Ni 8.845300748426212 8.226897131511457 4.5581118971686685 -1.679149936529663 -1.9088312099130222 -2.216286039932435
Ni 3.3461991130913256 5.762304751003418 9.948734560913968 -0.24785125942416672 -0.18760259904575435 -0.08576865902638776
Ni 7.2000161935558165 0.1977092737369484 12.939511806084646 0.021764645370601226 -0.10480639238412917 0.9384007175854936
Ni 5.761588564703804 4.698256534434044 0.06268769379400582 -1.2451492655665006 0.030740623616966414 0.2796923151941635
Ni 6.622742132704609 2.479799712973868 13.016086073194542 -0.045500555534960345 0.9099329491631039 -1.1994250240565085
Ni 5.977681503650975 4.2737533822991995 7.137623345290353 -0.44326718386675273 -1.5435116463663416 2.988304244193215
Ni 3.919241163990269 3.2244846466400423 6.531988306974431 -0.2634344585744044 0.7741861584463764 -0.5874266241272077
Ni 1.2120383492077944 6.091071467009342 8.091821605068024 -0.10005807906586639 0.9345990844512162 -0.9363685176468132
Ni 0.048202128300254575 5.586587977337084 12.791129166149554 1.5021855339240453 0.2219155133950114 0.19208146075271434
Ni 6.401980031128786 3.144057855305467 9.520533283159297 2.2428565913321115 -0.5408701165239072 0.3632400553098325
Ni 3.005350241199706 1.1320208071872846 6.813426269920798 -0.9610351671555579 -1.4986862625215351 0.08339501658788864
Ni 4.1956332689166285 3.375972000689565 8.99350108639413 -1.6293731222168517 3.2360752851987495 -1.5814927535958054
Ni 6.935157478389475 7.061922453421153 10.67612499061258 0.9979880902308231 0.4455762916159036 -0.20275359575457982
Ni 6.273764081256332 0.18682696243112526 4.19760882696907 -0.8185178904842161 0.6045458003059975 -1.906579180654052
Ni 7.421029425392543 6.879676292971325 13.151944754007165 -0.08462117568550588 0.2581433853787941 -0.005922021911389802
Ni 2.2506852049428065 5.467784761688128 3.3447462780263946 -1.7810280995234038 4.4917773865804325 0.2883265938303937
Ni 0.6011556185510639 8.086310691009306 0.20655649981737487 1.3260551971839483 -2.722321822385976 -1.8770220358222256
Ni 3.231079141268955 7.368766427762269 12.184609591248003 -0.8247823833366892 0.40543082974526956 -0.8635911286737709
Ni 0.9059142816146023 5.845940429005094 10.578205581437954 -0.4300401436535174 0.34764837151916256 0.3135930817066664
Ni 6.977570589119863 1.5027913846095307 1.4145135172294467 1.499396144104366 -1.9607520671520298 -0.11251893053703847
Ni 2.3077382797717974 0.2879161935656029 11.306508451084515 1.0510260917934091 -1.4774726045583975 -1.4177229953035906
Ni 8.15732474812038 5.693569468482022 8.98213418669597 -0.9845831296788269 1.5634379529766236 1.7165656581739597
Ni 7.235527872671741 3.715341994378085 2.515938287629975 -1.5621806835307546 1.6238503926264096 0.46111089691639295
Ni 8.337338639584399 3.5967713067484843 5.740575472650714 -0.9545408176804657 -0.8160650580683493 -3.033300863508563
P -0.06815024202469806 5.937565769751816 4.31628833771173 0.34512406243541205 -0.04690257808880955 -0.978764723224837
Ni 8.239044395242573 1.7431602487773832 4.1000847154273465 -0.9914150649989958 1.5046694766881634 -0.6724604618700999
P 4.125447011554456 5.60594360966821 7.850379391562827 -0.008587741669011014 -0.4045083179310001 -0.6232662595336362
Ni 2.8173094825075466 3.5664124485414694 2.965852101719955 -0.015325060392844574 -4.694733842374436 -0.1311871963705031
P 4.159610028158122 4.2132216883006555 4.526447161604955 0.8618990856833286 -0.49163837608128885 0.6794309796506621
P 2.727004900910763 1.01912380322995 3.2369434979170935 0.14812793798989973 -0.7291296324273701 0.16256493935083616
P -0.04105793743358555 7.60192692333011 11.601477684533199 -0.3856459338088584 -2.2349622761856995 -0.6524256547064119
Ni 3.9855860584726934 3.391095623068427 0.8948431575570628 0.3271651639641462 -0.9805421268402339 -1.1894576284311513
Ni 3.493277735893874 7.828818463496136 6.87513455569728 -0.904452642774823 -1.3290806142738336 3.3097538458298223
Ni 0.8645122027123711 0.2571397150358266 5.530606391621282 1.078422481528491 0.5455099292887637 1.6720583197902044
Ni 1.6877627734462015 4.254648880228977 0.5770350220473108 -0.4941997090505617 0.34184076369844996 0.9177668433852259
Ni 3.593385698786672 5.800932305578704 0.21833171871752194 0.8349765502608716 0.36937470745266066 1.3111685098801031
Ni 1.6679327839555904 4.205687780473547 9.025655060910566 1.9464546766927509 -2.406936167555261 0.0124474817347334
Ni 6.052974076318186 6.720720138940114 7.0320398125977785 -1.9850795881538006 0.5014126818592333 0.557867165302536
Ni 7.486788349266193 2.0023731836337806 7.495607671984296 0.009828041834015332 -0.33692430023343906 -0.6980401101114172
Ni 2.176313443232241 1.9614947578311372 1.3471036444183757 -0.6194198892043525 -0.4382018535287034 1.4596348050460284
Ni 4.700972461700113 8.24001171180309 10.202687711972551 -1.1693081500664702 -0.7651942393604112 -0.5394884056850322
Ni 5.193978368336998 9.205988910929216 6.3010554298320125 1.7009711461698125 -1.8833628904385886 -1.1588841265196688
Ni -0.14866260367039574 3.558664614936555 10.093564172713313 -1.830178078885493 -0.8951820161061744 1.195232840352032
Ni 6.169331097203527 2.465596901551652 5.38257719427561 0.05761996450631367 0.21646348914150462 -0.07255601699085569
Ni 2.1498889591127166 1.8054498546022528 12.766625363469903 -0.8712123926644545 2.4223527592206473 0.5465959632640909
Ni 5.61969066617249 5.428292202880842 9.483192073587086 1.0188947584765036 0.09367068748228384 -0.46300914238037033
Ni 2.2984836646014606 1.554282389215545 9.041460455442177 0.1679930523449429 0.022728809056083436 0.7920794937870294
Ni 5.602092945667689 6.863994603346011 1.2182347558675715 2.047735315311809 -1.678720305191412 -3.0246272469939655
Ni 4.586280341433357 1.2467594330579121 12.56481057502322 -0.08987291100274845 -0.525269948092805 0.061552723901816576
Ni 6.405365639090598 5.016578091810533 5.156817600507806 -0.1485799379256538 -0.49876495982374097 -2.852861872090783
Ni 5.1809102936492355 1.6426151332081969 7.61067927797864 1.6056984043077314 2.6533908037422176 1.165902981039663
Ni 2.816509586120965 4.583378391751804 12.12379979373831 -1.0280730825416617 -0.682610148709592 -1.3150285070561416
Ni 1.8077565325542564 8.100150758721327 2.9405446822054135 -0.6492639691489787 0.08483766257168614 -0.378846908609154
Ni 8.8997216060761 4.135538727594472 7.647883761075472 3.4655123037817863 -2.727885946737315 3.5942021876517325
Ni 4.2347072772890755 1.3605028390056995 4.748559785917193 -1.057173599452044 1.3027016100596724 -0.9710390724458051
Ni 5.0504155691871 5.804466731472902 11.70933441114299 -0.43374818863272396 1.5978686238506674 0.6173910316997818
P 1.3025475554616106 8.091640233212926 7.543266614831337 -0.940910885601857 1.4916746070903923 -0.3983906350690365
Ni 6.400994112326721 8.853039280910352 8.514904476060646 -0.06199469653524161 -0.47376458112466147 -1.7373833662502596
P 6.037097063156613 8.483654570483463 2.3267702330999813 0.9572949833868352 1.3106314064297104 0.2628449046195215
Ni 4.630163029246069 4.925296892532456 2.4975462514110562 1.5416661085171706 0.6462817465922032 0.29020401335876467
P 7.6063728590601825 0.6172819017493855 5.661210869308553 1.0945175873181407 -0.7882148686253005 3.527655610079751
P 2.600425948294569 2.7082631425507344 10.894138610999626 0.7403987775832861 0.29310010395963715 -0.5147592783694683
P 1.3236983041021593 2.684926630528247 7.365615208043968 0.09511076236292007 -0.4535508251809479 -0.16702194668092527
Ni 1.7446484281012564 6.980184204057415 5.387410056629888 -2.44110021503148 0.10631691549138464 0.2604275534272806
