# total energy = -381174.74683416396 ev
CRYSTAL
PRIMVEC
9.17784238742537 0.00000000000000 0.00000000000000

0.00000000000000 9.17784238742537 0.00000000000000

0.00000000000000 0.00000000000000 13.43270004451714

PRIMCOORD
 96 1
Ni 0.613872850838879 4.864724644471801 1.510937212739565 0.3720759084339076 -0.30332178168764534 -0.49839394963756745
Ni -0.14576708498960173 6.090838525736453 6.3800763994987895 1.0525700392417614 0.3686614834357199 -0.0533889571441016
Ni 8.873808201803946 5.900893895423543 10.370918076892302 0.6011239191086423 1.0994559051600226 -0.18675310656126545
Ni 4.479025809484361 0.28788322419555074 0.1419059666105603 0.18500218530842977 -0.17713126720078526 0.4133907080222945
Ni 8.591277495408864 3.633122413336298 5.97443503034016 -0.9386069200590287 1.7159429369882964 -0.17251999368101903
Ni 1.9940239710540417 7.165839228700851 5.837354773365207 -0.3001603532405282 -0.2051226102073887 -0.9802423362116279
Ni 7.85468220454814 7.032650376985497 8.466080709023839 0.0679650551860636 -0.3389845251965775 -2.372074579791386
Ni 1.99920945211931 9.092763992554579 0.7522912372639491 0.07911618670687665 -0.8799207190717296 -1.8790637488426025
Ni 6.255342176380472 5.58430421516437 11.77765740710053 0.6549188534419108 -0.10351004217020882 -0.6584993717043175
Ni 6.256149826528691 6.452188544323615 2.7965400341260875 -1.7174750573621067 -0.7862387187355363 1.6780597887892776
Ni 4.400325809245996 2.586582200254019 1.403260927865332 -0.3909148955172816 -0.14522567674144019 0.03388045479752875
Ni 8.377745809630929 0.33332822958100716 0.4608488457106796 1.0352017231666428 -0.7514007851207446 2.079332373391799
Ni 4.814402533532214 2.5459610689356516 11.933288837309513 1.3253486580352272 0.005331953735874688 0.009979994030847329
Ni 4.121649796740139 7.797898892422802 2.033563034730648 -0.1884286944914755 0.3146523762091162 -0.6630304268054517
Ni -0.022542616977897667 7.8801874291151845 4.638351321337185 0.6656310976530924 0.38153653962617523 1.728764771343313
Ni 6.631991658570823 8.865805123062506 12.631950269163218 -0.1132609509093856 -0.1587172834699718 -0.162194700495611
Ni 7.698365189497429 1.618962255632347 6.748977946971797 -0.6871735997105585 -1.0176428883472732 -0.4758937116525223
Ni 4.8176698454954625 7.066883729858862 10.577163473435343 -1.8911193944555558 1.518671190283894 2.2922593101349555
Ni 8.14077391386946 3.008625291911305 0.5152890546219228 1.4457161380824068 -0.1007252803362201 0.6496671181246683
Ni 4.531715803813044 5.902711108257035 6.731596030884165 0.3157371246328627 -0.4817411715722349 -0.1917644437329278
Ni 8.220602788746811 1.0553050527589714 10.919549315871771 -1.3957292646413186 -0.6001831524619275 -0.5899383348054679
Ni 3.6274505066135796 4.430759535285695 13.473401493869224 0.8412757530060221 -0.936572149017187 -1.2929311609364702
Ni 1.3546312110999676 2.2579695461974985 1.5397501317772706 -1.03413600090629 -0.3749282902810382 -0.6897007370077863
Ni 4.739511337970108 1.263017986332695 7.854744613877775 0.2877031013137819 -1.8605258379394152 0.6000561399657601
P 6.806535869012016 4.6681811453342394 7.466016173050255 0.12875930365530083 0.11862555765540862 -0.3119599169786176
Ni 3.3825489548514183 8.14380260192528 4.0717874957144815 -0.5376590657857773 0.5660977807424444 1.1703749007680875
P 4.8779407378062904 3.9250420527044243 10.252669835134737 2.2913751077577893 -1.7288894698466355 -0.9700558825969294
Ni 5.31997317063199 6.9958288725007955 13.512087935968903 -0.042319072483185186 -0.396792180233665 0.24830043114644337
P 7.111221887427555 2.4159661064427995 12.094534353832877 -0.4373310208879758 0.644610015316735 0.4314845894095279
P 3.4012717537419443 6.958117117284534 12.503130988306578 0.6349935752728935 0.8211638127474954 -0.5234033271977115
P 8.048784397555858 6.9045827614372595 12.519598791271909 -0.4681868299265679 0.3062538677327758 -0.6817043490658711
Ni 5.703331655758114 2.996271915780594 6.390553824603409 1.4319267976077985 0.2266373443507129 -1.4690347582036893
Ni 1.65638031988562 5.637232833400482 12.447854677935076 -1.0500853251466948 -2.0250121626826805 0.026105438837800202
Ni 8.840345787708427 3.0089648720872604 3.0660409573913263 0.0703762357307175 0.6216498069761359 0.3262683631814897
Ni 6.456263506435083 1.5785155033232539 1.243794077236569 0.3835263163626943 -0.27057981136993403 -0.2444872280479402
Ni 6.0863046714953155 3.979842950829588 0.06787748825223336 -0.5845942968847352 -0.27641390155320783 -0.37123001549384455
Ni 9.04394704780031 4.598925145124478 8.197923421914274 -0.6101029826788009 -0.4181274513763315 0.23356518181879776
Ni 1.343103840802663 6.786445571575074 3.043970999306989 1.519292368807661 -0.9114696975226044 -0.3423938079884426
Ni 2.031230944927666 7.00532793958496 10.769143749235466 0.22109558859687728 0.9922987531555298 -2.5866953592971966
Ni 1.3693432927771803 7.059422143830432 8.179574161217298 -0.9473964933262008 1.0429903659731263 0.819635034807795
Ni 2.184133802533633 1.0371788136370155 8.35131086960917 0.4364028526467517 0.38783959902606757 0.09296363411293021
Ni 3.4470416547552074 6.165224939955922 8.845433065857945 1.7610336586793478 1.3056655777840027 -1.3791317652939539
Ni 3.664528990690897 1.8506660697452062 9.867097654375087 -0.12565958168405456 1.2804209442846013 1.0506782215356874
Ni 6.330315972525918 8.528170649736676 1.7065840366557519 0.8787799205990671 0.07317899528683526 -0.0828910803682766
Ni 0.6296036730439587 0.03892139487007102 7.183888373945022 -2.0642363982906256 -0.9650892826202734 -2.1601999955721443
Ni 6.828103799106495 6.160736974927753 5.8319811465267755 -0.20022337313355837 1.3294279703109233 0.2927848867120635
Ni 8.13496433950784 3.6425297019945284 10.409751364473475 -0.19232237311892683 -1.262759008228464 -0.4379514280807941
Ni 3.4449766401716935 8.496250113196847 9.314691568736954 -0.18845594818498512 0.49901024306532765 -1.479461352853652
Ni 2.863101419750428 1.872325778265619 12.854046717649311 -0.7248412894646614 0.4208919014953461 0.39326051293132275
Ni 2.6760753433822173 4.017215125869893 2.427060282569696 0.19505365600716085 0.7221817403546272 -0.07764602991925337
Ni 4.026649948055904 3.344203928496212 7.741708468928999 -2.422830984408647 2.005601362256236 1.093338222298059
Ni 7.049629385783279 7.7850407349494555 10.540640248834926 1.0995037276788224 0.07478567765232283 0.547933708238908
Ni 1.4592677945072678 2.6719728477429694 6.703898219721557 1.1085966911190264 0.5390050382907103 0.23040683869547415
Ni 8.533741600190869 4.703800352439207 12.372820308028516 0.31164341417946323 -0.03310989518009136 1.2212408343800194
Ni 5.392845240823549 0.4651605961610567 10.68740588309869 1.0371938138960073 -0.2575983115086015 -0.5770753627998707
Ni 6.618325850949257 4.327059091822921 4.536316656305113 1.890687192014144 0.9733414953267367 0.9076027583680304
P 1.5206859171422697 3.6079017018896478 13.241082764302607 -0.6211309583581883 -0.2772464247568322 0.05485114351192489
Ni 4.911504108170337 3.1348022718853037 3.8751191779176497 -2.7147980032051056 -1.0629362129674338 0.7835208055837409
P 1.6981395036855689 4.869974370435223 9.252994439687114 -0.9371020533787281 0.17784809076215177 0.5807612962918902
Ni 2.221790490694334 5.271440738998116 7.166641372143514 -0.7794875160546317 -2.465480186537741 -1.3557825490450521
P 1.1714047615654226 1.0222923529505283 10.347759626676387 1.3412249629458515 0.3680912127545467 0.48740325495401865
P 8.42903159404282 5.316687502983555 3.1546566987675964 -0.4048358764737479 -0.22460514441203255 0.6175594389568462
P 3.5173806403909893 1.879264227266226 5.767961105516545 0.8020690008995736 1.2686463202471765 0.8502309053167809
Ni -0.043148709168588914 2.0882620588030254 8.529925453240535 0.6724229237639452 0.6541611493402798 1.0093235698483003
Ni 0.011981673505677635 8.648115874589761 9.298544990262393 1.288092601897246 -0.0013847961626685828 1.9200607600802544
Ni 6.038277021204078 5.82547038499102 9.307061110404804 0.657502555008687 -2.511158405301146 -1.4541406147006763
Ni 6.319917476867602 2.8819251749094814 8.880196898033208 -0.08630936202120619 0.8936722643298673 -0.06508927630016531
Ni 5.267090441608846 0.5635222885872527 5.6856588020602725 0.29030120105826135 -0.41371363857935206 -0.8274825558766717
Ni 5.080146965823976 0.8489908223964812 3.1500622707653423 -0.7522646757829367 -0.6288746068593493 -0.18824280373291452
Ni 1.1744885166768035 9.098426721434704 2.924715030432669 0.2559826302820495 0.8672896605712805 0.715948872071038
Ni 8.352249762906474 7.41432931691703 2.456182494902799 0.4883460784832621 1.1399525797224883 -0.3115842788067537
Ni 7.488697375451313 5.7018173117302045 1.0106658619532152 0.2225274359473974 -0.008242185404134192 -1.2111765081654817
Ni 1.5709621388688892 3.2397967911537466 11.034641297561468 -0.427591939223341 0.10217152586444339 -0.8978423365471571
Ni 7.019278260326921 1.9269339416963216 4.33075592681954 0.04806805915182044 -0.5344480150476474 -0.03221669394186064
Ni 7.333766214632206 0.7011991053307766 8.847018079273825 -2.1828796965578467 -0.9937113172323403 -0.5773849236204894
Ni 5.675908262089049 8.201366030671055 8.475093350450553 0.13602909784383668 -0.3772857347696212 -0.4754424830477167
Ni 3.2375757532461455 9.092745636869394 11.39164193654362 -0.849281396919318 0.16331570147393165 2.3218910169584595
Ni 2.428044147295708 2.2037193186279387 3.8327120384306075 -0.28065390777648436 0.036337400978453546 0.5555179483440692
Ni 3.2887514035469176 5.026401519597053 10.667995663797917 -0.53317403343123 -0.5152603863756029 3.150727515759864
Ni 6.461192007907736 3.6793970956921975 2.4321246161127315 2.216205564403486 -0.2357709312208649 -1.5291273526202118
Ni 0.43797766196793836 1.6085637599740301 12.562637366329376 1.6139030516057107 1.4031522965782675 0.48054843681571435
Ni 3.2303252575973627 4.138619627695327 5.348485056432632 0.6270180132665847 -1.0588630713393248 0.7253151437772862
Ni 1.2334010882838082 4.985798743963873 4.556828216717092 -0.9987928455203056 -0.2638172958351198 -0.07754961355070515
Ni 2.0328737787518842 0.4296441808931354 5.421330510880671 0.5681415506453505 -0.8665149871887851 0.14643435233756072
Ni 6.9785837062678056 8.490596562159316 4.349951384603627 -1.4398779341340748 0.045904732951914495 -0.33962755809721507
Ni 2.7126857574872716 6.2020189109128445 1.0049792706823473 0.20222780515809688 1.4174514868097587 1.8652512684395426
Ni 3.7128227984173434 8.318300923153506 6.982733926688539 -0.07635045103628141 -0.24387222017176066 -0.613998203968149
Ni 3.757069177560102 5.639921941280346 3.5949536015588857 0.5526393412446934 1.672573825974042 0.4311318340557994
P 3.0645275311476756 1.0246418806544375 2.1434153860837752 1.4706913199705058 -0.8127655613814713 0.29680892026979205
Ni 0.21246705603710245 1.759888028653933 5.029578888702887 -0.6605665386459915 -1.3718750837315405 -1.3463383729130167
P 7.53810170213156 8.536127839265152 6.512106089694597 0.5351640672780654 -0.23234905002350953 0.6003168498263145
Ni 0.8228532444747506 8.475655034417269 11.958488439718199 -1.1865983046054853 0.937243721162915 -0.5460897130516337
P 4.908548842855264 4.919681565921053 1.8481651076385062 -1.384182954564616 0.6214310060971104 -0.7448264743373366
P 8.410198661041173 0.773545285141734 2.873738539316173 -1.3374994344651483 0.16507973535288992 -0.21876154114706195
P 4.9918744757607 7.153926389014624 5.02853169686298 0.26452229232194446 0.309367473661093 -0.27645426787284
Ni 0.6369248380807102 7.138498435615126 0.37380618655491804 -1.676076954031294 0.2682876729016476 1.4859312768487118
