# total energy = -381169.1580172859 ev
CRYSTAL
PRIMVEC
9.26502052061969 0.00000000000000 0.00000000000000

0.00000000000000 9.26502052061969 0.00000000000000

0.00000000000000 0.00000000000000 13.56029405454993

PRIMCOORD
 96 1
Ni 7.427479562932282 2.9002200410707277 6.305143724740994 0.2545196725832778 1.4277143021883476 -0.7152783283665746
Ni 6.739737105688128 4.907820230891645 12.106386157640866 1.5067512989178566 0.13118231127449667 -0.8599075091745965
Ni 7.507390363063372 8.52471738761921 7.73268971482543 -1.4364971905873 -0.06964758509480909 0.438654881905722
Ni 8.156544010736976 7.103509597925461 2.3142408608491647 1.7489720995291234 -1.3042275597858959 -1.115024449022241
Ni 4.884157369032537 7.109235380473985 10.12279997394862 -1.6043128368141146 -0.20799324688696438 -0.41787394060462874
Ni 5.404406789201925 0.034340797760682405 10.278471771616166 1.1277843197910706 0.5925963412536053 -0.2510515115290192
Ni 3.658506362917562 2.479161928287247 4.232791234510087 0.6539577750802221 0.028013711604106595 1.244110539889341
Ni 3.0307919722298533 1.1618891363755934 2.5501755294193935 -0.6134014509244146 -0.9372007837401214 -0.8938859230025702
Ni 5.547597678016533 9.145603458342093 12.622056804775498 -0.5520356462224235 0.02476949363519605 -0.3473364967056986
Ni 4.418868049312728 8.690051674962897 8.208398476380301 -0.30994005833511135 0.38924342135212964 -0.10776573212276926
Ni 8.21222678277035 0.8149317294899034 5.638546823339065 0.04540336783546375 0.005142463432887918 0.1277331763836316
Ni 9.048515310565433 6.2089626224522 4.753492787670361 0.653537656823668 -0.18729380955608388 0.25052032161589755
Ni 3.5630303286739813 7.792641808215373 11.97228795975364 1.7128866666604758 0.6573871124767452 0.8550602083846243
Ni 0.4306196137382967 3.6367335652006854 12.816524948468428 0.315293866447857 0.07369321591909243 -0.43889579427193454
Ni 5.783725985511138 6.347335700708179 8.223301261540982 0.21146012238964224 0.8866022448569634 -1.6330055767631169
Ni 5.555741630864676 4.83235664050698 10.113647060389257 0.10878594585716747 -0.0002077451354319003 1.7704652364058928
Ni 1.420475853089649 5.978939963338625 2.8252734388190857 0.7768109976637332 -0.03189119228164185 -0.4566384629673362
Ni 3.3942401887565086 1.278220731325851 6.349715884424548 -0.1387421258996256 -0.02082722115799639 -0.523070369338325
Ni 7.265415827756279 7.479919577858887 9.83987775490131 -0.3037285302077608 -1.3800702179478233 0.7998732787998354
Ni 1.8880351027841955 8.930219531310506 9.204252889877147 -0.048271947632510415 0.9770053173315689 -0.6336856550947474
Ni 2.101454845511113 8.637009433716463 6.591536620394577 -0.1196077190630198 -0.8609881438332849 1.0171397234586097
Ni 7.102592360915261 1.5456926025124529 8.067534034164293 0.3428792322652934 0.5137452352826573 2.464686744102168
Ni 2.8065506857866325 2.6123002700708717 12.632145485385673 -0.2679675705580675 -0.18548143893769348 -0.5875862896335236
Ni 3.9380783506225643 4.8271682291361495 8.485448525558269 -0.18289850870186564 0.20203960040669075 0.28506463524967035
P 8.622472616857834 9.000957961339592 10.206385281132695 1.46540924563596 0.7560154010746206 -1.7992273961402498
Ni 4.468621208350868 8.201710984724114 5.848351355142951 -0.6183294843536513 -0.941106803662747 -0.6157213573068429
P 1.9189246804812454 4.869972622945499 11.639112270571715 -2.0672121930894978 -0.6458194622438038 -0.36495446689777794
Ni 6.01159915991394 7.783673268560081 2.773758072918925 1.7392268472169015 -0.5768889578206775 -0.0050308775556881105
P 3.8225991375403723 6.050743870702793 1.9239750430495304 -1.1123548726098778 -1.7539273866518699 -0.034685981417959616
P 6.548340316226325 7.428331944800346 6.019224271624999 0.3853870237205169 -0.28913314889208913 -0.00748422419218711
P 4.648307012147083 1.7784206475551028 13.472152065829174 0.11785525514828733 0.3206638725105187 1.1489545261107825
Ni 2.0285206056697285 4.286507969234727 5.05063959239202 -0.6369401574763032 0.609905264845698 0.42092044074043633
Ni 0.9873176237877674 2.192159394297591 5.918010410306499 0.5536906653273432 -0.21895128856036486 0.7120564789951672
Ni 7.364885085751338 3.989119347483107 0.872571273811705 1.0333495004492526 -0.9960543635432201 -0.14056683781319018
Ni 9.31569996612258 2.9031107274059047 10.445710947134573 -0.9086635955323771 2.0790616362289165 -1.4735534720096493
Ni 5.3583874333467225 0.4727912066608107 3.960772091357764 -0.4352509984304956 0.8654225254555548 0.5363146359427409
Ni 4.646880199020106 3.272859157739997 6.19545422284743 1.2201221473945438 0.39643916776962046 -0.7984252334993991
Ni 6.765419741973739 1.6046551917338159 0.43909154830523806 0.21148480497999061 2.956789461414385 -0.21880910655554572
Ni 3.7663048741668645 4.8000495147032565 3.61118712471356 0.5597381570730038 0.1751108943366468 -0.17096987558507976
Ni 9.256644726698164 3.248955405352958 7.856698305600454 -0.5158915922016987 0.2315304107769561 1.7089431086316955
Ni 2.6772573274296048 4.581598865950696 0.34696852491005625 -0.28673739496640294 0.6324898350144333 0.8961688054994759
Ni 0.9270301366627814 1.162611807959388 11.390565129860217 1.4253221478070872 -2.0258220601784855 -1.4645597531514714
Ni 0.759626043782945 1.213495299474744 3.8935673400730244 0.5269622481935634 -2.3907472165002246 -1.4757957310766068
Ni 2.025685509456382 7.100433611184183 10.479747852229249 -0.3137553183161435 -2.1140597495706563 0.15878696036564266
Ni 8.105901409749551 5.941916942199629 7.593181671582081 0.22738167871590514 -0.5628931577622177 -0.9634021247258374
Ni 3.6761006364768596 3.3617848226279046 10.220014126001429 -1.1023913336392628 2.3470700873272485 0.6852097911159684
Ni 8.172248220154042 5.0796492974691745 9.861167845060292 -0.07435733186565259 -0.32522860906306567 0.06509776094059756
Ni 6.867483205654212 6.119684886792699 0.5028858456156869 1.568631324252105 2.6280757220161965 -1.8818703650534623
Ni 0.35860261090711254 7.2410951494555125 8.782025531531167 -0.8617283644334192 0.20932096455945243 0.8945243279175177
Ni 6.020975360462654 5.282516182068636 2.269708540752923 -2.721044498335449 -0.3018390264945318 0.4656895174260109
Ni 8.133020124182444 8.414343200725101 4.059993046808647 -0.18734034652330317 0.20003311149962325 1.5437872686252316
Ni 5.033546556431227 2.913672850553666 2.2765016536405884 0.7180607762077182 -0.34773296081316885 -0.12681863498916224
Ni 1.4914829687075823 5.885854304333748 7.171659381281316 -0.1492347979008333 0.7471998596655196 -1.234634739188422
Ni 5.8050170021721526 0.6833415725992529 6.44488246698994 0.147332695782114 0.6863225645641728 -0.7220171897523049
Ni 2.579011052114813 6.874913751938866 4.871969234821238 -0.657224618756952 0.3123779783526427 -0.4575617461125539
Ni 0.15176659160896647 8.147140015127347 0.1567011414234382 0.3286034390725695 -0.2137808001030189 0.46767338062525904
P 5.668089267083761 6.845395397246964 12.047886819434757 1.2470400548313103 0.14272682157898645 0.9382567358084615
Ni 3.825591739098905 5.471587451433871 6.309672466666105 0.5308533557178535 0.7511089649119387 -1.1659513177790952
P 0.08846148737062445 4.460773736152487 6.159397543326252 -0.5605655380703056 0.10963595256228861 -0.9000642838991402
Ni 9.248454448748497 1.4297223433540929 13.287202803997657 -1.2859184770640628 -1.4368075227388675 2.0603347492433737
P 3.2716825001612553 6.863165706192057 7.990592673040972 0.10222988990620457 0.7633204193764661 0.3098017329850342
P 1.7193746731509938 1.9492398269193818 9.140125978337746 -1.3792608346726505 1.324164407919139 -0.7097501994594938
P 1.6627839291277244 8.539745250554006 12.185469591458718 -1.1270029615403558 -0.1936557472183697 0.40747665653070464
Ni 2.4264069026702697 3.57311067076588 7.261754291731721 -0.09570160186938356 -1.414168445183113 0.9030099967910254
Ni 9.038407173412619 6.5665831412069755 11.826664076606923 0.1910098249550904 -0.29402235866359044 -1.2175906392219418
Ni 6.283054989831715 5.049380476132564 6.20988263896849 0.06001186177725794 1.1757441354998008 -1.0857676090396526
Ni 2.3948965686127814 7.09036253411259 0.49303157001923154 -0.24055626842465022 -0.11576983337416837 0.21258060914733068
Ni 9.009101914187735 3.1456411639313013 4.201141925148022 -0.8989458540239808 2.013662799108132 0.9047820010897838
Ni 3.4260655335043686 1.257948866898393 10.053004722986588 0.602153388814421 -2.5807576536565233 0.5601950421047642
Ni 1.3949785172101405 8.441832515970198 2.260853960847383 -0.42993575686516927 0.21334294123465192 0.6823003307786571
Ni 4.8406025085784785 7.279202177970198 0.6434899407611243 0.3840387372227386 0.6038816843594375 -1.275889374962835
Ni 7.311666809119108 0.7967139200640759 2.5756960278496646 0.2870418135806992 0.4585091976274877 1.4524753111831115
Ni 7.840736528618908 8.69927963518673 12.09361247414629 -0.6321568771550468 -0.44950750834950975 -0.16344708484547335
Ni 0.2437969648010977 5.656294896235427 0.2961461825287135 -0.29872002124957586 0.43336329448947947 1.6257941466163421
Ni 3.7662678140856443 7.912929566835888 2.9646193442070965 -1.3498170754902366 1.1377445163275761 0.5031031821877787
Ni 5.171669479138971 3.8673399205934773 13.388362928198388 -1.0073075678595362 -0.22589198154425613 0.8659043501879796
Ni 5.175690497951364 0.1866957181590198 1.5310381198959488 -2.246468477053086 2.130909731248459 0.35928287043429735
Ni 1.4138976886730605 4.747257429005059 9.228132553211392 0.12968335813146697 0.12900921488257783 1.784282087684327
Ni 5.341154495579323 6.330510423834202 4.3976437407979105 -0.0376733461810577 0.5437273834670443 0.8154163687407568
Ni 5.2682943759003775 2.094033564246765 11.439436258965316 -0.9998282287633554 1.0698591653395122 -0.5019878376364127
Ni 0.2681176431018643 0.8829203014924502 7.74013415864054 0.012711791139713591 -1.028871410073241 0.4919744192644689
Ni 9.187286784694532 7.962766111056773 6.47874241019679 0.5408490334779847 -0.58869494931667 -1.6668088984658067
Ni 7.1178796444186 8.799453034724973 0.7159590765831952 2.1420711471819174 -3.6804051060020613 0.5708810610637007
Ni 4.609514372129823 2.1209391832126414 8.102072176857472 0.32854893168555027 -0.18962862833684763 2.0707520879219565
Ni 7.456868207339913 1.7488281727007604 11.7309832854146 1.2935315135246304 0.24240412026666638 -0.836984838940152
Ni 3.884860073990335 5.391834156647968 11.814175755737741 1.1209367007416178 -0.32192499861112944 0.2567436768177901
Ni 8.845379740377126 2.499007601780672 2.0510892686308093 -0.02279128686290268 0.16157146508931527 -0.9397721440117234
Ni 1.9745889224740096 3.389857834152218 2.896899457793397 -1.1228015218644984 -0.29635512056182506 -1.6717207339451274
P 6.309673393168135 2.5339181982901153 4.5554993037513585 -1.0819621192506332 -0.2753440655277968 -1.0091880727117006
Ni 6.359574792531156 4.058569939689791 8.241743284458192 0.9148843796311082 -1.3316681724953516 -1.4826382079197369
P 6.846794415313028 2.9617768359775063 9.970897186541169 1.0500971522212368 -0.32875179172497576 0.7476122646125899
Ni 3.111054843132535 0.30413355653370044 0.16288183646893967 -1.1833605143944783 -0.3852127029261817 0.260428581868545
P 1.4290089367906038 2.146279013746964 1.0601536544139183 2.0327974630550543 0.3176420549650594 0.03366191102881944
P 8.898857437577897 4.904003042525962 2.3975009658205315 -0.7519147486426857 -0.6479192821956261 0.0949223005011978
P 2.5805583105057575 0.1532712309065072 4.6159785767966595 0.24810528441650176 -0.33574519232367334 -0.8292116227526365
Ni 7.282509790219104 4.7991230126727515 4.002754677866054 0.07235187139984958 -0.7743753916390471 0.5244605648176323
