# total energy = -340857.8220283785 ev
CRYSTAL
PRIMVEC
9.39566812163121 0.00000000000000 0.00000000000000

0.00000000000000 9.39566812163121 0.00000000000000

0.00000000000000 0.00000000000000 13.75151002469381

PRIMCOORD
 96 1
Ni 4.677191885087513 6.389392713116176 0.8954541708432159 -1.365366078968429 0.360205896469199 -1.3064081123769824
Ni 7.451422687903356 6.803704104097787 12.069054491836761 -1.8345605242239051 -1.5268262152908607 -0.5215621602239147
Ni 8.92268099710191 1.1191368469385357 11.524082239128784 -0.7958944966577455 -2.0650046439152177 2.3038637271431033
Ni 5.001943765482298 4.259357118479584 4.36152561597446 -0.9682849067394357 -0.14941966021812977 -0.48014528784002464
Ni 6.590347267504663 6.327240367067933 8.588987259150949 5.79446074180766 -1.0954537259791648 0.9883608515537042
Ni 3.3239995442097783 7.675791247787264 5.757055777944861 -0.12222150253678304 -1.6679021315299858 1.0221268922605558
Ni 4.928826674484952 1.7151322765497599 0.43480052492377363 -0.46731445462394355 -0.2498963148786535 1.7323864272563005
Ni 0.8828357882668303 4.399098893653512 3.3507208249597715 0.6798171593454873 -0.08981274718877436 0.6208424805834921
Ni 6.836288281889973 8.160795647335313 2.0247862574940645 -1.157936932115051 2.3856587462337235 -1.2670362954475791
Ni 6.266938967682048 3.421648725234631 13.043252819444257 -1.1137036733282886 -0.29485822430132447 1.3576969924589457
Ni 2.147502142074791 5.3851460986006074 5.583979111078634 0.2597570097228171 0.747490394322745 0.37010927162584
Ni 1.734543727333686 0.3909687925655481 11.609547117454413 0.06900583774575211 -0.20109909087029237 -0.761160949831302
Ni 6.546431913698239 4.578640719902324 6.379724570397561 -0.7129041717074431 1.434495072555607 1.1026458728522301
Ni 3.245442361245399 7.945399950713093 2.140780480946611 0.6221403734593091 -0.547142322685864 0.8466380457591999
Ni 2.8313846533088833 2.7394292472961603 3.354900957802835 0.39354230583779964 0.01073795524279441 -2.1039776827443055
Ni 6.309360410222912 8.590215273002576 8.604305956807345 0.007524847622135428 1.4879920160324824 0.7928513389560475
Ni 2.39613031760444 2.379744272024978 0.9343325068542557 0.4468361321649337 0.40850072691984485 1.2579716141421498
Ni 2.5464891979990045 2.5010611415903488 10.23468554669141 -1.2135146693803551 -0.8394590115122575 -1.2993398926762914
Ni 8.276954294983755 7.032225549386583 6.580166121294855 -0.6809983241377819 1.1214596631246234 0.6711455997134184
Ni 1.9144237976426242 4.121334750611299 7.948482669494413 -0.14995727788915464 0.4243253526569273 -0.30202671702530565
Ni 4.331497059969896 1.1208468585758418 9.254683514752239 -3.053542644476735 0.09106975952432703 -0.2665058984108765
Ni 3.15419163035794 4.892174172302912 2.4680663730918426 0.25636932419750685 0.9538898143600281 -0.3341786191675019
Ni 5.435159241157645 6.637015552133782 2.9710822688416276 -0.7353864119703593 -1.1778789224546167 1.021257602281725
Ni 1.133794089544017 7.883153647981481 1.297762595524505 -0.4062669524933196 1.2409023173646887 -0.8513701611275467
P 1.8124807961878329 6.585461519969502 2.891117614760389 -0.7590657578651702 -0.9100375930617682 2.212909410150718
P 2.322740752225327 7.687141215138176 12.335242231921143 -0.14531875067587877 2.359754367663136 0.33501088526081013
P 8.148299408447308 2.8720115231974104 12.509033909147805 0.7363158657631641 -0.07187775997690848 0.419913853852793
P 7.274878079853997 5.246945213033923 2.2990740032516426 -0.2853608263338505 -0.14184364764308474 0.6593385797761613
P 0.6203311501704919 1.123665559076896 9.650191354691318 0.6909608346671327 -0.23240407163116103 1.342197611271766
P 2.7732818403138206 6.192158843389081 7.7603071636108725 -0.37456062252897426 -0.6282333737309246 -1.9268317602555012
P 7.434360154203641 4.131989438505284 9.080176827165145 0.8280057753699932 -0.9856771340739541 -1.2659651738705873
P 4.829317151129405 3.283100199939483 6.515768210514104 0.6293122086174001 -1.327823601938281 -0.027052119021785666
Ni 8.700586188955517 0.4489062417978823 4.79043505685103 1.1862902864467635 -0.22465425248241308 -0.17069271066429312
Ni 6.918152740108923 3.121259812837291 2.1050947930364314 -0.5552351269963276 0.07389479040693725 -0.5524269681235712
Ni 5.876915379351187 1.3190202951366217 7.610553364257201 0.16939867444321793 -0.004295027830928087 -1.9090908913323121
Ni 0.42513426133882537 1.9979982674988797 7.8142542725005475 1.6956872720630538 1.0655991045115776 -0.7182150423973953
Ni 3.6607027147290325 3.8357534115128313 11.657829577903804 2.2107589394666185 2.1342578217850856 -1.6646034061740558
Ni 0.05712472392119688 7.668969992574713 11.336882943185442 2.157920712619664 -0.4093630749201401 -0.1779293376220484
Ni 2.9664191986460504 3.16477115290523 5.448128082162994 0.590734348344202 1.2149028079771336 1.8903400930873704
Ni 3.3094174669509915 2.1151810429960367 7.639678996534593 -1.1679742617463948 0.9995996576923173 -0.768592980629315
Ni 0.5141779497339594 7.257261201722409 5.006264833350413 0.3267805269312179 -0.4337929258277303 -0.8715664335697634
Ni 0.08835592547287674 3.0824369112694385 10.723949942263385 0.1916214903971603 2.362731705123905 -1.3408634658413747
Ni 8.962452861171784 4.787854066758898 13.533686036157338 -0.11984503188480651 -0.45849094279504266 -1.122734416071989
Ni 4.049627009864483 0.8427284988373309 3.0782201353198615 0.5570094452879311 -0.9219909087689024 -0.46943278651852705
Ni 4.775639697920997 7.671130996292188 12.38764939077041 -1.0826709723922 0.015575742951069947 0.9194437168670165
Ni 7.048545825287688 0.9920134543409939 3.077945781804426 0.17158591190252384 -0.05032985860280364 -0.7584502357683583
Ni 3.667054186524741 0.47151973635100597 5.823434295611018 -0.5624588984382766 1.3705910748127945 -0.0476422844683115
Ni 8.710705323754302 7.760906607250763 13.598689967545814 0.6283439311668597 1.6178594651502978 0.6832341554468362
Ni 7.765876915800955 2.577739190887358 7.106698435324935 -0.6296017148333608 0.6186938096716054 -0.33292803458985243
Ni 4.019889719578361 4.1074855354827875 0.18780437698423522 0.7106608841992212 -1.359049392721782 1.241266899792959
Ni 1.303066450300655 7.0018117709802095 8.95406252934698 -0.5471477220025028 -0.3185817931705094 0.6123552690480873
Ni 7.52540418038769 1.908861561987211 9.666748401434512 -0.3695564844461635 -0.33862714185715875 -0.5401082986572182
Ni 4.867285046878604 5.7195849130506815 7.792719400672494 -4.1828017490411185 -2.3036788648258066 -2.1761637179902524
Ni 5.8349825115638385 8.597478124626958 4.421316830569654 -0.5622588666123285 -0.7679905711586257 -0.1340912573911755
Ni 6.135559337327915 0.2802868799906552 12.737033894843906 0.04952253221015987 -0.3789117004088184 0.28746913092610493
Ni 2.8651151026381645 8.584220836603667 9.924121125485263 0.6882061547401308 -0.2140800765109926 -0.6354697435783636
P 8.430714407316259 5.348080187011746 5.073426949755865 0.3228076583263989 1.2226408000513396 0.4714680717810009
P 1.465883986909879 4.403918871510315 0.9249180471807348 0.4893452091717379 0.32862683611133725 -0.26883017566867895
P 4.473493795544667 5.092339490551104 9.750577493902695 0.04043522519691101 0.5754655951105896 1.8079282663483573
P 4.688663996126803 8.851302104746882 1.1705161196717504 2.9206970865672024 1.6793628238714173 -1.7431701481353654
P 5.570353512856538 0.6647707822701114 10.583519464600366 4.753056746485046 -1.7531347155472452 3.272243764699507
P 4.923386582517918 6.355070336681673 5.075944049303305 -0.1526083423587565 -0.06638896894819533 -0.2794262060169704
P 5.2886619804495245 5.525611340236472 12.672223514223168 0.1951215331306188 0.1805390073307536 0.7324998344511836
P 8.807518290297175 8.017041921781551 9.228088135957961 -1.1357922776972116 -1.6448416501660963 1.1900978331183116
Ni 0.29893164423829466 3.7744842582882514 5.641295506633902 1.115278474014576 -2.069773268948455 -0.9239346627588346
Ni 5.614710463074794 7.23142311379608 10.320605175364541 -1.292823174603696 -0.8813304549350628 1.0746804979875557
Ni 5.791236279787477 1.4156735353177679 4.967898561263732 -0.19989889991460413 1.4573544936522838 1.4083829488495874
Ni 8.444901866504898 0.014162090884129683 7.791248039010943 0.8068517670001976 1.5860698314435266 -0.8476742003331981
Ni 7.845016630202218 1.3218953696476967 0.5183402308071826 0.33646767231199476 -0.11093050300399604 -0.6602811461950887
Ni 2.060714353647334 8.592103802338281 3.8998732105108105 -0.09598802276155081 1.212933857176221 1.3010663884490947
Ni 6.629630556821021 4.704664819304454 11.166954764778893 -0.126154261932286 0.3769646039847766 -1.5459421101847053
Ni 4.243929431070481 1.6833373348978689 11.871692841020284 -0.5844518577696 -0.706333717578777 0.560690493683944
Ni 2.779445398742792 5.65638025214871 12.971826948747546 -1.1923755734088948 0.7593835462159051 2.431909292560831
Ni 5.916884552456135 7.4272382376043105 6.677444173420402 -0.9858046607907538 0.6111237106338314 -1.5740566090327344
Ni -0.03326912201394201 5.956900703902766 1.8633987416057087 -1.3969538810770392 0.23347442187720435 -0.6684050608538037
Ni 7.443398787143688 8.783850601756658 10.950011601581593 -1.0031776048515626 0.6246289442091177 -1.4748593353052666
Ni 8.790389986919104 5.554982199457456 9.772084178725738 0.08830170986088663 1.2347995469010606 0.32623905260545105
Ni 9.351367760638897 2.92040861080051 1.632908903800343 0.07423289047264635 0.13686933435694493 -1.3360477896202863
Ni 5.497593457255993 3.2669678374051165 9.062176605765412 -1.109904354186856 0.3734753598845955 -0.28702895806489276
Ni 1.031644383385815 0.7858001443843741 2.3350481381797628 0.022555516703012767 0.23011810381046174 0.17908736248589158
Ni 8.787101503001207 4.901400718609696 7.201927292186215 -0.3049773150131973 0.20218049685992923 3.4238383210817678
Ni 2.701893552290456 0.4354375512370119 -0.1075099349443733 1.0947111913861858 -1.6057480265987443 0.5206640738896774
Ni 7.6213527454435726 6.899436568781923 3.7943025415111626 1.579722806179576 -0.17689164038615343 0.7105068751198603
Ni 1.7275815370960823 3.290269094880497 12.634749830628486 -1.5305566288675705 0.19571468662992747 -0.2651630112297369
Ni 6.959991651212903 6.451319563124335 0.6249801268635639 0.41863395869910486 -1.3211970977606988 -1.4506495708282823
Ni 7.235848473582735 3.646083054796898 4.454499512434897 1.207623500706901 -1.2401530979034898 -0.8228656259299506
Ni 1.3350493053192827 1.833057309845528 4.80887593509576 -0.6989497664098802 -0.25512388182618 -2.0231013188132123
Ni 2.779041385004308 6.242839078398035 10.900602600498615 0.3571151733590172 -0.5464247277935493 -3.3497825796169343
P 4.151927046716074 8.812469807510693 7.915548033273263 -0.04847300789972297 -0.10327170090715763 -0.7156547378693868
P 8.944450760638386 2.5040677554581396 3.638745977392654 -0.1691341079279216 -0.48747190340842494 0.705799699452178
P 4.694592662847354 3.3068430538266953 2.135128046875163 0.23529296314318188 -0.9008068184921196 0.34530506809796657
P 0.5275968432526443 0.3482833317444179 0.15904987360614825 -0.6795502788373458 0.2581076470448523 -0.4751699461126204
P 1.2622610627137278 0.5693126711014119 6.3429527432276425 0.24784971676226994 -1.7234628995144254 1.2787816089089654
P 0.8948481502354894 5.067290638765068 11.194403270258158 0.9285153401509815 0.014381208422336521 0.8591300075786237
P 7.220730843228748 9.120863829331027 6.095508421908436 -1.9008034545125394 0.24770084988923147 -0.05782565275921654
P 8.67394007355222 8.854224157599642 2.7105601167643636 0.7469008403678621 -0.262331969538845 0.5827356464094416
