# total energy = -340888.99997362855 ev
CRYSTAL
PRIMVEC
9.13389405141637 0.00000000000000 0.00000000000000
0.00000000000000 9.13389405141637 0.00000000000000
0.00000000000000 0.00000000000000 13.36837721240810
PRIMCOORD
 96 1
Ni 6.57496045065062 2.156366206794548 11.216817203200806 0.1528410271948529 0.8476700865681401 1.76529320528665
Ni 4.24766255346641 0.4915496339644169 6.219704041250029 0.7721873828487927 -0.7334390584360013 -0.6884077292279758
Ni 3.021053674241839 1.9070200372985875 4.242146594941972 0.04162564596058638 0.2708945143968754 0.7530766301612708
Ni 3.600562706434986 4.462921030938526 4.700574902856854 0.14765845455264892 -0.24370149892185125 -0.34358859962749216
Ni 4.172033911998716 2.7437303877391703 2.2382004157759066 0.07488903599940652 -0.8841208731960064 0.32782208082185477
Ni 5.348689525500241 4.539006367101073 2.610830404758104 0.24304586761572333 1.2132413611143105 0.08066219103775785
Ni 5.411192761437853 4.674133193414243 11.265478022937417 -0.14786671390871312 0.62620477333667 0.6479763606858066
Ni 5.917475366258235 8.410736115552105 12.372326025551848 -0.24901134117053889 -1.1922665586348564 0.02422082022057764
Ni 1.9915633592098154 6.608828929220936 0.25973597380387137 -1.1388822294764451 0.1730676386543729 -0.6766621586562733
Ni 3.1322040290752153 2.0178141702699786 0.30244332149837533 -0.7051659225229211 -1.2879833300128913 -0.5104344257418694
Ni 8.055217563396669 9.079227542090454 6.747193720920615 -0.31080343477667116 0.2001333845229134 -0.3697169212834278
Ni 8.91311854767844 2.534007049968675 1.223501528520789 0.019560952851063084 -0.4308986349990708 0.2571751079282539
Ni 7.042908102785023 0.7848006046447866 4.461642285792936 -0.7856357950442147 -0.0003697246345929116 0.7403501837335379
Ni 1.000563273060021 7.504178878480672 2.6707743236257584 -0.035461940352035703 0.40123118984162515 -0.8366572803974043
Ni 7.9127653541780525 3.8742415692727263 3.7024786945384305 -0.7260293962354916 0.6072827396211864 0.683593595668784
Ni 8.060296008403437 4.065541843052842 12.566461459997614 -0.23477822829029243 -0.048820363936812695 -0.6669557300017868
Ni 8.09575378451184 7.5837442282179985 8.759909351617253 0.030874063871037152 -1.0409139430600718 1.2414787586934488
Ni 6.995503193459259 1.0452919514739452 0.1955338336014058 0.8708524382218744 0.15556151144980954 0.1871619119639099
Ni 1.9610287519119292 6.437678025377743 9.077489362081842 0.29741698616743617 -0.22410737884000756 0.45674079287315533
Ni 0.29875596853213043 4.918400917903435 1.8243555573619856 -0.027804938027410176 0.12800211377430215 -0.8638690649255059
Ni 6.350969970612911 1.923981678265436 6.798167242591963 0.448134539261383 0.3945113546192883 0.31352211925941487
Ni 3.659722937206272 4.7285072637834675 0.41171940130407414 -0.03207219794419638 -0.7373126824587947 -0.06773519856344462
Ni 6.1605191489652205 5.944648700602001 4.629562531364738 -0.3107252732405681 -1.0054026375273395 0.03951477026517066
Ni 5.2039995122768445 2.9655926704988644 9.421296435482462 0.2839760301711819 -0.5851730522063405 -0.6535811084670937
P 0.44183567626147485 5.657743959401311 12.30561754486403 0.5094787466968194 0.188133788958876 0.5965255011046824
P 4.5315531096810675 6.424872306134058 12.530727840293519 -0.7525858065677813 -0.44547499015134895 -0.5860382284201132
P 2.5976611565373164 8.766921441962028 1.2825713337424942 -0.06811932137574074 -0.8157773516246014 -0.8802220523622324
P 6.172886441301847 8.10433964477508 5.585923238299306 0.4452983553641686 0.0712961764418256 0.6310613300980228
P 4.87616579252341 1.472703382493176 12.445277522718312 0.5584004120981867 -1.0203284055992363 0.4785527465419242
P 4.194165336911303 6.49250879044182 8.07923239723083 -0.8533949048670592 -1.5787090202030811 1.2562649158636878
P 4.912381681825271 1.0971450671275798 3.582591770192512 0.6986049814759517 -0.5982787363503632 -0.38414543800393197
P 9.026397099789833 5.74748446693997 3.8566697841935538 -0.6777695327878391 0.533005626174166 -0.5863673296247579
Ni 1.0784388524263917 0.32247851776158604 4.596957270320387 -1.5886774442697027 -0.7749068386624848 -0.5794826866897826
Ni 1.6467040612322525 6.440810950984436 4.73888884758687 0.9283747008080592 0.418528286359176 0.6872800433814358
Ni 6.023300660949622 5.65569796716837 9.008374100352146 0.2887973628192252 0.8038363772126415 -0.01599508987667568
Ni 8.69227926103522 2.554256892738467 10.046094967174815 0.742623810259063 -0.14972793548716792 0.04813233673085259
Ni 2.3865037974249823 5.258665867250775 6.608055288407853 -0.7064687004947445 -0.5442932832728432 1.8837619256492204
Ni 0.6744375914653371 0.2794021607536407 9.320846437349497 -0.7264307454389682 -0.8935581073495064 0.14229847579231622
Ni 1.8822854526253372 1.296364426916451 11.33193166798551 -0.47302410341421114 0.34362845172649203 0.3581598125734477
Ni 3.9795188303302904 7.052224674560028 1.204783439757535 1.9347430446827774 0.6257422318779546 1.2610325124556605
Ni 5.870919909064897 8.113363931945381 8.035276446240598 -1.2936150743773722 0.2764964339646851 -0.8855486067814684
Ni 5.566953054064492 2.993935143261455 4.631126253999915 -0.21168817924004835 -0.10416258815254319 0.10843884693039389
Ni 0.7431765367664744 7.657235538513779 7.431012734807626 0.6938589821505341 -0.1982521083398005 -0.9128822615994149
Ni 4.809734982210061 4.711280739893604 6.930634279002307 1.4772460903698883 0.30482741969889443 -0.5212965652673538
Ni 0.5107664333344507 7.476996410243007 11.029325763175766 0.6821604627666833 0.04069156418209121 0.09928597678653224
Ni 4.592942010563237 0.4073460929061597 10.434272670348594 0.09149579131815211 0.2580734513728072 -0.12018827415683817
Ni 7.981945466554419 7.62717589369854 4.380670316395461 1.1912409455838193 -0.3041681888483407 0.19827601959920046
Ni 7.124692988739338 6.397041331429703 6.7319803072456645 0.9046087087367132 -0.639343367601157 0.6807306722986921
Ni 2.4738146891870207 5.608192585009738 2.594774846065844 1.102113397387528 -0.9962752213047746 -0.3397627981234987
Ni 2.6401337631586665 5.234196165500539 11.368828945772089 -0.9814414987260516 0.9097234042554591 0.502975655470979
Ni 1.1944575727069036 3.860677736835586 4.123770416646628 1.4716053471443429 -1.0090962843288427 -2.234927566293022
Ni 1.5422671184132184 1.102999893115598 2.351604102233689 0.05696150498670835 0.9299777836291211 -0.09010431028726416
Ni 1.146577700898492 3.1203208331151346 8.14071355044136 0.9841861513507244 1.7095617160523007 -0.9315484705503506
Ni 3.8049792518512873 2.7074322933922366 7.28112644934619 -0.25936748759388234 0.057679356989339375 -0.3321209653075248
Ni 4.159410870632973 6.911352628985605 6.00516896817456 -0.0347955104126304 1.406530726132197 -1.2450433361162558
Ni 0.841305612460196 0.2216202345714217 13.273956440255205 -0.13755607601132439 -0.055928178626187555 0.41899622713453
P 0.1264021308626946 5.55426607544147 7.937299906574957 0.6015882603395704 1.0985081965347725 -0.003727328252916161
P 8.80595970447808 1.6588978095848335 7.976095207513349 -1.7440795473235124 -1.4773293941123136 -0.9730332200576983
P 1.8776545684195254 3.2898093682690615 10.19567344041192 0.6403946916838068 0.4609219208340385 0.787927933512501
P 4.21981331097426 6.31995126693848 3.722972412275274 -0.2880139476859814 0.39989524463902093 -0.9907182960422872
P 7.056645479206208 4.062737737626444 10.029263940890694 0.6221056635666318 0.16072222971514255 0.6941880833551787
P 6.501313864158591 8.024774295037753 10.099929224414723 -0.10524605102470908 -0.11734077740571404 1.8626313143181923
P 2.153744779246091 8.197587567570212 5.98329785923804 1.1772232911484888 0.0714661263607866 0.3340886305568569
P 7.286572990277009 4.055293614100337 1.3492569796955716 -0.2486094777464299 0.3979993131678887 0.481689492398693
Ni 5.770775896377484 3.2834247764350137 0.01723931134131932 -1.086690377964238 -0.08087430704856394 0.3839088965130936
Ni 1.856756219183042 1.1016480768188324 6.757634675034349 -0.3816285851193492 -0.840191775913224 1.0532544669032957
Ni 6.840181327739678 1.031335361599231 9.267894514260046 0.9830273551559329 -0.922314096436276 -1.5530185574155124
Ni 2.7108301019219443 1.4855365034185515 9.075737481232386 0.9616383479571954 0.5810572302657542 0.3990745485099385
Ni 6.774198078227285 2.2027298522160472 2.529310401726805 -0.7877782953085142 -0.6943264087052559 -1.0902603547036835
Ni 4.224133642787572 7.0495667114359835 10.359971183664145 0.24106688951248162 -0.2003760966613388 -0.021989359786897613
Ni 8.74416891226444 7.137736189224346 0.4363142374006994 -0.5724725739205366 0.27797636094432127 -0.09001509300756756
Ni 7.832451025141165 3.8182416657898246 7.919453191289484 -0.18896425527997132 0.07295839463559692 0.2171515163474647
Ni 3.4334946531637813 8.629629882795253 12.382579734840693 -0.516090338476066 -0.36647990240336886 1.125787858186332
Ni 0.16435528678377653 4.935380826658077 10.191716637575713 0.1727195112863348 -0.15812490130161153 -0.5371438167122556
Ni 8.987422774531058 2.0548977794920598 5.619731433169899 -0.7144959416745953 1.1609842035818068 1.734163316651065
Ni 3.6403316804628045 3.1358758544218355 11.555357673380382 0.1745809899751058 -0.9247707855068847 -0.3239237742087131
Ni 1.2934872503388757 3.3491431430243916 12.851902951395994 0.6403574106879681 0.9537723149455573 -0.2485112616056688
Ni 3.1784580677699497 8.426656492614688 8.169709096617591 0.14646083470012194 -0.19107050298969674 0.030779447274701832
Ni 5.835233785609066 7.952433855373003 3.1730782042645784 -1.3537416073556234 0.9904858683165071 0.2352770223035819
Ni 3.117471058219251 8.505710344293782 4.0877289847182015 1.7036273528457369 -0.8453221551612538 -1.3935566824700323
Ni 3.577426553193722 4.4991095185586945 9.18521085314626 -0.7477115091946155 0.7888597012981511 -0.37870318394243807
Ni 7.534421201173852 6.326171448682381 11.247804851635987 -0.7530689168517869 -0.0988152077977008 -0.17828929206462843
Ni 8.38611113760562 -0.04828176313988233 2.3794378171062136 -0.4663289507822227 0.45726786902121896 -0.501294154003498
Ni 4.799404548212481 0.4503795206127889 1.3220535035019445 0.22755908483403392 -0.5640604385974415 0.11805323009170636
Ni 6.4144322654097135 5.742241611843054 0.020296425628666768 -0.16370830892666 0.9840424266840084 0.2577788029505238
Ni 7.99675150856156 0.15502227399975613 11.351436185013302 0.6781706248809998 -0.5290304435765018 -0.1598539681775763
Ni 0.09277387370187266 4.599618887001992 5.898475953562952 -1.6667230236202197 0.8350361998542134 1.597717442984784
Ni 7.151290887767589 6.07651472679392 2.3281829715028364 1.414372847884435 0.19964616047384973 0.3901623336219732
P 8.888648845928206 1.8877201194940902 3.5527668664504275 -0.6668665127220902 -0.774441468990292 -1.736614863515351
P 2.160604333562786 3.326153132085481 1.7948786549773794 -1.3540401124326487 1.11562223050724 -0.06288429822904655
P 4.879316985917897 1.0423691054268847 8.330757913810631 -0.8730422467843416 0.37767242868507855 -1.0788094325542645
P 8.819541804703016 1.9990988216748935 12.180743514450313 -0.15131044948293942 -1.221614158559038 1.4062463621225587
P 6.798558173250757 7.968472973056248 1.1861731309422663 -0.28250381650102957 0.7783654866350466 -0.9936131010915792
P 2.085532859622814 3.0214372977855155 5.941374199639903 0.02228400820918098 1.6690159334194548 -0.11414900994129372
P 6.810706252133852 4.115778259486697 6.011117873269718 0.11113002060931183 0.30720414746118707 -0.45696447884818714
P 2.409018845881246 8.39261447006033 10.427387541128988 -0.08088176324773166 0.5142589416942821 -0.769886759740074
