# total energy = -381172.20118416887 ev
CRYSTAL
PRIMVEC
9.22582180166878 0.00000000000000 0.00000000000000
0.00000000000000 9.22582180166878 0.00000000000000
0.00000000000000 0.00000000000000 13.50292276709833
PRIMCOORD
 96 1
Ni 4.519038017876036 9.110378798873787 6.117836903701886 0.7447272297553109 0.309303453192377 -0.8318783709515222
Ni 1.6866462355985528 5.985408539260719 4.936681731510967 1.920619717907518 0.9717700370745586 -0.07533743639073476
Ni 3.583539717436838 2.0247818195176555 7.453950819027291 -0.7941227494693033 0.6522441348232251 0.8833390007246593
Ni 0.40302724462718165 3.146272681464292 1.9485396306140115 3.110700067524333 -0.49322474673180217 0.7110264950687561
Ni 3.538905193003654 6.292213233354462 2.7685989169104523 -0.8674282430316738 1.3812498400782212 -1.7179028889281447
Ni 3.864244562497617 5.844235018616532 9.445443106814425 -0.26101376494805373 3.521636143358548 0.4201781632577731
Ni 1.100806570136136 9.076842937709127 8.709358170423583 -1.866712169255785 -0.5388829108905493 -1.1228367459778081
Ni 6.711314626786923 3.0382198600171133 0.7559748849699053 -1.147441689010682 -0.7568494669401417 -1.9098010300254595
Ni 5.457645420161861 7.2913881538097485 1.7263753907384078 0.4424408313107155 -0.08400282537521662 1.13072643313853
Ni 4.34802819049003 0.44672442559562564 11.346559247154792 -1.1254803542482426 -1.3472675695955056 0.2698948694877674
Ni 4.2023247914877 5.041422483038445 4.6330820878074865 -0.4272085877419933 -0.8908257960200078 1.307245263566297
Ni 5.064782263084914 7.152641024220941 4.184879685607025 -0.32773209221120975 0.834351515082363 1.0472810229286802
Ni 6.094476201073266 5.62345188421998 0.2538927626077577 -0.2783165178925594 -1.110773129945055 -0.3171735999690731
Ni 5.0497164965699515 3.9978252320445518 8.708196639496311 0.9074441213029791 0.11790179211550664 -1.012368013101579
Ni 7.266330822606663 3.425381459404992 9.536668029839504 -0.014774844316329392 -0.13679117282084183 1.2265172522876102
Ni 6.492459689084569 0.9254606066435581 1.8696551664318088 -0.05529902968262089 -1.2266386083568228 -2.148383205442874
Ni 2.4040553415201744 7.94897703310368 1.0564811107233143 0.8261111294504417 0.612026682064075 0.6342836936900624
Ni 2.8239040264944055 7.798577690956148 7.780343777336936 1.0518308470828919 -1.1692233036621476 -1.7590032585128805
Ni 3.6462660778380815 2.578995368866605 5.323703098411995 0.6315341559693833 0.8969619908247325 -0.7663126692355706
Ni 1.124277060040646 0.4647775131133714 11.30336395087613 0.07839730626298111 -0.11655916204468313 -1.023926921583772
Ni 5.10285722842922 8.493254372693526 13.381477476758175 -0.2870860365550733 -0.04583994115225008 -0.7798826946105213
Ni 5.984116924250251 2.051758121593437 8.183176357130398 0.7097054622644874 0.0980806436245214 1.0692310448372102
Ni 0.6997065996210031 2.653835232901741 13.169993970436993 0.6218004736213872 -0.1590438135714551 -1.3837996030832684
Ni 1.4244668401164904 0.8986365306225822 1.6318144106577215 1.116908296308515 0.20072191003653173 0.1531585584352717
P 5.151541888502372 1.2091822953359312 4.104834613079702 -0.45452244506559786 -0.790890872795567 0.24897097485090666
Ni 8.797881772912481 8.85508186623322 2.307068892966259 -0.8722187224417818 0.7922957235628936 0.4017073581470953
P 2.691448907170879 1.1283733247881313 9.218134548868559 1.0822112591469621 0.38883075929474326 0.8448472724073642
Ni 4.184555859272257 9.207010053299824 2.3730169102364704 -0.21473056561079792 0.4519911940033119 0.608101635978056
P 4.250880290059805 4.713739754882631 1.2797284620434104 -0.30563628875343496 -0.7135955413475129 0.25663131960964186
P 8.465373940110418 1.6949771524160733 0.892273481531725 -1.6339437723066699 -0.5586150992121541 0.715381172493026
P 8.468621429279596 0.28145951725975304 5.702608510136531 -0.15877487618078465 -0.7288450113074157 -0.12739841875203223
Ni 6.916303154769748 0.69351976372086 12.799514501491462 -0.9385418711490482 -0.761998615241249 1.226314906468817
Ni 2.4759429426742403 1.7246566201923346 3.564123053500898 1.073825606186428 0.25829302358278095 -0.9376666676329463
Ni 7.716790783328993 3.6249359785223474 2.6060104193927 -2.1387595663101813 -0.5959719425940575 3.80834371352828
Ni 2.2459432125958454 0.40608468187339025 5.749233966850136 0.12668236652161408 -0.7922394164036614 -0.29453066575857656
Ni 3.420943839261883 4.805287581660325 7.115675925203488 -1.326430064024864 -0.05658920924895416 -0.9375514822113209
Ni 2.5915886152186713 4.5474812255708486 12.44753372724229 -1.2021923023890004 -0.4230778534030713 -1.1451950590683502
Ni 2.656427688744181 2.9669688405467785 0.9588137965424515 0.8495788735550788 0.6064813267658136 0.4539316055591344
Ni 1.6913698562082653 8.225733226561028 3.5347812507916587 1.218260925816089 0.08004692605126214 -0.22071249422584568
Ni 8.230724395994338 1.7895141453608512 11.463333237669083 0.8846754601478957 0.9617231943615179 -1.183386225426091
Ni 6.5983721199429715 6.7666603299854895 11.610650232852347 -0.8149060047632417 -0.5303571328077253 -0.31679616202499633
Ni 0.6519592830125907 2.046148822119403 9.431953110612234 -0.11762874095977806 1.4680957913291877 -0.0030773533737430874
Ni 8.655767218474953 7.758740593704703 11.48378965168845 0.5231675570378216 1.189946652252428 -0.027017666239424438
Ni 7.368497569934707 1.6406001604753573 3.78774497317403 0.7131268292412105 -1.414664153872609 0.874184587918901
Ni 1.5757795385928541 5.179449998549991 1.069806887302746 1.5889276126072958 -0.5474991918046507 -0.8380667591504211
Ni 8.97436251244997 7.412744609864751 4.495527856939061 -1.0117627754174123 0.6941081220468627 -0.5976179628379127
Ni 0.3913611933362017 3.973911902707881 11.219591646461456 0.152239389055112 -1.1811120846799337 -0.630277914964779
Ni 0.735766645548978 1.8592521301046372 6.718675909764442 0.4176127165234421 1.4436343158527138 -0.460095311167685
Ni 7.535660229753818 7.578200492705743 0.3708337404912588 -0.3194976201165594 0.17057443991887397 -0.20030282022124213
Ni 2.091696702881418 7.716523234505395 12.275493375594362 -0.06900120976006181 -0.4462522346370056 -0.3782871794509421
Ni 8.234018014271031 0.8608438754162792 7.836461681795334 0.3476715114476141 1.6663517563237302 0.7487373793559686
Ni 8.73831064346538 3.2137872432257715 4.839717424928659 1.459464340906435 0.4166464959554308 -1.1710122772417704
Ni 9.097075164265963 4.313864973463143 8.564647469815013 1.5611465858392857 0.6706378068390644 0.14836396526010578
Ni 2.7174841754533188 8.166641839832103 9.947940391144225 1.7379001579856779 -0.8036895672221321 2.36874037321183
Ni 0.3693862090973839 6.985810493975951 1.3176917949475253 -0.652859914030353 0.2840691041056205 0.3472043420032085
Ni 6.42817416484926 1.331489011005778 6.205983170091297 0.6709193426352252 -0.4054989639790436 -2.5093997707388267
P 8.520765772416503 0.22393559760424572 9.917882664686326 -0.05205018372802003 -0.4305872744062391 0.5542426811760713
Ni 8.200620540428922 4.847763263861727 0.9699502856791394 0.7776610043688542 2.284739604719143 -1.5504613382112975
P 1.5701148841898003 3.8129582207605215 5.281560468366865 0.867606420480751 -0.629791976467296 -0.1854449292728032
Ni 6.404233158048079 9.0704217659428 10.236065564440144 0.6997532361477818 -0.3078788049307085 -0.09979274121962169
P 3.318251220108148 7.4026515611400905 5.6769395069677735 -0.7857813194831434 -0.5986093802169045 -1.2207916626577426
P 7.461576883081956 6.610384139540326 2.64688357639897 1.1110724063530286 1.0757575331018183 -0.8140997068118625
P 4.343959603207055 7.187486952039076 11.417139549401835 -0.012433597777662456 1.435845158825598 -1.4852550767172938
Ni 2.747901708949848 2.281776303314838 11.209329765203286 -0.16767757798705313 1.0283546183378225 -0.2844000050824779
Ni 0.6734905052370975 7.78928728870228 6.6489203959598 -0.23115297283287936 -0.3517084005211491 0.15861392512288813
Ni 5.162308422196776 6.39110481404882 6.459514280496124 -0.39288770297293624 0.11940280214106533 1.2381892893089
Ni 6.764353874609654 8.579497352106797 7.585982473143814 -1.5927454436914892 -0.7280618532844881 -0.17964734875441962
Ni 2.5079565432908475 4.375410428711958 3.074939552182577 -0.39300674504930383 -2.848750163915255 0.8697039264397279
Ni 0.38182722939464486 5.348374790276241 3.108143283773116 -0.9660027955734781 0.2852572108764507 0.13853206677134852
Ni 0.10639863165162855 0.07682341565835502 13.400489127130117 -0.06029699711784454 -1.4999386468713973 -0.779196210066458
Ni 7.32931550601 6.954322765185034 6.166798338420139 1.1180722347096292 0.5552685513374244 -0.46294383636007375
Ni 4.434547944548401 1.6236984554812288 0.3977731392810266 0.6239285757079835 -1.2143045122715022 -1.0736903661601442
Ni 0.4099779785478019 1.1134367197742154 4.109925421385247 -0.09307033489412359 -0.5224353068574874 -0.012257477211114374
Ni 7.0030720060087095 5.370184632310148 7.875511816472543 -0.46146750892486327 -0.2973840760469717 -0.07412773235334975
Ni 7.7071867031440116 3.450853952575728 6.744965810720374 -1.7956283659350818 -0.9418891903547262 1.3471109894129831
Ni 8.290258622155424 7.1044637843304725 9.01879130106363 0.20442481280941568 0.18482452207998493 -0.0517035990218787
Ni 3.8465309852111944 6.311384490438414 13.24704157355788 -0.16473417908801308 0.05198899147278143 1.492278045002346
Ni 5.744264016806284 7.086870142723592 8.937152006580527 -0.6163839305915062 -0.015014471130961238 0.6329276938828002
Ni 7.139245131398083 4.020382365620231 12.143447882745583 1.2277817208223307 0.45291164893505226 -0.9633522453245086
Ni 0.1966253207900434 5.804277985685544 12.74708231272365 -0.02093546460108653 0.2943604587292995 -0.4152413880777881
Ni 7.643436276555896 5.357111643239908 4.449510381862526 -0.1519470546256738 -0.2024628039870384 0.8816299884533526
Ni 6.746068296390023 8.52290616300528 3.579300452456051 0.3591756554324717 0.2008905744039121 0.6914282612218544
Ni 2.4114083212583406 4.156813814011699 9.135861440448176 -2.628235644632828 -1.449955372974735 -0.29020529891034536
Ni 5.862935758803812 2.074776546244283 11.10032022606621 0.26847510632210536 1.078850313094529 -0.5963884613061858
Ni -0.028835305108705248 5.226446333288031 6.336759189901214 0.40386297103751734 0.6193797799950366 0.4566328065403813
Ni 6.091081098760035 3.3482812691015367 4.442610389960174 -0.3848537769248662 0.9144565480650703 2.8558883176219334
Ni 4.836452406698625 3.6602062941296363 12.474283074109088 -0.47193138457066464 0.5992089614741164 0.7464447266670499
Ni 0.9481653533632907 6.150707583136155 10.446536075560257 1.0971524538378266 0.5517502537715208 -1.1234270712636394
P 5.389199050428543 4.0696667040911 6.4585963112565405 0.5045923651387955 0.06677643419460112 -0.34469597375905797
Ni 5.932046387685371 5.134815474116808 2.975139228070141 -1.7703971021721185 0.33771388601427 -1.9719438221027914
P 8.083960027519122 5.301802843327355 10.47020676579139 -0.7321064556675068 0.7532488940730768 0.16499231784540616
Ni 5.107645429789456 2.746619319760883 2.4918288847208503 -1.8188397710545383 0.4938544098960011 -0.6302756009719339
P 2.459244205753185 0.9024624788000194 12.97949459512517 0.3362229032910403 -0.20547870799522677 1.2692086205085498
P 4.011202673224402 4.072582063686157 10.464129717167138 0.17758738090159737 -1.542288315482202 3.6194203387885735
P 1.3093747168622596 6.100343823549393 8.131149181926583 0.013681097031518374 -0.012689679652526533 0.30244503550964685
Ni 4.711221105612219 0.29339311737432994 8.38195221691287 -0.9120901047154226 -1.898767140808801 2.1123090854281363
