# total energy = -381175.85329120955 ev
CRYSTAL
PRIMVEC
9.14026216881227 0.00000000000000 0.00000000000000

0.00000000000000 9.14026216881227 0.00000000000000

0.00000000000000 0.00000000000000 13.37769759592481

PRIMCOORD
 96 1
Ni 5.18042630257578 0.3010061946711988 8.09290498395693 0.3702817926479623 0.004577849178669535 0.5796786047506726
Ni 2.8382524416049484 2.4691686614154356 11.66057592713958 0.9932217791904314 0.016251171751539756 -0.6404196313844712
Ni 0.7300793425214297 0.21411337979379363 1.5034259433460564 -0.3163631882526358 0.40896558237140535 -0.015400650825786379
Ni 4.9050850496181555 4.592762296545456 10.71866552824965 -0.653377734207036 -0.6635737009034314 -0.7474754819244095
Ni 8.786186545629796 2.5253995533353435 8.510209130435888 -0.39029114589035363 -0.14159527907770453 -0.11901430845339503
Ni 8.773088550161457 7.354611287962089 6.180562912583622 1.2537382927870924 -1.2319283960008525 -2.631677580434842
Ni 2.46675563224332 3.249966403835171 3.417961677603105 0.6755768960118945 -0.7133947381906165 -0.31433201675521993
Ni 1.60064268417007 8.952676418243763 5.378837626252992 -0.5504937556566003 -0.3591049500955364 -1.4461676237975287
Ni 0.7474842294515156 7.969778342397324 12.589670764657452 -0.134646101453381 1.2452950471157456 -1.4203203237171216
Ni 3.1096085403237756 6.066218234768595 9.181635411603278 -1.0004535210521803 -1.4092794925219276 0.27795810611187616
Ni 6.092313682823104 4.489705842319681 3.184025811576102 0.0757413566973728 -0.8545647568054444 0.14798755575729353
Ni 8.263911974059 1.7450771045404188 0.25454715687215784 -0.09860412022815922 1.9578269230854348 -0.5533139987142148
Ni 6.721949772029016 1.7135980421587278 6.863267363052048 -0.17853406108558287 0.49053717259730995 0.5301750987039063
Ni 6.485573456043851 0.8623855492232922 1.431480198942745 -1.0076245848793226 1.057542038535056 0.8131980209331996
Ni 7.743108984672714 -0.4788491867347293 7.521771141781799 -0.9114401298362498 1.5259235009709333 1.5976832473127387
Ni 4.652219700956866 3.062481349371395 13.264950580290616 0.9550154433240392 -1.370268144255737 -0.8398917281743019
Ni 2.3010792429487408 6.791781373828122 6.180697274435252 -0.9771729532576848 -0.15157784421171314 -1.0115550302819805
Ni 0.6032691753695412 1.1033575889498963 6.914877852523076 -0.6501594843800544 -0.177622605014907 0.15902375896679707
Ni 2.1176341842958553 3.8093870002373236 0.17764099227298605 0.6594807617809804 -0.2807161284729875 1.378966186250367
Ni 3.2007917941912982 6.8544835712550665 11.4729135515927 0.5974397853888356 0.8178383479186883 0.9577960913929698
Ni 6.786379478976908 4.59003849846481 12.3575812315576 -0.7576202836678952 -0.061724216482674336 2.3022575589982477
Ni 2.9361812088399764 3.555333417514008 9.182183827324213 -0.9474183477030715 0.35910135055111053 1.3127150284316167
Ni 4.279315291244838 5.230697743661524 12.916353783382846 -0.9333999219367924 1.545843894043944 -0.10178046107361181
Ni 8.49439282104411 6.163763110998968 12.743915428249133 -0.10350284308135721 -0.6232060957196622 0.010222963279588845
P 8.114194482243642 0.7047507624500291 11.547373782076502 2.7750842016896726 0.8493844981560855 -0.7771524401635519
Ni 1.3271934654496726 4.977859815786281 2.31039499799503 -0.1149131418008279 -0.5522310500626813 -0.5025527090009474
P 4.717398909390037 5.950731024201619 5.325272948763032 0.03146181805370711 1.165515515793257 0.5249426466603734
Ni 7.177271924335617 5.404582088246102 10.185163058818903 -0.305454511759932 0.6904481566967722 -0.21997201651539536
P 6.395368210211996 3.125485175444855 1.1964465874476697 0.49292675587540913 0.6858559093403994 0.4372500311383953
P 8.198933851390173 5.328123796485695 5.554741054716815 0.6464902630585834 1.0741467369712727 0.8081308908229372
P 1.9004432782814127 5.970227203080872 13.30552511740402 0.3427473346731194 0.276528315643885 -0.6427709052254672
Ni 4.2608702424973774 3.9687109074310682 4.777737435059751 0.04096641511003267 -1.0142279491284532 -0.2596161132695787
Ni 2.2556430004692443 0.8711090152909712 8.89220901487963 -0.7648692519208247 1.1340989491551887 2.9050575802577323
Ni 2.612917562134615 0.08803991776036164 11.236302330873734 -0.5541555207789037 0.18936611870408032 0.044776789995058366
Ni 7.8858981578802565 5.948519080793846 2.550096541301467 -2.0646279773020892 0.8194797401768533 -2.342272665938605
Ni 0.20193855078902814 4.500290265733734 9.830908439723483 1.4031929200082158 -0.8697846590789923 1.4242073174763537
Ni 2.177384077091765 8.296999722555435 3.039105129266524 -0.8179761590481333 -0.7089215329106113 -0.6238622412464223
Ni 3.1135571335145102 1.5597765726983686 1.05635013542992 -0.27386156744499934 0.8269480235294404 0.992991151236864
Ni 6.650801972499666 2.5787147016722787 4.315778538503629 -0.09797599972585706 -1.2572360215277059 1.0812614936391831
Ni 4.851824742853315 8.537982730596458 11.045416184913957 1.0614922814320558 0.20950376999421982 0.24751933000604467
Ni 5.870314998988461 8.706236673779433 5.990251689104626 0.2694752654518455 -1.184805474371121 -0.06472186565841757
Ni 6.32041806168416 4.403951904089419 6.013944162275235 -0.9686271205702028 -0.28118484057928994 -0.12079762560606294
Ni 8.757531824210922 8.514419135120269 3.320130711171644 -1.7484753623983627 2.0268798120190383 0.5473348983126445
Ni 3.1476594510946754 0.24506961918819287 7.165870361497371 0.37862013731032856 -1.4195340803704004 -3.6712869457508766
Ni 7.899325202781157 7.747404907820041 10.90500347983047 0.11736134623100433 -0.8257249497556166 0.01472239381183916
Ni 7.406454854114514 8.756828024035721 13.210462736337082 1.0680683919876766 -2.8162051400996986 0.011127734482045352
Ni 5.939022348559649 5.561045093428967 1.1279887670295075 0.775914968212025 0.47630303127579904 -0.24970451058282156
Ni 5.993891341439234 7.48310509137725 9.187080265685964 -0.10681802349751926 -1.1635481076542413 -0.013181017466648265
Ni 4.522409699811462 1.7628457738987253 9.940766162915057 -0.8387732982991426 -0.3571560538992816 1.1137833775262884
Ni 0.7995645283901442 2.325511163316412 4.68973864847846 0.25002795536051137 -2.3911688774186755 -0.41255201417108306
Ni 3.0649492201156043 4.630420176049686 6.843561872172638 0.8730095937741933 0.29474072488685366 0.3131346540130091
Ni 3.5160851324190654 6.472676546339853 1.738137817618183 -2.411734360274853 -0.016979308166815917 -2.272230159398222
Ni 6.165965914144725 1.3804263514284671 12.01088469512287 -1.0741333672348339 0.7350526827800244 0.21763745484494776
Ni 8.366995849070822 3.1366637158899207 6.085782051586763 0.5803815443549682 0.4494941386130711 0.9924651035300649
Ni 2.7226007063216917 5.8282515131927175 4.0658700646043835 1.1265396487506922 0.3066415900894977 -0.7048226802508893
Ni 2.3716877670191714 4.746236436049223 11.24335221496636 -0.42766135900869573 -0.4730912092067207 0.09454871921186297
P 6.161103294752432 2.544310755445599 8.985437859386241 1.2699336716000325 1.0620548388037452 -1.1077034898807956
Ni 4.180317113353985 6.992949400529235 7.411458233541848 1.6672686117110447 0.5876487674403428 -1.212190551252293
P 5.827090699916736 6.451096387721046 11.551199895756229 -0.4180855423948026 0.8169816563453479 0.4082868111368259
Ni 2.6495882933411607 8.383439180436866 0.39260715851283423 0.8689832462236196 -0.4602050972726719 -0.491394892611915
P 3.105925014731493 1.0099989527226632 3.8091786022633682 0.3952837140089386 0.23902671915400128 0.7023168831099001
P 1.2539251251327057 2.3780585296440377 1.8457342399871004 -1.4641589181686268 1.0559896064462717 -0.6865444507669918
P 3.471407531686863 8.1199162862654 9.295145583496282 0.2668018323847405 1.209852904258052 0.28793270082608474
Ni 6.880953770052215 0.4498654158832944 9.77310359468449 -0.7646874749273218 1.5984581778055502 -0.38072715635100235
Ni 5.186184667645602 7.67679638374961 0.14077374543310492 -0.16444004488636194 -0.09036784836129598 -1.183258441598975
Ni 8.454184808437532 4.069080124624259 3.9221266480424135 0.60485844645041 0.2627104359241863 -1.8133489231432962
Ni 4.080030158518935 4.188278281569564 1.7918222325405475 -0.9077125444730174 0.6149929637812505 0.8762383851241361
Ni 6.827958530885826 6.9409778707085925 4.365303220182699 1.6720940581241461 0.49794812034940056 2.203787907465424
Ni 1.2807974954585395 1.2968934968679928 12.980406911535695 -0.3026424962324336 0.49768201117220734 -1.8284636672975478
Ni 5.083969117525262 4.774626089869644 8.198549046359316 0.9338971732881851 0.5256466147059334 0.9235963055828093
Ni 4.785859471886804 2.164642551842033 2.6740677430713133 0.08501326891760197 0.30198455093346055 1.055868250377059
Ni 8.48898178593088 1.8602352656748335 2.7340936717800943 -0.37202860013573996 0.13488984203307092 0.09703343330692965
Ni 3.7678445093764688 8.194966977675408 4.736493830766805 1.3862290384603675 -0.38209446901217425 0.8154109694241183
Ni 0.803163049545682 2.092717830041358 10.434510320630393 0.007836208214967149 0.19557584705921802 1.9099599242008267
Ni 6.654887669620634 6.5892697286107165 7.071210151959118 -0.2507123830220456 -0.5360760375693735 -0.09557741758669346
Ni 1.100716053227391 6.764141221492978 10.511298575849562 -1.1221394628004673 0.2526031722868553 -0.5342760082461573
Ni 0.2792880180959561 6.554728678453802 3.7926977958230585 3.2753216322938816 -1.4566559249233622 3.2243731662704724
Ni 5.044592868762101 6.667117340197494 3.17656095958797 -0.3119789431420111 0.453017064164665 0.356900743355366
Ni 0.9063163905488211 5.097816614478881 7.627601665529304 -0.035858404459505985 -0.20717923562610124 -0.28662195243446115
Ni 0.5890652081973148 6.980198735017488 1.3071214500634378 -0.26240190354483195 -0.05331850891748237 0.8690212985504066
Ni 1.3488376059025893 4.456919722469761 5.341005167744265 -0.9455522410286101 0.44274473570437944 -0.4477121070119837
Ni 7.7120503743437405 4.470748938899348 8.089828371762481 -1.458408903058727 0.3953230518873062 -1.056912118260541
Ni 0.320949332363014 3.905953868432029 12.242746635698536 -1.3068966219776266 -0.3004655431857729 -0.643994236109607
Ni 4.595403832267961 1.4455324377655128 5.561978314180759 -0.6063831106250525 0.3839343504343904 -1.2335942137390496
Ni 5.888312174897157 9.489968440306173 3.755587418013563 1.222353607828224 -1.176179937485639 0.04723373617598317
Ni 8.293626965871683 4.277916831156452 1.0655406688865956 0.06705976976297483 -1.1618249543155474 -0.1925494015280684
Ni 7.438135002260548 3.0262036494315194 10.985992599472004 1.0341493706427287 -1.196998674003203 -2.26558437194693
Ni 9.110291096440593 0.31199918779734853 9.222236455476526 0.485804285898015 -1.0462394690380432 0.823142276630105
P 6.577350826942387 7.887086391942283 1.87797468619469 0.01173322927652818 -1.040104302674583 1.0208385124664354
Ni 4.249006182401142 2.7568035667840283 7.475175914078725 0.9149193466341016 -1.9215584276717035 -0.34759694945593683
P 1.9102690599481715 2.709978004478162 7.480767926379864 -0.1987439603745545 0.628836297422246 -0.5098181323141091
Ni 1.1327435313300172 7.6745935806038545 7.894888519598791 0.11072070098603512 0.7080908094791999 1.5826484644668035
P 4.3692097681681625 0.8236893359540918 12.917010054195565 -1.2248437212399292 -1.596757907284992 -0.8882986587227798
P 8.726930226982729 6.325554888936921 8.878951978852218 -0.3746678375307999 1.5475950724070962 0.024108720122745578
P 7.888046119453921 0.3623291265599917 5.234773386494275 0.07052947347913015 -0.0013012353099267912 0.035581753759351624
Ni 4.301315901916362 8.875496045784123 2.034507157368873 0.5084549334179953 -0.055993998867116465 0.8221786271652549
