# total energy = -340870.12253172643 ev
CRYSTAL
PRIMVEC
9.26828569352919 0.00000000000000 0.00000000000000

0.00000000000000 9.26828569352919 0.00000000000000

0.00000000000000 0.00000000000000 13.56507296515421

PRIMCOORD
 96 1
Ni 3.9886716968220393 3.68207680065241 5.870814018098144 -0.7505124689785204 -1.2700802244802254 2.161161331044149
Ni 0.013113697659927696 7.32918435876407 13.014548318308776 0.36979225460605347 -0.9743100298875929 0.5076959437647837
Ni 3.0352245940783247 2.1633847483108366 4.036436734817801 0.23128178510125977 -0.43865848145014774 0.20594947698405824
Ni 8.103568178738824 5.4723667017652895 5.59667758583044 0.6400802457671815 -0.7696458473738615 0.877073736541238
Ni 3.8679986149560004 1.4329326033011387 7.426307653094517 -0.681792023683671 0.6162900853261193 0.5726294112133751
Ni 7.183505441654209 0.6180853009292461 11.828988118204332 -0.8528932826402923 0.01290873764186809 0.9161205660310544
Ni 0.9294885838018014 8.404824542254472 6.459063780023168 0.02846442598828001 0.5087153861682335 -0.3024542914810275
Ni 7.714828465013227 3.4599530617890086 4.418849916616996 0.022856592883199345 -0.24392132824214122 -1.0656638963112421
Ni 6.513723495868404 1.3088673288112158 1.6214198791301144 0.251774762848289 0.9338431801217981 -0.48802494769841753
Ni 5.498873999318046 2.487292802462475 3.7053809786127765 0.4470644461256559 -0.7088397718300824 0.7726956899437789
Ni 5.017266061299229 7.032339699316644 5.563850244151383 0.40425095050455545 1.1016603690105091 1.8820901943737522
Ni 5.35363069164349 4.975846091801585 4.603429683128405 0.5144157789871204 -1.0067686646369307 -2.0422280123403342
Ni 3.4279033292934042 8.76005940260482 9.757818180033754 1.9360355382419558 0.7032000570458019 0.14558383141180736
Ni 3.2195986046436946 3.7678918594079907 11.11870747053513 -0.4400075392788745 -0.26705560026675945 -0.1440519681483132
Ni 3.383054094028446 6.5636980932126185 10.281403111530256 -1.0477561627928857 -2.6230936954205726 -0.9055710726499823
Ni 2.1158847832906025 6.963893408258219 8.31285348803227 -0.20953436612183912 0.43385720340676254 -0.1343265133304332
Ni 9.018088480880591 4.68546142759691 13.11274580697012 1.0704176089461437 1.1667761276732358 -0.6541850605996797
Ni 2.2963290406523473 2.0287165547998116 12.78051019797542 -0.18304120492731704 0.3338623734786637 0.6246376859598662
Ni 5.153945472841355 6.102100384360376 0.4300234394211346 -0.624393431159544 0.06065489467789553 0.40128723989054116
Ni 1.6359636732978708 7.91681221870805 11.314260887501945 -0.7606960943797415 0.2607610255072993 -1.5350879410790208
Ni 5.782984033997121 9.149512774341453 7.112371347697077 0.9333958081717344 -0.6970921443758511 1.2267463375792809
Ni 4.3417563148534235 0.5767339167469481 2.399186623442894 -0.7840417110842174 -1.1641024374958144 0.8182070441120167
Ni 8.389466992588417 2.31610756267248 13.316710193352712 -0.12623807989534389 -0.5933329623093136 1.1072610030267382
Ni 5.295620490460731 1.7713547931057894 10.617463742098387 -0.7395803954470488 -0.24458055909269494 0.2236389238440213
P 0.20184936354988714 9.150671310073655 9.997879759345967 -0.14175828701813004 -1.2838939904348663 -0.18920079677080964
P 8.089480384235262 0.34244184538109446 7.000703332370289 -1.0150224200052906 0.4323657064629005 1.024218998902894
P 3.5128379008925124 0.3508250099392997 11.943436619288402 -0.3870392146119592 -0.5963912895196631 0.11125754732611161
P 0.7228984920357484 3.195093256836182 11.608094280874234 0.415509039916878 0.45268410630527844 0.6344315321218365
P 8.02353653035839 9.03497529771315 0.3262547841307844 1.3402476866342465 1.303254654349665 -0.24383056830054783
P 7.483112050287202 6.177386670381715 7.610847565976737 -0.3767632866072479 -0.4439487833148096 -0.24823486801583053
P 0.7136505964070285 6.033561410443374 1.240232891549881 1.0271611122503537 -0.7801932838724047 -0.6150693255451408
P 6.057983343678169 8.724098453477307 3.7921701342119913 -0.3010988058943976 0.41848817714985986 2.2245786189585304
Ni 7.120694268397209 0.529028195780675 9.099125738276575 0.6918787184957117 1.0518200484496143 -0.41140298816830434
Ni 6.6395868178147035 4.360654349717084 0.06869560794799498 -0.3839582616937904 -0.9766039681280922 -0.7701996629948026
Ni 4.294339764405907 4.02387264650923 2.4925553351724243 -0.08487622911910543 0.1836911798064901 -0.18302115032265898
Ni 4.913544674266753 3.671149491626292 8.720049139386118 -0.5997229249960575 -0.7014113405764952 0.16431663193462023
Ni 8.400681618476122 4.116268188223711 1.6857723683252348 -0.37008073238074973 1.1687828736906194 1.4880478089710822
Ni 4.282216846504158 2.3247826782351995 0.7733253817298149 0.9017606977649566 -1.939310609448802 0.5503065793464587
Ni 0.14853354915400468 3.8710108078597223 9.431469786215807 0.5363344334370828 -2.174502528237745 1.5097612893887742
Ni 5.521646177670185 6.106456478713451 9.124003671175563 -0.07809108787647197 0.761772872383688 -0.33518392050356466
Ni 0.6462136216784965 0.1836640598686771 4.231760298295348 0.7242692190112753 0.5784113080024748 -0.8610171972990075
Ni 0.3690408989638399 0.36504534093062563 12.38284975911188 -0.82114890034916 0.30505547654930043 0.01463471919403931
Ni 8.823000331863827 7.751030389573039 8.042555979766785 0.020842904887280234 0.6495974412289974 3.4312358990974197
Ni 1.3854141017091894 2.4932801151264887 7.628983747742902 2.7832425691307487 -0.059444676419878266 1.0785829183657554
Ni 3.365889228620158 8.335924105189024 6.891572973711313 0.8606528719810533 -0.743877480160506 0.47314828769690126
Ni 2.9058115186485627 7.523410557196076 13.123923359714395 1.3684156644280303 -0.18378888172661895 1.2024352716377422
Ni -0.007401653085884697 1.7140397133623495 5.894621463980579 0.753584937256257 -1.3078918960113606 0.1985958648324644
Ni 7.817687901460946 7.765952329803786 5.906856528141205 -1.594400462796409 0.6252776335367102 -0.8912376867464458
Ni 7.875512736926554 6.394459193452722 1.4430387422002733 -0.2823544354073589 0.08440211769616432 0.18180476141705465
Ni 5.772677700123462 4.906732484161411 6.923151877285351 2.0198943818401407 1.1565485364079564 0.27147404104942924
Ni 0.36349012256371926 5.369794582179157 7.772122227699194 -1.2744030202252956 0.4753324398324136 -1.2226400287203911
Ni 6.786859880092073 7.604776838740006 13.169515911505133 -0.3351309557784422 -1.2981924093354094 -2.1040743562231694
Ni 0.660416342926693 5.028703126047516 3.9490367991805697 -0.1643659971153169 0.6647512661513003 -0.9743372835811026
Ni 5.673812894880371 4.336862659920607 10.890908760241116 -1.2253468861285928 1.1729688867475088 0.4301859252027624
Ni 7.739268934819735 5.497724731871703 9.666227125531712 0.38260946097537973 -0.03355341047541318 0.42712425555830313
Ni 0.9639388023345254 5.723991394513455 10.220115644468246 0.19667782187414512 1.7358831275556492 0.5265431583782739
P 7.402904304475474 5.917726373795006 11.915831956690106 0.5446174993814814 -0.3762765767788165 -0.2659184013385227
P 6.167497409371649 3.138139640241189 5.868495092976571 -0.018212409242968634 -1.4697382120286173 -0.8785204962900934
P 0.23154958558058777 7.3163477828512855 4.586853353872075 -0.8363639175267014 -1.3873703511536621 -0.6648934481561194
P 2.9354514968211887 4.393371398794435 4.2251807421650325 -0.2889434014787863 0.6511547584137882 -1.4661476664638815
P 4.031287275195314 5.91565954604876 7.462757040886727 -2.069209683135501 0.9484041086551086 0.016794960070151722
P 4.105795025204615 7.770771838449741 1.4555184891075408 -0.7177257614658027 0.5239046923141623 -0.12353045115619372
P 6.869384697368203 2.9022061554499534 9.493624764834088 0.7762700375585986 -0.5259942278533394 -0.7785338938921108
P 6.024274588014053 2.1727735218845923 13.080691440331588 0.5777474491662308 0.18949133142803493 -0.7146340099143563
Ni 6.374374817999287 8.125941820799087 1.879372957461852 -1.5971399732147589 -0.6271038881121717 -1.092804461281776
Ni 7.611209029125185 7.890518091730019 10.58576249715103 0.28612084442832664 -0.9728864100671889 0.3085426637669525
Ni 1.4017262848185772 7.723438702574944 2.583535609636449 -0.49312935880451847 -0.546514202183562 -0.8748854706406676
Ni 4.624763423515444 0.3647654386977259 5.259029297894899 -0.33787020908647614 0.23570279698709082 -2.14775122828583
Ni 4.736233097524879 7.687440680303999 11.633827676557878 2.112782682630445 1.035935258898558 0.18301883632981383
Ni 1.9875375607344652 5.535075923877857 12.41835007443227 -0.8893944628901199 0.1754973311417881 -0.2736453376691352
Ni 8.446874755190434 2.923449066635588 7.636553156802809 -3.275313661874082 -0.09195190501896423 0.6321159966147823
Ni 7.666605573696099 3.5937036950001304 11.444363523399511 0.8718847361411306 0.5722987673468338 0.019548611555888912
Ni 1.9634585540764031 5.650994375098943 5.742746697774907 0.7290545562150605 -0.6944809320052491 1.9658721619874144
Ni 1.8645752122615973 9.226717595535318 0.614131450182391 0.09094120436626273 1.0204703304937393 1.0485868862242973
Ni 8.715071143051999 1.806731840224274 10.475112139611406 0.3938634366226443 -0.1774462273380428 -0.5309700838013759
Ni 1.1979074105239487 3.238663468652791 1.1613505106157904 1.0641340899302771 -0.7069762362587825 0.30713704166867745
Ni 2.2763095431999165 7.69188945751565 4.756132107261161 2.5487433055334554 0.5310181634304919 -0.4793287054760003
Ni 5.160006931792229 9.26407805582733 13.490003968175314 -1.1457812705891235 0.7361893674876289 -0.10778013030047243
Ni 3.343293147699313 4.100076492830472 0.12129869116142747 -0.03495594724989464 0.8475443596235532 -1.3272525599261593
Ni 7.3459877610239115 0.9062400155565807 4.939544996583097 -1.3459233968627853 -0.25570932201600477 -0.5390335775358007
Ni 2.4346396705054114 4.629684883305833 8.591900258147334 0.8510253761936183 0.5759289079002533 -0.24020711261534758
Ni 1.9279610192417695 1.213283496761718 10.551632961308979 0.0702664496257306 1.092942786631853 0.20305030105939226
Ni 1.7465899332942643 9.49767593258245 8.43287686305969 -1.0036761417545361 -0.27009027332802515 -0.806406709042979
Ni 3.05743140699315 5.739951382760252 1.6029305756727747 -2.3389726550310943 1.8215635977436047 0.5265673267479899
Ni 6.871729573690177 6.576627351983981 3.9502036763700428 0.291280277142079 0.956910603464223 -1.5448905289917396
Ni 8.33706410434951 9.30721265820863 2.4231970447856104 1.3437343596312665 -0.16909502715987007 0.660877642128507
Ni 4.14601011754077 6.964199261691519 3.4827919717993225 -0.04983337858235934 0.07123575551753537 -1.1086092895245168
Ni 0.6098643313735489 2.65541950791946 3.9222458920805723 1.0838457094265914 -0.07945840053764379 -1.6521700655067093
P 4.225958351348486 5.534723729015268 12.031094213272475 -0.38041271043437713 -0.10429294308282039 0.7652083804277983
P 2.437114302829393 0.6506503501185328 5.774461845151052 -0.05721475864809501 0.9027605997843807 -0.072076763361592
P 6.314928032508598 4.895721760562575 2.2739674473636993 0.32174527850015555 0.5487022109738163 0.7909721196554637
P 5.6428753566876795 8.322068017831903 9.531051029955691 -0.7921363151668939 -0.14559283027287184 -0.38332885563990754
P 0.5525520321158665 3.74047626984119 6.08276859371858 -0.585935641403978 2.383465595237147 -0.9868819530153325
P 8.40289673879609 2.2207276329118493 2.3808335637876614 -0.4567073685320586 -1.0584645503493253 0.8715561491571183
P 2.9832202421312934 2.7133184896719293 9.237000758694332 0.6069842345441611 -1.9451508702796632 -0.9248520323667814
P 1.9773424462910978 1.3631238742216454 2.310294493782589 -0.08705189661418557 -0.045658164158747176 -0.37921380503026947
