# total energy = -381167.69499818474 ev
CRYSTAL
PRIMVEC
9.30470725987849 0.00000000000000 0.00000000000000

0.00000000000000 9.30470725987849 0.00000000000000

0.00000000000000 0.00000000000000 13.61837960905290

PRIMCOORD
 96 1
Ni 0.8134751758358207 9.091526865885127 12.353381232778975 0.2093155652428137 0.38018131114986137 -0.5506904450484386
Ni 0.09485497465317155 4.585843458380165 2.0729621774002474 -0.34109848621578676 1.8088217246969043 -0.02955148840487169
Ni 8.022834742464193 0.43812794748060124 6.739449531420037 -1.4984188677927615 -0.15878490348311364 -0.13951602795117263
Ni 7.149392590902255 8.149741641348335 4.14716374177398 1.6359212077480147 -0.14783740333267442 -0.824136008001942
Ni 4.967810985771682 6.445565943391862 4.171650008736624 0.6373847012128895 0.907776050721101 1.0708487829462912
Ni 2.4690598328543394 5.0090680566458134 3.3931549484272385 1.3093759367560547 1.5242345433042845 -0.7938754093451875
Ni 3.105362221606597 5.609277486913462 8.690963881537824 1.3280598863188031 1.1148910087681703 2.1633102590663515
Ni 8.445612714793452 0.17341554639367288 2.1138861397634874 -0.241119597127288 -0.9772583138826396 0.9827059672607721
Ni 5.296723073802735 1.4886786836477466 7.893226687135586 0.7289612251703059 -1.026969822175154 0.38501575642402724
Ni 8.678081514685042 7.151635025291219 1.8224254974402336 -0.5395192589229676 -2.1264920617967378 2.185390378794843
Ni 0.22626256031715494 1.2298031252670303 0.31053994404346297 0.477230685296391 1.2041597105280164 0.3441457576825428
Ni 3.8327856060896552 1.9131221985314637 3.3528041560157003 -2.083411685667496 0.0070612777221555805 0.28772315591844
Ni 0.9311685538404936 0.3916909462150329 7.0464220507965765 0.9321578219995753 -1.0417428667192705 -0.603400888068277
Ni 3.126065194699728 0.17003049398410836 12.82926209847444 -0.23098019470044093 -1.0021363080712418 0.23262981448872191
Ni 2.720473016214521 1.1651074974393714 5.437478168127105 0.3491964327325728 0.26430503410481576 -1.586566568574287
Ni 9.352254060960464 1.7790041517160065 8.32091103147024 -1.6161555950853133 1.9646835409959518 1.980022228235551
Ni 1.7225524942975676 5.042881361913427 7.16230101093466 -0.535766990969387 -1.1174505419652303 -0.8862826567340156
Ni 1.348959203213384 7.081393792086704 3.035455027383674 0.6219557682523289 0.1146999973487573 1.2973202911431012
Ni 1.5166579376212503 3.0694088337271097 3.1033431001858283 1.7139266778892157 -2.0115814910990713 -0.1740433723040809
Ni 7.31086647632167 2.5446698820025566 12.006929772037562 -1.1624332773235078 -0.31757160673844015 -0.41020254010230006
Ni 3.0873483088388207 1.2084488226833285 7.769381036857125 -0.3742171231466265 -1.3002580336151863 0.4542041424942307
Ni 1.6094072570784779 7.665143195656936 8.737974052755094 -1.3833023517318757 0.13164588117447648 -1.2975144094317783
Ni 5.9614606471718945 1.8788715720344675 3.190336527887815 3.379907938247405 0.11521010421595643 -1.5161882759610406
Ni 1.553979117430935 3.351881129080492 0.5186955445227603 0.9568792360056553 0.7610725038825538 1.9231136879739652
P 7.3813031083733565 1.6553352908707004 9.577234432651897 0.5313791463143364 0.30290989096120735 0.6763582542626093
Ni 8.060770032936416 3.7845872237874447 9.308516355197959 -1.0017524423692619 -0.6957191752877244 -1.050515470705578
P 8.427663934974733 7.89196403839458 8.229695127727956 0.44956587239127094 0.08560847929943965 -0.8839239266938519
Ni 4.425988591980167 6.426454075197125 11.842093165505402 -1.5351769012484013 2.3612528065855334 -1.6154714245340953
P 1.3401848645046996 4.704366816249964 9.835316299524818 0.33597607738755686 0.07550841475096028 0.59827230859246
P 2.173291111186313 2.8548143759981732 6.555574563878505 -1.1037275359521832 0.6304884883136884 0.970085193172968
P 3.2048853677657565 7.788179336425688 4.177587342278524 0.2097331123962065 -0.4859081584657309 -0.07709427118084143
Ni 3.879234703474334 3.7360166532049077 1.6983211763069463 -0.9248638594413233 -0.8354781724876384 -1.0769880630748097
Ni 6.963512459000466 2.874428698371351 7.177157836614572 0.12585472841399614 -0.7883272258334487 0.12125733885130083
Ni 0.1710698297569186 1.6312360997195947 4.915186354345694 -0.4477519591109837 0.5352108613556008 0.3881391325443574
Ni 3.8083142266582244 4.181135227060731 10.853426174708053 -0.4557393481918344 0.06082021661116622 -0.027476093933081713
Ni 7.761633007331439 3.521887430826379 4.654857400730306 -0.7707709621172403 -1.0088900818553077 0.04650585687102313
Ni 2.7457818192766856 1.5338809502933337 1.290954590195285 -1.0863540776707419 -0.48113104879206176 -0.3805767468160672
Ni 9.159060429350271 3.599107194287006 6.8523872736728455 0.8054026932584969 -0.439480720241127 0.22575571307670797
Ni 6.005248598352242 6.4060302433142375 0.0798399689541218 0.48405182198328245 0.10642901558921672 0.8236960922510459
Ni 0.8570016647492401 4.311801227576165 4.918018707158975 -0.4938855202442527 0.46661562878470614 0.19906483404908296
Ni 5.341115830938612 3.219921774290925 13.386948087244146 -0.09762761524750282 -0.2248213741878967 0.4589169745888677
Ni 8.006495676957885 0.021642748500954163 11.597465904966263 -0.855429675908901 1.1518799272876936 -1.0627955736245114
Ni 9.01832673585202 5.992891947445421 9.082478038319703 -0.13082801325887145 -1.5313621554880013 -1.644027638905233
Ni 1.357891721941207 8.30503720131434 1.0959949251949443 0.09402164306379936 0.3464913750965839 -1.6474348648145691
Ni 2.8079651762121443 8.212501890118299 10.595738827412276 -1.1778822648887264 -0.6927865750219618 1.5164189039146077
Ni 8.853698554756843 2.3876343418260295 2.4590982135314152 -1.3490537149616506 -0.6938690094528631 0.004427182533418181
Ni 7.559143973420105 4.548001214978023 13.54459494667111 -0.04504701293730951 -0.9083463214022743 1.0385819524927855
Ni 8.54133023578628 4.714964877532245 11.34084115521082 0.035058277155713816 0.788241608098178 -1.482090562946383
Ni 7.025463198260721 3.8878229480428557 2.07665335467038 -0.26545663121075574 -0.35205575655823884 0.08088459146120909
Ni 4.723180933820441 8.363908082554897 9.579344740201346 0.08511816992658244 0.6454610504631206 0.7867028028561484
Ni 2.178548270645917 2.2105750721679653 12.199725162187807 -0.2417438609748482 0.3245151279358089 -0.31170486354501803
Ni 2.1918446969605614 8.25054883707462 5.958899061332551 0.9989242288918475 -1.4033960371579572 0.6765449163521187
Ni 2.224336733833017 5.660164929541027 1.0698282281466283 -0.44327078341117854 0.6830140690162302 -0.03299882352352381
Ni 5.8689718595108955 8.412553090793498 12.03469780916198 -1.0643045540698701 0.9236742100085963 0.07155997162617353
Ni 3.3729562904539487 4.24578433135335 5.374261988713741 -0.36680900360801344 -1.3844629476988801 -0.012604576137887968
Ni 1.268994551185353 0.532745652105065 3.1100424892316956 0.7465593978680433 -0.17455759293633807 -0.1411779890346278
P 9.304446476352595 3.407644238180328 12.909024838360393 -1.1568395852858142 -0.6598052349999346 -0.8546835417714957
Ni 3.637758947198856 6.365312845446579 6.259578807359478 0.677821211961381 0.4587303124993583 0.2577127255992787
P 3.5557379549220243 7.955384921362122 7.926563591404382 -0.35970453135274827 -0.595501173605226 -0.9458144935510614
Ni 6.682203252023103 9.05622480749621 8.862541748297387 1.4436114330345782 0.5824034598810035 -1.0985483057440886
P 7.464310399593052 6.826612304789572 12.049528581662269 0.6728659248386347 -0.2812735436383543 -0.1653350458968056
P 6.039387568365141 4.9063999195178996 9.24991624093134 0.16939044691310182 0.4117495728744457 -0.16067389297571036
P 7.224714194133219 1.0789924340789538 4.777627426878624 0.4172807871053201 -0.22676358551593204 0.030001688568412843
Ni 7.830320354465594 8.158804425974273 13.778531098857885 0.09029894279657351 1.3691332593203454 -2.2924076627873617
Ni 6.5905798021138615 6.998060836121723 9.967128639943656 1.2793421093981256 -1.3247449630129573 1.639144599781319
Ni 2.1125220697160927 5.0859435459471385 12.357480886686766 0.6520703282495222 -0.25050206678345244 -1.609632449254815
Ni 2.5609159004387845 3.0093748641105336 9.097253913048641 -1.5409737104358365 0.5800136194925881 0.4607753679538451
Ni 0.073887747881009 2.3689132713256336 10.967493508391652 0.23921003880940092 0.3771037006658021 -0.6190599347617726
Ni 0.07417898521036406 6.389644654272887 6.350495099536102 -0.624577265035576 0.8577799213086325 0.32300306216665664
Ni 3.466533728834902 1.2183211168189745 10.44676767679971 1.1573563770212325 0.12895804992966822 0.006765343748291574
Ni 3.4777272913657042 8.747020088908416 2.2670239381743014 -0.7098476442693065 0.5557328925683526 2.3477892248814594
Ni 4.452134818673066 5.989830698839741 1.9433150423022056 0.09352259194019377 0.5063522852526957 -0.38053792315833174
Ni 6.2287104418599455 8.432260460236758 1.9087108369389 -0.07959209790203067 -0.726096244917685 0.2979828859732352
Ni 0.18071508904156564 8.394427521541624 4.902398895504396 -0.7730129640738815 0.1944795286712457 -0.6048288787640551
Ni 4.307642023543523 7.989970517311411 0.5017758652991424 0.4297670924977888 -1.025528461742937 -1.9806331223466729
Ni 1.1357511468286619 0.6290465782273029 10.053210206358843 0.7260376237656077 -0.9897253360013986 -0.4700591072486162
Ni 7.197032690783978 1.3773385595882377 0.5195599518038173 -0.3670761412264711 0.1934091784252024 -0.03886505249631371
Ni 4.835460833287773 8.901589881727784 6.37861764599753 -0.7843330170723911 0.09617879861611824 1.5708625275754688
Ni 4.386946041373975 3.7463634873979696 7.79931427930234 0.8859450708889387 0.6361055773901496 -1.268243428381803
Ni 5.448473540398633 2.908977075492608 9.796599413663913 0.7974559276075944 -0.5357207111124838 0.6359392270156143
Ni 5.135118922485206 4.194673575757588 3.5182809263900205 0.3583935258508086 -0.5052120010006654 1.595632021210665
Ni 5.009551901410237 1.0389635845298977 1.2416294078743872 -0.6621719354598983 0.33176101086494475 -1.1120936485286912
Ni 7.362042364866488 5.0841291280805505 6.866155448632803 -1.0446019334346202 1.2190870212618103 -0.35059279885946715
Ni 5.367001525835283 2.2347207868541115 5.371742274055934 -0.4102814729693515 0.023292394869037305 1.1669864439118287
Ni 9.281110271176159 7.512871665468581 10.660984363424118 0.07521042389456725 0.5986191504089174 1.2672255286402498
Ni 5.587336987788247 6.6717726754669675 7.898074439486832 -1.6488744254745733 -0.9229926105605394 0.5607216040321956
Ni 8.160432749700698 5.761809548898046 4.242070822786397 0.32879395781682086 1.133559274601635 -0.4956194722162238
Ni 5.17425452016148 9.122399883738165 4.199730684016517 -1.7173842974205134 0.3435253504897245 -1.3718457731555018
P 6.633790861459704 5.948527104430568 2.5915367607319015 0.2553323982925602 0.9390684330764795 -0.2504498733892784
Ni 6.023420691139158 4.83441870610286 11.794455857035784 0.7137508359784546 -0.2835916502485697 -1.8259542706121328
P 1.9450001247413813 7.374771204053636 12.448247373080557 0.40913604651099866 -1.4522958481824537 0.6528210903726176
Ni 0.12520041561884732 5.7639775456309446 13.117195326370904 0.13649086797160365 2.7075086686325434 1.9043016974737845
P 4.777967048684421 1.3572962206926853 12.430693112838982 1.132400478406843 0.275176686711997 -0.49756965396405917
P 5.443346646837144 4.575515233601119 5.760983290915722 1.1603118601051308 0.06516898049816519 0.39187494543770574
P 4.059364526445088 5.102636190319759 13.34074091224168 0.2998145398653353 -1.4214158707741456 1.7920316497227589
Ni 6.8122365324619825 7.555896630674261 6.331593517719748 1.9596418648069862 0.15808402076134712 -0.2388775951706467
