# total energy = -340885.9530360641 ev
CRYSTAL
PRIMVEC
9.14896994013696 0.00000000000000 0.00000000000000

0.00000000000000 9.14896994013696 0.00000000000000

0.00000000000000 0.00000000000000 13.39044229944779

PRIMCOORD
 96 1
Ni 6.488531975175386 2.5200838293959325 11.412914842161404 -0.27517514405010024 -1.1133694299173214 1.1130580693244896
Ni 5.068941169931637 0.49466743327704565 6.145383381338438 -0.3276667861909131 0.30135694465179064 -1.1549940474366431
Ni 3.0854444401692915 1.7914506972234097 4.760168001660815 0.7974952654859621 -0.5274101343642593 0.9959525478580332
Ni 3.3604624830505463 4.293684885845512 4.736895766275683 0.2108407436380885 1.092838656953821 0.5314552509679106
Ni 3.9912656773478448 2.6230829354091454 2.5103868359278745 0.07390481770926625 0.3919217395152411 -0.8065874575952172
Ni 5.355020317731171 4.467195104848939 2.5424429975595224 -0.004197068800483095 0.9913250763883508 -1.0562914539574066
Ni 5.374562517983811 4.854425266690227 11.533228374194339 -0.9953773920808535 0.8580935958943093 -0.41696299875458515
Ni 5.73311980735704 7.836559535861011 12.43346782468088 -0.24481272970815898 0.6584970577114724 1.2974568167209655
Ni 1.7418083851584165 6.987471062618142 0.0787067604557173 1.0433909438456546 -0.21377668633796088 -0.03745788773614194
Ni 2.599066888750353 1.6710502499739979 0.005897426162383802 -0.5715338641563511 0.08380433621116534 1.9093086637700734
Ni 8.137322780760492 9.15738720827365 6.629996096414335 0.20279139097105076 -0.14572678474757483 -0.42407955519470836
Ni 9.310723948083691 2.2113426825206552 1.8514029837568953 -0.8351429006354067 1.1564629186726856 -1.3646222588238692
Ni 7.009693911126411 0.5022171634495544 4.365083448940832 -0.3951870405300742 0.40815285666212286 0.657574545897203
Ni 0.8293248679124604 7.403868141315899 2.302406042068702 -0.43563409280152715 -0.08651067939873487 0.505685083982342
Ni 7.790247448932704 3.765871648591271 3.633737647117135 0.8603227423351442 0.8100913569834177 0.5958356741265094
Ni 7.50547660386544 4.384945863148923 12.417706893793603 2.3609959533797205 -0.29270723939659266 0.41858973572473074
Ni 8.10623458017132 7.307529485576057 9.184598075310824 1.7561292793991947 1.3769522411441317 -0.7692288144411009
Ni 7.124504337610672 0.9352168782889151 0.33660342058753867 -0.4471480069783976 0.01874051383229676 -0.46449009780127104
Ni 1.634088410544847 7.124174974685065 8.804001831729456 0.7376957768298262 -0.8352115490898133 1.428950488588294
Ni 0.5487954854093933 4.7551680894707085 1.3407312569864303 -1.4988664968531413 0.09168348184892598 -0.6465242016203124
Ni 6.537277688165117 2.162148669993293 6.844538531669198 0.46677246607754447 0.3333602370312646 -0.22012679692570475
Ni 3.507742604617494 4.770748785645917 0.5357472241732906 0.028908712614550212 -1.6897048292273738 0.3896463132175031
Ni 6.026536429221468 5.515191338247543 4.458802754525087 0.09912631128021637 0.8494798860833693 1.7809177991977845
Ni 5.822468649897902 2.716878177445693 9.082496483269887 -0.6047728287151392 1.0044690699694765 -0.06871530308852682
P 0.29915119635804077 5.756339893612284 12.525058164909897 -1.008499017064476 -1.1971755659006995 -0.44492965917084015
P 3.7998234768391863 6.285928031076737 12.617372188678232 1.6448323941947156 1.9409329755435736 -0.38769150348397746
P 2.5113648608375216 8.575503557399042 1.4333801330624654 -0.1253011699033713 0.7920789795663972 -1.7271539752127674
P 6.526738074545716 7.806990064317691 5.608720345252558 -0.6761160563448163 0.5094175544415808 0.15070855423288237
P 4.647667690140876 1.4856097738874987 12.68698944728423 1.7205806928706238 -1.0954439557871523 0.4645608031382064
P 4.168243356040293 6.3961182276323525 8.2583810389641 -0.2371233314837013 0.02196082054180734 -0.75260714672402
P 4.927022344875948 1.0569073303302847 3.5999001809961664 0.8210974782859344 -0.924537586450156 0.16539700948299257
P 0.39837909687306133 5.626168346236552 3.4561799237168134 -0.15806730859079876 -0.4579412409391597 0.6268133534549463
Ni 0.5708216310593142 8.83106174075906 4.507919000806126 1.1571581449674975 1.835796710623851 -0.38788227933854486
Ni 2.12954174035827 6.626992489512209 4.750312731009062 -1.2304602960957582 0.05233146241386471 0.08178833422240107
Ni 6.319568794339357 6.075501717494938 9.104938907061895 -2.1592108921859974 -1.318938383633509 -0.009515138579286838
Ni -0.5343208997260123 2.5957092167032 10.249566563245322 0.5791345593217445 0.17022965498494555 -0.6566682320328497
Ni 2.5392509218721875 5.474597357666567 7.039101445897975 -0.22537287581599252 0.3159155591922559 0.034439412624792304
Ni 0.5676405341361668 0.08551542404561184 9.402595161696489 -0.4281868924948626 0.7060771214832807 -1.0902636971377933
Ni 1.2881384020462143 0.770707416124696 11.611361494221292 -0.04733683741275073 0.5933843843725394 0.03309626833333655
Ni 4.289137847678115 7.035375070353546 1.3728816530106824 -1.1477327378885394 0.1707302487704479 0.18860995726434612
Ni 5.571018354137809 8.109702039860341 7.969495902017805 1.0051146739732755 -1.3409100028085938 -0.020716663722061098
Ni 5.301206075275164 3.0565245455070276 4.592492995822713 1.4989408017345023 -0.7913225610163469 0.767775369824026
Ni 1.024455933187909 7.818810533758894 6.657246304023179 0.049240996413999066 0.33853329659177184 -0.39146871113822257
Ni 5.138546534876434 4.6429742684509865 6.582834985055577 -0.20887513527128543 0.39614966155365966 1.0187101532695229
Ni 0.5121364768923973 7.398058545267009 11.18308173308527 1.5067566982344953 0.550173396202704 -0.48991188030848526
Ni 5.0255933493337865 0.8677752447859486 10.510372595886667 0.11752229728890083 -1.2807158498172009 0.7962431382464157
Ni 8.264273890641407 7.113324296080369 4.482999950792963 -0.18359296366572897 -0.23195721390172958 0.6882619476787308
Ni 7.303549683558315 6.055319089331396 6.705866676121777 -0.24943968695720914 0.6247965801352336 0.18843357958748191
Ni 2.447395261508655 5.362449281497624 2.594706489574132 0.3402636490193172 -0.1328859242291647 0.1091826670749539
Ni 2.453872732378912 5.517103473010089 11.188719328495232 -1.2455557569763 -0.06403229579056069 0.2503514001382011
Ni 1.4003047761554688 3.2654595769534422 3.9423333253669366 -1.343239165162403 0.4065556873783321 -0.5520040216535397
Ni 2.1076391058054513 1.1456797877513367 2.730913612561599 -1.208928078450937 0.2584015241361872 -0.9635047117419729
Ni 1.468437156905193 3.312640816046544 8.407671189274263 -0.2871832242545699 -0.372014716178669 0.7865387664744583
Ni 3.805934988903214 2.758249820489906 7.192716314400751 0.3563716103247734 -0.38843223830474394 0.2007980146901058
Ni 4.252185157219119 7.423382894658071 5.745731662716714 0.9462688074796608 -1.8300783200828354 0.035188374975674876
Ni 0.5445549377422123 0.14236255010824256 0.6716670694978678 1.57126490522021 0.596298986916173 -1.7713306697299818
P 0.12122934394552094 6.075236397360422 7.612734555486145 0.4042347525546393 -0.6211103895328981 0.9004553486899718
P 8.73705607240893 1.8252927378294561 8.065411875336451 1.3409143736839682 0.009616697154157633 -0.2640332685006679
P 2.191379629640852 3.432098919369915 10.50457489349898 -1.4929858697026481 -0.5928133423604178 -1.5091771347505298
P 4.0157849173652025 6.286449522375613 3.738437546682298 0.9197568772320611 -0.8994158516818639 -0.2508306537674648
P 6.873694469761479 4.268946070544418 10.064537790815832 1.3721126536636434 0.18404059272610884 0.5616955379096907
P 6.469932118848786 8.21044135024509 10.469719146999678 -0.3554879221682394 0.3127091364398163 -2.023457930821683
P 2.801442108595109 8.96185541810538 5.571294653036512 -1.9876692032578478 0.05019153325272646 0.5782845526166235
P 7.3530913569515945 4.216769493746287 1.2927238658882665 -0.06770408821519308 -0.1433513425368628 1.3015749526543972
Ni 5.581219455861448 3.485483160228602 0.26906663779495255 -0.540815866247204 -1.9589327545551034 -0.18101954651159793
Ni 1.646064412478698 1.3351641086466686 7.096345637265364 -0.34692100643483476 -1.0121250438528377 -0.5684292570890985
Ni 7.171072595703339 0.6399796113634957 8.715906398099929 -0.762292492332584 -0.9030624472955158 2.183687280060807
Ni 2.9453645581149037 1.2370871485772388 9.302460598239035 -0.880019192322807 1.0322027884393192 0.7401213555521834
Ni 6.598365361894929 2.177006597526199 2.3837797273248147 -0.2140353393159862 -0.2832229540552412 -0.17575624123012956
Ni 4.333848864829169 7.074605854381318 10.543433314441414 -0.1321883839415078 0.18416117746437316 -0.799390682736462
Ni 8.312406622630704 7.5228322002508605 13.424454080348081 -0.5473315558785348 -0.3440336575847107 1.0059163439389642
Ni 7.99963077991675 4.01895961000924 7.983221187045431 0.024832999883279815 -0.18035954433009582 0.5614718519346589
Ni 3.4635622277354723 8.665968574298905 12.481726812458326 -0.509447893458884 -0.13176183792705048 -0.04351823499760892
Ni 0.4476463011616694 5.044202354630542 9.69630089101784 -0.6499784787174999 0.5665883472256177 0.54225928356195
Ni 8.944060671152485 2.589158554071697 5.906791963132223 -0.28795584075453634 -0.6743381385087871 0.010121918925350309
Ni 3.7361191976448356 3.10910367699201 11.847381136916729 0.3138514775743756 1.3987996760365264 -0.6883799613138338
Ni 0.8446091374546235 3.5416669859549423 12.26497581580787 1.0218317296176402 0.830830389302982 0.4050749890677475
Ni 3.15864535038529 8.614725192456659 7.77802625459868 0.4999674647722745 -0.6349938323832096 -0.4034922179616599
Ni 5.640257760276377 7.783641892480267 3.316625192549364 0.21569035842090598 1.1834309626210975 1.1010906125499682
Ni 3.2819368722039126 8.38846201153529 3.3838179740640952 0.7080607275722128 -0.06567934447568043 1.2420212614604802
Ni 3.6918107351806335 4.50904249434125 9.250292255514045 0.7763245449456179 -0.28399428500362706 -0.18064030879530824
Ni 7.4439040347173755 6.552245403339891 11.442735910384009 -0.029559715934987806 -1.4969394550337574 -0.517093840039916
Ni 8.234786759829488 9.128403270820296 2.3086191077014586 -1.1414062814498793 -0.504113625730164 1.435987083720101
Ni 4.8130353257057035 0.31758271163377516 1.1546549274741083 -0.30525679392682914 0.406157680608965 0.7763623401620887
Ni 6.068777224430476 5.837399769192055 13.79710993273129 0.27601743744573753 0.07510423733400613 -0.5624105616988444
Ni 8.06854082312971 9.156838270064307 11.574002589487382 -0.2377223985202809 0.5702228586544115 -0.35684135087234026
Ni 9.444298912357356 4.93693982852476 5.6409786991246476 -0.1331306932501191 0.8224293097234804 0.008522949869346612
Ni 7.237119011257557 6.26322943612037 2.5609220874800664 1.7345883200036256 -1.131874173589728 -1.605355419146016
P 8.799955242229576 1.7246174702357993 3.83500950116111 -0.01768456176395664 -1.0604836376618831 0.18682766855294275
P 2.171800833507589 3.2776002603500967 1.6329109380858047 -0.713093919120746 -0.3159145307509914 -0.33239735889736305
P 4.903436299814475 0.9689308333127814 8.281640465791014 -0.9730026239300791 0.6284660585670209 -0.6622531823197949
P 8.58750700624336 2.005481705046566 12.495171224102172 -0.6049075545207904 -1.2402469431688767 -0.005162775147862076
P 6.447901398713786 7.90725362825434 1.2597500625499987 0.7727442837935272 0.5425001959281626 -0.24829477471948852
P 1.9018970649433868 3.4764073818341177 6.3114783600306446 0.8001087918494091 -0.4072745678222276 -1.856790539266699
P 7.172710261361215 3.9821533030727374 5.887469338163321 -1.0076402686086066 0.8003967554034731 -1.2502737312772596
P 2.475857707663132 8.399102263826405 10.446768040467012 -0.3899841561728961 0.9120011445460423 -0.1920755472154434
