# total energy = -340872.6057321398 ev
CRYSTAL
PRIMVEC
9.24501807874499 0.00000000000000 0.00000000000000

0.00000000000000 9.24501807874499 0.00000000000000

0.00000000000000 0.00000000000000 13.53101845898954

PRIMCOORD
 96 1
Ni 4.5875628000805335 6.61416318177747 5.364006555916743 0.6191581509025337 0.30415893287696005 1.8353046014787813
Ni 8.698138144783703 5.569624075324085 12.883531570637356 -9.02457209611349e-05 1.3870170815793015 0.7752706497598068
Ni 8.488165297426828 4.143811184182211 1.5182750890227434 -1.5818529651487017 0.2238746940039112 1.1588373324421335
Ni 0.46741146579950754 5.20877253525568 10.5698900230675 0.09044395301487003 0.1644716694552458 -0.9143848142868704
Ni 0.28662514006581113 2.619363196683764 8.977952480136246 1.0744141317000464 -0.2333741488539142 0.0009199407111080932
Ni 2.42502367465625 0.27678659197858024 5.850122542003871 -0.6120541928679007 1.3516893528122849 -0.18351737323278716
Ni 2.3675289081137874 7.047532642533939 13.12594056342183 0.4222080492036083 0.29007674375228104 1.4919353169509466
Ni 1.0189119167354717 1.136739670326674 12.799477716569056 0.13159497333188303 -0.7684055472088573 -0.7645604624311542
Ni 1.6633543819831718 7.661540508737133 8.234639170574608 -1.3872831907564946 -0.5419265828128796 -0.39160986470177717
Ni 3.3909986186915866 5.024842903423827 0.6785639774449861 0.17402203214784223 1.0633054233813946 1.42408801828967
Ni 5.8381733563219065 0.34236427770227384 13.197884368496084 -0.6305651071878947 0.2515958140682635 -0.8279520393139225
Ni 0.705935702047377 4.77662341686673 7.609641751551182 -1.07013427337777 -1.1091330232384706 1.7367609021749124
Ni 6.712881483295465 6.087761105533495 9.163801377691561 -0.07645535204526188 -2.1918664734374893 -0.2551976724869089
Ni 3.120147328227761 9.564988006511872 13.630741655258912 0.4482630944194474 -1.7162974921142378 1.5177278525340185
Ni 5.690012698883491 1.8528957397020285 11.168245149403665 -1.3996082879807508 1.6858705430829481 -0.1975849070694468
Ni 5.850247349746003 4.679781853989693 6.631957992300212 -1.6906394252265011 0.9929546415719738 0.7998642799387709
Ni 1.4511812203575858 8.4692315006944 3.9350503586767127 -3.3064659191071697 -1.6447514044451352 -1.1177850424865134
Ni 0.9508963197821194 3.899594790391297 5.447290299990995 1.7081576366159226 -1.8192454911333895 -0.20988994968904498
Ni 0.8185344734941161 0.48576744891094986 10.209748500376563 -1.561479286588356 -0.06952391503275122 -0.14455101927191882
Ni 8.169267648750882 0.8184198352717127 0.22960649194703983 -0.058183807429583664 0.6603654783787789 0.8242316530395417
Ni 4.3814173901490605 5.3522089885289255 8.81189993948676 -0.4861012483131435 -0.4232915120757742 -0.9680187975622425
Ni 3.410708996930617 2.7109535893732923 4.8629395268239115 -1.4651061125732445 -0.2543736339237167 0.7241378356397334
Ni 7.322303820602525 0.8951664271635923 4.932475929227695 0.8499406277698717 -0.023483427833920847 -0.20502465117694368
Ni 0.5627063371758932 2.0667699846277934 1.763146030083509 -0.022004272185233074 -0.14300527205135372 -0.5600119795596806
P 8.100743575811064 7.506261187488185 3.9052139122926492 0.013558198300408908 -1.5861071124393653 0.9127421364771248
P 8.85988897858768 8.899762740944594 8.210757440242965 -0.014094530419853146 1.2706718353176374 -0.48546361472914457
P 2.0034046316961263 2.19872412562483 6.7088950315615685 -0.6762839493812481 1.9252307343169681 0.017933187439652987
P 2.8049384417081815 7.347256124011129 1.8392574892432023 0.3108569137224259 -0.19277565860626156 0.36217124772568593
P 6.7723454386582445 -0.06839279368513114 1.6744363849827617 -0.38548986784696837 0.22189391612845658 -0.12430666720058592
P 5.606872252587243 7.036956342015435 7.444604313871045 0.00504167618896551 -0.6326459009763234 -0.6321288521305888
P 6.207271452389004 8.95014808869446 10.701181296278541 1.1265558467006083 -0.22817383559989737 1.5626069724348959
P 1.1200801480064428 4.532536453326918 0.7435888110961215 1.5291126973321925 0.08534571255635624 1.4100019725102493
Ni 7.910102060957851 3.4268138181747028 10.528769107791053 -0.17962575148786483 0.6339196254824243 0.39467719077319124
Ni 0.7773026180024407 7.677109118940944 11.617312650615048 0.276738117661846 0.5357471934750451 0.8052258013610004
Ni 2.8719925567962155 2.7426270208211903 0.7715633108679237 -0.6904833808100819 -0.9501267477731702 -0.1915818954084765
Ni 0.6117659493537727 1.4261087317158174 4.219539899599364 1.7673616577799047 -0.48548315511317036 0.2911486366602211
Ni 5.067406966000045 7.611959477547677 9.459968300768864 -0.9800276490976605 -2.0112158802295363 0.5789970053026157
Ni 7.314343860159839 1.2700990540499453 9.211538027802833 0.12460517227761123 -0.24404551252483128 -1.0369428742274658
Ni 4.177500029540104 3.5672918657085058 2.6427974681473168 0.7452877302444713 0.6115780245624307 0.5753308693049383
Ni 4.888173803279555 1.3611994607888789 3.592742475583847 0.21437909580865014 -0.5033620922761202 -1.7124125552375349
Ni 2.404435019713323 0.8832329580121193 8.48634310439169 -0.7770866199226231 0.7700410259297512 -0.9070011202282895
Ni 7.9625213126535845 4.13723797642989 6.125126694524437 1.2280398595797237 0.6958189340903823 -0.13132012240394156
Ni 2.705526763845004 6.497629730697274 10.661982420230938 0.43749454304903357 0.27366667782537385 -0.18400099773742504
Ni 1.8555583048675262 3.6729161956245107 2.9637669253426653 -0.8204068799768128 0.42403841754412774 0.007605066040767547
Ni 5.809356635416156 8.310725668185874 4.181936713647473 1.6027015264629367 0.199764688329585 -0.004363162064702163
Ni 4.260695945943967 8.077464620648831 11.96539866991776 0.31388233081231104 -0.7845929556019972 -0.5248542007116251
Ni 0.5326775944187662 6.310529057713457 6.008137464060008 1.1462867494706324 1.0371421347224654 -0.7398542179337259
Ni 5.729507415505037 4.5822931398571525 13.290044254290455 0.4410295527854856 -0.4261801464774789 -0.7249420767085837
Ni 8.599216452871122 7.582560320511974 9.930346492823956 -0.9664805065408453 0.5043028589228348 1.3590020844236141
Ni 8.340208030383 6.8086136440202125 7.8610211852387195 1.423284291441452 -0.058061937139738715 -1.488299262860256
Ni -0.009845944101579478 5.386914785859751 4.027507934048615 -0.5870944375987697 0.04817167460922026 -1.9082023180797716
Ni 2.0138884820352727 4.685180944464174 12.305040289837955 -1.4685233657849095 0.8261797779048481 -0.31470714070645156
Ni 5.430172224781151 2.058810024185108 1.2487883632062355 -0.8725480807567424 0.7705539610104278 -1.0525124465309488
Ni 7.318420913069507 1.8838480597509377 2.536348482631442 0.6850236432470912 1.998968173210435 0.9585008307694783
Ni 6.7235040089036495 6.3897033913152645 1.238293418845566 0.3504017658945836 -0.2385145554042731 0.7932087222954661
Ni 0.15456098335533913 3.256455872672539 12.795620695086258 -0.7336977114140267 -0.6517090882553616 -0.6029056935994133
P 2.494176408815701 7.4114073034673345 6.027771108650172 -0.41511309003003993 -1.4909184456506581 -1.0732257678189001
P 2.2169275659403325 5.5263573913847495 8.835714181187473 0.22915342590434729 -0.8738197483803144 -0.2702512243859217
P 8.861331201385658 7.9755290528891924 -0.10601169616751335 0.00444029515954074 -0.45692668363171624 0.12292212814823347
P 6.10110166641479 4.272890124601228 1.89581758447236 0.5785630030889907 0.40109337871218026 0.27506895748953913
P 4.061881835235547 1.8485598262901592 12.66871340938035 2.393539948754013 0.13726914089852488 2.0021123752663716
P 1.4686912843279067 2.809838301214132 10.820728623205795 -0.5198225518249886 -0.36167579614650613 0.5452623320543319
P 4.5060032518513 4.522856919548182 4.63009820310115 0.4110656594335437 1.080054360704959 0.39579253532455705
P 2.829354534076512 8.554304155739223 9.798433029905837 1.2953294859653175 -1.2277439256058598 0.7383838040357864
Ni 8.585385906039232 -0.05436717697479665 2.7475675584060584 0.3117269750322051 -0.5067695752957724 0.22475221151285807
Ni 6.528341680279852 7.43080335109655 12.665208623080906 1.407402587214189 -0.8477158522044109 -0.7682636223143543
Ni 7.775771950351325 1.0903851503967965 11.428528459865127 2.270184846833419 -1.1181187716768488 1.1266705179016017
Ni 3.515704665626991 8.63884059974377 3.932032784822482 2.648087646361749 -0.6953759330156928 -0.7841409556662432
Ni 4.199318271868487 1.9985694873157263 7.143809334815102 -1.639196021844545 -0.1393535342313794 0.23576013258758752
Ni 7.203856650809627 6.7496674096618365 5.940806922935695 -0.3328285328975107 0.3937636778199864 -1.1381332671255626
Ni 4.78450941716593 6.4772444661489335 2.915109471444991 -0.13889767764088337 -0.5192319694288412 -1.2383607818897575
Ni 2.795332868072932 3.208770070159912 8.780074889744718 0.0019717790143901526 1.2197935604105314 -0.0975121727155611
Ni 2.9701838922918733 5.0005747313424695 6.608333273467182 0.2753929164878612 0.0055155305015905 -0.3764946063268935
Ni 9.096903503406642 1.549215390548336 6.7881063452351205 -0.09477677606226903 0.02524977570572426 0.1714259892858919
Ni 3.8345838242670656 8.4594317816825 7.380561301124687 1.6489888395652506 -0.40683902294670576 0.10047922576368501
Ni 3.552962087908085 3.3585855858088283 11.413386969489949 0.8807519567237735 0.10012441352742756 -1.729634575542776
Ni 1.1812359416514646 9.017978785289097 1.2419757094893773 0.4761459368726445 -0.9730075090260855 0.540375950496308
Ni 4.728808184103005 0.4901440404017364 9.385073485969517 -0.7764546427655789 3.045025608144659 -0.9565521916835398
Ni 2.7996502914489296 5.933859291956974 4.037764356946542 -2.029693370208433 -0.2687751540610275 -0.07096296147212296
Ni 6.486535709174367 2.242748901034897 7.038781308555953 1.1935875914391252 0.16078856417670373 1.844967835600158
Ni 4.820694417366477 8.647040930652784 1.716030645177519 -1.3396720166364346 -0.49989521677344234 0.22305039833040297
Ni 5.588437686823347 4.37590735945935 10.5374973292242 0.4822587346386017 0.0631375518904332 0.9007278856250681
Ni 6.8932332931861815 8.994551909839894 7.10356854524614 -0.38451593396947326 -0.3231545001428564 -0.07098018786330357
Ni 2.854158917198143 0.7423647707214276 11.348464755537899 -0.4875804039618312 0.7933786722144271 -1.1799774568548582
Ni 6.817035855359686 5.523898216613839 3.9634787888291605 -0.572513197350485 -0.39894445068997747 -0.8090950545084196
Ni 6.1960664906508685 2.9937309529742424 4.947048850999826 -0.5910631924385306 1.2383692665301897 -2.210768452548315
Ni -0.006283838690932931 6.865276358948458 1.8282161643225296 -0.0005831261969796409 -0.5270499228113633 0.016019258246391766
Ni 9.07671238423495 8.613712640994386 5.705922450249132 -0.3011571699361588 -0.24594710042291834 0.19059227780169757
P 7.766573157505249 3.6409191885488617 8.27561124106229 0.04196143203345032 0.5096234998047997 -0.2182756026495789
P 4.062168430791555 5.541935246606497 12.136673721199152 0.5969739014960106 0.7113931343795554 0.16400450001084013
P 2.5813107028601947 1.1619600792554146 2.829295365961723 -0.39756839627805723 0.8834773260747365 -0.10313697510150624
P 7.600680555666055 5.868543240240863 11.064529915691393 -0.552636513031216 -0.3542939018601382 0.2357642463526456
P 8.488239257570314 2.8965103443618387 4.296680329255307 -1.6535854577969973 1.6653968486096284 -0.060645895816831046
P 7.224288140447647 2.879370081108948 12.696709172693406 -0.457161939570974 -0.17449434379857046 -0.22407266894733022
P 5.139767721383203 2.7105837886558626 8.94277148888352 0.053503371234778815 0.3950708266671841 1.095671498416926
P 5.216002139281441 1.024495907568668 5.633382341518021 0.7238123339795147 -1.6952172744051706 -0.5816619537292885
