# total energy = -381166.3056661505 ev
CRYSTAL
PRIMVEC
9.26701958229220 0.00000000000000 0.00000000000000
0.00000000000000 9.26701958229220 0.00000000000000
0.00000000000000 0.00000000000000 13.56321988337895
PRIMCOORD
 96 1
Ni 7.137578918302547 8.233079632815462 7.6462650814046444 0.47638247836348274 0.8804413674618901 1.795295150965379
Ni 4.801835911135388 0.8198550718022287 12.769323690735364 -0.5923315176279929 -0.48387390164452154 -0.38726598591078465
Ni 5.87327017591189 3.683251050956935 12.079987175489771 -0.21958429415867345 -1.0356084716867582 -2.1810256740682434
Ni 6.668185844737364 3.9399660261583622 8.887001306200185 1.5516854404263858 -1.7345314986237612 0.862024041296967
Ni 7.8937213773871076 6.211850001699175 9.044809381888047 1.026312391096813 -2.2750838267969336 -0.9261537818973404
Ni 8.469851981974239 4.164552244626582 3.178255941736245 -0.12704746317051668 -0.5101976271407149 -0.45070409976077214
Ni 3.0757793862972 5.570451778516141 4.156868958728831 -0.4411095140938016 -0.04621532221379782 -1.1178662893464102
Ni 5.459340214272942 1.8786936036246558 5.531067872187769 1.2870873005611834 0.022147482631316696 0.18188240873252545
Ni 1.457868979450516 4.398878100627711 6.399750869928065 1.4194530906208198 -0.7003962690484196 -0.15314364603693625
Ni 4.021793808666073 2.155629215454829 3.640720991495906 -1.5368105801970824 1.0886747553841185 0.5472580223281219
Ni 7.358393459819391 5.3644274001796255 11.372393705055229 -0.623531597379881 1.1443558509965064 -0.33141982547544213
Ni 6.035702494348487 1.8959117259235603 2.7783710749068864 1.3896097820071425 -0.06907834285490039 0.3489807171773409
Ni 0.4613029655097778 6.257777350522303 11.043431192142974 -0.1781818199524867 1.2262832818999332 0.35464768565513116
Ni 4.303937485475786 6.450327482452678 5.961957406280554 1.5127375984082787 -1.0234556383743083 0.808358433452711
Ni 7.584277061022727 8.473679261042834 3.2488789709223167 0.00023191350514798772 0.5515538214899985 1.0259228689678783
Ni 9.416218551085503 2.9583199136714655 7.962491929367824 -2.629757994814626 1.1006584101085561 -0.23351761641031393
Ni 5.121631488322092 6.7920951629605355 3.819538327175072 1.4363246695651781 -0.7291627996581507 0.15396151395254132
Ni 2.0042153832471863 4.594662422376342 10.762455159794865 -0.2754196559607386 -1.390700701078476 0.5346382766815825
Ni 5.710532045830587 7.022695677107973 12.865175253907731 0.05507868614169869 1.936780901048413 -0.8013015266059297
Ni 0.19428862479543177 7.5389520684694755 7.68829750191656 1.0017357301987135 -0.47485961396105314 -0.08923373475685277
Ni 2.071373473828543 6.504706353093137 1.3908267266133658 -0.22911640201882474 -1.0356092430177068 0.7394783226515458
Ni 5.1044504341013335 2.8522866761342933 0.6197903137296672 -0.7628740758676668 -0.7481408834225503 0.4566736870806458
Ni 5.857738651168637 4.996906672379705 6.976431935475668 -0.4031777720450347 0.3113343675794767 0.6241147235768606
Ni 5.156966633814947 8.872466912759066 6.517506887178969 -0.47166347562125865 0.20412322240859684 -0.07396318175102747
P 1.6691199568056434 2.3354093944638428 5.066730884481726 0.4347483477624642 0.32846357106059565 -0.33021397809279907
Ni 2.7804116726088344 1.4218202734533476 0.5921542080677764 -0.09718358573154877 -0.09059821920454719 0.4092576596905274
P 3.311550897346031 1.388913087079069 10.705408314229834 0.628974365662007 -0.22845254318258074 0.13412930971796255
Ni 3.824230219166426 5.560554601651109 12.164309639656722 -0.13991660582370097 0.7049664049176053 0.31662698343698376
P 6.451782404519916 6.983996603523352 6.251722279957122 -0.5384393955952276 -1.4064780185173906 -2.300931898208289
P 4.792828368145865 4.145035901482613 3.0788504765716116 0.13055830453725256 -0.2180953683179728 0.7235799062537345
P 8.858705388747293 4.2672493551305966 10.144176296951608 1.4348254593118321 1.012589899304398 -0.6485124356949348
Ni 8.827827679651518 2.8664096139079915 5.539802038100966 0.6420060020349846 0.580341178035336 0.458543650409849
Ni 3.4498240958508504 8.252725714232941 3.081766807619763 -0.9553918528268514 -0.16684736877627393 -0.47332132293965573
Ni 0.495336094757747 5.5486557485661825 4.481463925333512 0.757279869609341 -0.33281619160233644 1.5078000518973453
Ni 0.9994851250947504 9.164433630277518 4.142872052420829 -2.3413211006586128 -3.1911910230915495 4.165959994893432
Ni 3.031547902049261 3.8003213087621344 1.267225073438808 -0.6894649668478964 -0.5583685304189867 0.08230281196497438
Ni 0.2761330879383084 0.9235381931849322 13.180777504754149 -1.335395243637952 0.3628567038284848 0.2830373204069964
Ni 3.27937580551514 0.7969849942879842 5.630906107164759 -0.1262635338166406 0.06297325839842703 -1.574217817200947
Ni 2.592068767548051 7.645318918709963 5.410097125859638 -1.311797915933986 2.095322063951836 -1.9162493567539642
Ni 3.7476939048140836 3.626490556295584 5.42833925381733 -0.22017899031987886 0.4593697458555701 0.9951634762978346
Ni 5.476132053673164 9.0969048589147 4.24648103764724 -0.30208559528769907 0.5281323572422646 -1.020149713929527
Ni 0.5269755528594261 2.8289986560389506 1.1321425097604219 0.36167631036713843 0.18343458371099375 0.4179531305819963
Ni 0.5274166629893657 1.1298628229544314 9.326652807264775 0.8628347101237205 -0.6473803789730206 0.7195990672291156
Ni 5.0309907702351255 2.658124082804559 7.755584404069475 -0.6677581712984242 -0.5114536110350031 -0.03629163534218266
Ni 1.651225342080571 4.606394469109611 13.057081327980317 -0.37008484614580783 0.5514394073993213 0.7461912158953472
Ni 7.038236468870762 0.7308657365966743 9.53141687094432 -0.31993727875713934 0.5298948484593261 -1.6293003599973876
Ni 1.5938346900907348 3.8086430923059535 3.165004103798983 0.1957015740038049 -0.8208305977777928 0.7629095570912925
Ni 6.731229378644493 3.974096459111465 5.113035400999991 -0.28135067673319286 -0.9460086118397386 -0.7757648157874059
Ni 7.8613702121850215 0.9830639664759888 1.6345308063854813 0.34607177106066206 -0.9342342449126297 -1.8774413827478311
Ni 9.018542941713656 0.6036601395243533 7.3023835937405 0.46032593912125236 0.050545574158035525 -0.03640964897728568
Ni 4.090212213904401 3.6111165708844526 9.844171366687155 1.3765652901183583 1.6370126410399808 -0.30048148402537284
Ni 7.95240941211206 7.3443261241629125 0.6383447402457417 -2.9154011282755854 -0.8300878547100027 0.2288981153604316
Ni 4.608776093130503 7.480069426334254 8.299008916606272 0.5583412767254771 -1.720497389128198 0.16963238772057881
Ni 8.622655867112366 5.230574569993739 6.846279426190725 -1.144090770260578 0.14705990173670158 -0.32706643360275284
Ni 2.145463295023237 1.719949558963604 7.468329039283403 -0.38226878980650936 -1.1351438454799354 -2.686115290558432
Ni 8.429744321420063 8.143921637854342 9.630726885807727 2.837812948177461 2.217726886144019 0.5474176878344379
P 4.314733563235864 0.7187620823799902 2.133345740277248 -0.20986526709869663 -0.7158452566136381 -1.7946639451392834
Ni 8.893790324712661 6.719766075477785 2.5910771964576407 0.692461073361743 -1.1471807220398114 -0.9356766337861111
P 5.967432361422746 5.764206622986268 9.496695202144785 -3.099701916641616 1.3184976965516646 0.7219477699669502
Ni 0.6390110389504196 7.909558713775066 0.11962424838947182 1.1238273920258517 0.08827779860148668 -2.0989141521784687
P 7.194228208729459 2.5473368642451386 6.970762372923209 -0.38932903908740046 0.009830612937176618 -0.23235753466394177
P 6.690065277863151 9.053405469210146 13.514026014202058 -0.3694675242767831 -1.109676040226134 0.4396910364797202
P 2.10157469049815 7.1150785948678115 12.52658338099505 1.9531297747200818 -2.0212382974625447 -1.332276495503312
Ni 1.3389916528356898 2.108654693424072 11.441552545154526 -0.354663369384415 1.3552392749470723 -0.40675391943206723
Ni 3.9109417209698973 8.143217344369566 11.181178950640069 0.5330205385725014 -0.5331449799655077 -0.3355186781351641
Ni 2.406246491801209 6.625353680439443 7.306438841489693 0.18843563647001094 -1.3530335255450052 1.7341702586296006
Ni 3.5265364835743873 3.166725916028873 12.10092878623846 -0.25489685341703844 -1.0322590955985513 1.1465788267897545
Ni 6.571345490580447 5.603896452023539 2.0898074290906425 1.8873534996552206 -0.38690448880630784 1.5472929677856448
Ni 7.325004388429212 3.2436792462603603 1.357936220874253 0.6651976096600996 0.8421969792687108 -1.0947919240254502
Ni 6.994347864345675 1.7667387406036306 12.906760077376035 1.0467791435915972 0.3394925751812476 0.04044422405797551
Ni 5.996614205943333 4.961543725828242 0.0020294772785038138 1.1087676694792516 2.1371261444718157 2.467573064511028
Ni 0.7234632413908805 9.011703881295686 1.9203887046254422 -0.7745939354077563 0.24355314626944508 0.16201240928147584
Ni 8.646555510497121 7.4941182279516605 5.644890039645409 0.02751157515670746 0.9230507174919845 -0.839417873861677
Ni 3.2227913842249833 6.195641984529754 9.777332061577855 1.2526342610896364 -0.7163579345839985 -0.1859190406957443
Ni 4.390352442654088 5.606824830197088 1.638653703377291 -1.2406022696257668 1.7536139691765091 -0.6572832399090294
Ni 7.469338217710932 0.40607616258172535 5.7393580368009705 -1.0345797733119277 0.4778192108100094 -1.6041508573149534
Ni 7.792191911344697 2.560199487361866 10.736264709180675 0.9821449525509794 -0.047987326512556064 -0.2429453374821171
Ni 5.612227502586895 2.129894702201838 10.712841390600099 -2.3345084486121537 -2.7833582687730063 -1.461819985622805
Ni 4.139762967366318 0.3244411340803747 8.891029679592723 -0.011524455699831765 1.4218532154218804 0.8976826710408412
Ni 8.72001517436333 3.6860589578765084 12.49146786386521 0.2183913022918368 0.5589064052003277 1.2726770386731243
Ni 1.9276234667776244 7.966764025374171 9.24424305593017 -0.48617066809849824 1.3119475541379728 0.7599720717295234
Ni 6.151679243848375 7.933569561394259 10.088648315888618 -0.835853039328554 -1.1498065896984329 0.7338648331195103
Ni 2.137224914655247 3.0594323638347305 8.994178093948168 0.10192572840222446 1.7864803808872267 2.3778947860175883
Ni 2.136502087131396 0.009386564088568552 12.105241657130769 0.037917086760747606 0.14118081724810522 0.26624878809474795
Ni 7.495322940491411 6.023238353071832 4.3484358598863775 -1.7307098108848256 0.44018828783111286 0.3035634653848062
Ni 8.56853647301893 1.513248688200921 3.7176919290645123 0.007357468806335716 0.0647858861271336 -0.4431031474850627
Ni 8.109355654983021 8.107492984056176 11.895770874228612 -1.1723294533912971 -1.2394843539712395 1.5930220943916433
Ni 3.619558825682247 7.999115190576257 0.40564061266350765 0.050265323913455374 0.5724898003117173 -0.4760847446174058
P 3.4439580724842163 4.428393557851614 7.571816626553885 0.02026749199978445 0.33614345620335656 0.2872271901186279
Ni 1.9461019037334994 1.249648317483839 3.0551287599619585 2.1188612847243573 4.007204916206989 -2.2687771678526154
P 1.4988755408997367 7.130610119611063 3.5082350466916603 0.9760406394254545 0.5761731627005755 -0.238742355144363
Ni 5.757932850760025 7.85866424248035 1.744080877836773 -0.538824289738472 1.0976777302136773 -0.2846512018613356
P 8.591704021860298 5.133456205250726 0.7377270378615338 -0.17396443943702944 -0.6773697262462592 0.4350877333797539
P 8.692631131632833 0.5705889269042776 11.00483034896544 0.6596162589175801 1.4203784306485667 0.9049475801333705
P 2.633631350169465 8.956926528815156 7.391764923872451 0.22384769742071772 -1.7039811366407298 0.11706155560239839
Ni 0.9899122939134971 5.375714629975141 8.698974406505599 -0.41959375150921285 -0.5295649759237331 0.3007126261995724
