# total energy = -340890.6605204373 ev
CRYSTAL
PRIMVEC
9.10201098296739 0.00000000000000 0.00000000000000
0.00000000000000 9.10201098296739 0.00000000000000
0.00000000000000 0.00000000000000 13.32171311894609
PRIMCOORD
 96 1
Ni 6.411656771693253 2.0168873048672427 11.353710133736929 -0.8524893623336545 -0.04899134229703821 0.2638280944683972
Ni 4.556111713284858 8.88186973293435 5.795224899134515 1.186398015669221 1.1747462903629058 0.6102986436293747
Ni 2.9196065488757967 1.5582005640319059 4.883420027775447 -0.13041895074591087 0.29417893884611274 0.8248464038054052
Ni 3.454349693378635 4.243211882160193 5.055722915844684 -1.611920216847727 1.1826660594306149 0.14625463222658683
Ni 5.0606543853883705 4.832485174385866 2.261933464610806 1.151850616711655 -1.6195535650232689 0.8391491935813226
Ni 7.593989792708227 5.987066163952514 2.268435031046863 -1.0845838731441966 0.18317618784328454 -0.25494081928109646
Ni 5.047929774051945 4.793100772917547 11.312772018995984 -0.6315632094351058 -0.7227162727018586 1.5511372812323994
Ni 5.7511602436252875 7.842501998229266 12.399278158314953 -1.3232521805175146 0.6423662135878808 0.16444544420300067
Ni 1.9544475096112517 6.616670466787414 0.3837243988864608 0.12275732043559504 -0.2980998711670737 0.11646017457297363
Ni 3.016597577774899 1.6232435344253915 0.5010120020481481 -0.8436856479990954 -0.4706257783853637 0.8791820411334924
Ni 0.4476978829909409 9.084762659472439 4.930406428806129 -0.7671930149579949 0.13567454271789536 -0.4293207489889897
Ni 8.771243891601795 2.319155987178643 1.326171190176913 -0.11444314414294485 -0.7651443599590821 1.1481222600174745
Ni 6.857919267554184 0.5662324616555539 4.991113201173381 -0.03433039785075377 0.8393643949159222 -2.937967700722192
Ni 0.6423534896009444 7.363827241303236 2.4524877050776093 0.8610290243735494 -0.4218092711032929 0.1391840985330506
Ni 7.5607674526667745 3.8592526513906993 3.770578129915125 0.9700437984120712 0.9590551606110514 -0.25029946385434315
Ni 7.641283841709704 3.636708483167816 12.639068816924288 1.0058898615764031 -0.031123203767365753 0.36200592579241525
Ni 7.926249601166639 0.21800681575420836 6.979885304354585 -0.1425607283147674 -0.6520934681779738 0.22367826172238894
Ni 6.723173097150439 0.7603874576621932 0.16653221311409083 0.5985852118471885 0.48017768373985686 0.33135066280040354
Ni 1.6857834518020554 6.57993475051144 9.277201016210087 1.199979868118714 0.5777489918281276 0.5781171738008237
Ni 0.3411242569423479 4.6890465835055215 1.4353079425147317 -0.42052937594960477 0.4126777411156699 -0.12784810469494112
Ni 5.942702962483462 1.892608447079298 6.611272974282049 -0.3068663045057941 0.9770719089034463 1.5649654453647435
Ni 3.3726773489424824 4.51921216081142 0.36226003661639117 0.5855659167693851 -0.8469774313764897 0.06783135782167674
Ni 6.11138142978434 5.640352362073329 4.9033898398442 -0.6394765507449116 0.4083965972418128 -0.09079825103049524
Ni 5.395708511214652 2.824481432225598 9.275389716027005 0.1932579975593188 -0.009133072649519755 -0.38545001574796844
P 0.08118902765363184 5.552090161694707 12.684721773347826 0.44375646479834546 0.7582394053091329 0.9546943125391945
P 4.1327134689812235 6.303097086850949 12.72294202761305 -0.16153701230695405 0.31005704352894986 0.18042176502659896
P 2.45499439889882 8.421389895937871 1.764487630460806 1.064037673561729 0.00952388033003521 -0.49925526919659835
P 6.648017792568993 7.82417054813516 5.898681086425794 -0.4960262207363393 -1.3805530711215128 -0.8530436921752276
P 4.716625676745412 1.0692496367204505 12.572473043459276 0.8914788562229743 0.45148700067338376 -0.4347336924744448
P 3.9950000430011734 6.416116757068681 8.290954437929642 -0.6060468103315563 -0.21197639990442846 0.04626237340164936
P 4.815164047509459 1.089656345315776 3.796302233319277 0.05464879769313168 -0.5454034856178865 1.6671644820330127
P 0.3586884075116607 5.398630256736105 3.553153842863013 -0.5966633122341273 1.349706518054301 0.2949944927688726
Ni 1.5711891336864683 0.9493306421872608 2.9307237450748733 -0.4146019547215763 0.5633767822668555 -1.1969475090502935
Ni 1.600288262758393 6.708855633894218 4.887776250225814 -0.340701250777368 -0.6382701891416364 -0.7748219922581624
Ni 5.879143619878128 5.501847061138866 9.308387236397492 0.5276248214782268 1.7384354616638578 -0.9235788220813127
Ni 8.74070664479657 2.3164435879095056 10.561987182907417 0.1833638783740584 0.5902450674126092 -0.33512812756496474
Ni 2.3755247411174705 5.146149574432034 7.325623370657759 -0.7494819708314769 0.01569735613059877 -0.7353722709029722
Ni 0.5545818876136197 0.06347833470769781 9.405076078532383 0.3105776919191103 -0.5695749406577675 -0.5577722915958846
Ni 1.6465628865312003 1.1787104206488104 11.59853602481501 -0.37189207455787565 0.4610273360636512 0.1250510015657782
Ni 4.249455861685792 6.940656547273857 1.7587460819407654 -0.28120206697047057 1.440351531336384 -1.8191141077618476
Ni 5.796242503960991 8.089794534280289 7.89779125366702 -1.1153275820849566 0.29922010081444594 0.9999315871104393
Ni 5.324594499504002 3.2968575975602077 4.55047028688549 1.1887983975805978 -1.3304060179534767 -0.03648601074117587
Ni 0.5792310435221838 7.718477996748488 6.95591879926879 0.33992940560835 -1.0882348396332227 0.705101902054205
Ni 4.99296272980254 4.8613749572054745 7.193951859559768 0.21241477299342776 -1.3736460595890343 -1.049354617628257
Ni 8.139518820210826 7.223192069801732 9.217546436310997 1.0943319536698959 -0.29575733907682616 -0.773599689815287
Ni 4.69804847235511 0.2920107159479161 10.266364789006502 -0.33280590718969133 -0.09041849909357332 0.46759753308200114
Ni 8.199837846910745 7.02688899920611 4.3448904467089795 -0.04837659153117475 0.44444911998999587 1.322672653864961
Ni 7.154544703064022 6.180529407125413 7.138479653701512 0.9286526370597942 -1.059497362489214 0.1802821541249411
Ni 2.523869315910785 5.219648313016892 2.4390986469403555 -1.9026389650593816 -0.5657334554244902 0.6492832524226883
Ni 2.555116519571692 5.240928814665361 11.584908493990335 -1.4674609859586663 0.09579390447287374 -0.5166696080183037
Ni 0.960735461932998 3.400784358818649 3.7193156041306143 0.8515825342486688 -1.2021545071725295 0.06969437917234449
Ni 3.7133929255922653 2.6694013693142895 2.7461649992341806 0.3384448506430236 0.36337452400516773 -0.0005648713645345111
Ni 1.1588589347226708 3.377055416219178 8.457675972871913 -1.739544121347004 0.4906325605245938 -1.5569747138497831
Ni 3.4981576721785017 2.757226673166339 7.263930850502426 0.09054782558258599 0.6719557543195395 -0.5694055049594388
Ni 3.6924947084045465 6.646261104451733 5.959628151882662 0.9641001792341266 0.12477023710056577 -0.11126114687053741
Ni 0.8790121462354118 7.303571928680108 11.53850826246614 0.240807722313824 -0.002140957602402764 -0.09395402305065755
P 0.2381695904555307 5.735331846548004 8.043796611640978 -0.9317546730238856 -0.7827093654260391 -0.30281913101961394
P 8.674598739119563 1.5990230832335266 8.316665798518436 0.12664894218051737 2.4632942346300157 0.559382830616114
P 1.8065489333554794 3.4563885438359736 10.427570505300796 0.16550268182292144 -0.8292458184246816 2.173619354301844
P 3.93874961520496 6.016574883518101 3.650229520464139 1.5910364314201824 0.8080540148384148 3.7080601487151688
P 6.988132636494739 4.2065216759390704 10.594452235636146 0.795317541108353 -1.4734138611079914 -0.48293673454223285
P 6.440655778644505 7.800350585425987 10.239988071415782 -2.0754052704232513 0.9520342492085281 -0.38260534721032174
P 2.381650394500456 8.611094008580054 5.873516756696312 -0.5115986212532996 -0.13587148922004985 0.4077949591020718
P 7.079298378372874 3.823308810069139 1.5272810327659287 -0.6761229983233518 0.6861539001967925 0.05347148955557887
Ni 5.217372810274326 2.898062088909189 0.634670482140947 0.4577589497250245 -0.2415489713552227 -0.5105483256119143
Ni 1.209092933267542 1.1247992096719541 7.000054450463588 1.0527209629973289 0.9251957888594453 -0.214906686177346
Ni 7.0122529655659305 0.7196241015318788 9.342823784702379 -0.7896264042608465 0.21163058652923553 -0.5555482873613723
Ni 2.583724140051222 1.6950584009807514 9.270486462717326 0.5587523961209667 -1.1749401515412667 0.8192087459036537
Ni 6.534042411199383 1.9553213026643967 2.828892266741786 0.07177260185761189 -0.13853900874988398 -1.3798074512047398
Ni 3.931158538055762 6.94739203539185 10.517279015222591 0.4497954719035738 0.746946863114449 -0.40394473211804627
Ni 8.209658916747658 7.631926974432276 0.053093850391726954 -0.2781666225782564 -1.3018675441941514 0.24115379279933305
Ni 7.613650136403991 3.7355108122500003 8.29311252473069 0.3516577497888718 -0.0933223030039296 0.12113495434082365
Ni 3.202633579996065 8.603502931430855 12.712431025344591 0.8336004958489514 -1.472079458567284 -0.7400377946994416
Ni 0.16368783468588424 4.994255215360316 10.628489205659436 -0.42012057054696034 -0.9338516647622305 -1.0638075598287937
Ni 8.557255613690959 2.5749498014758903 5.566038083305536 0.5238023624083431 -1.7250235591333258 0.6643972252459912
Ni 3.513121378213611 2.839290404074213 11.799933490950686 0.6102739610390264 0.26475086339298276 -0.7811780163831772
Ni 1.1296232754861923 3.422665593191156 12.873890687744957 0.30807163766780493 -0.2676577526271326 -1.1789955525575633
Ni 2.9356807002492777 8.505774639643162 8.11946435944005 0.9320668049476657 -0.4057295919326109 -0.08745710247240422
Ni 6.031666017706794 7.668471548477874 3.4847604222313744 -0.8597655842800934 0.071504950018522 0.18583265162952511
Ni 3.3004164838495798 8.27351862571501 3.874566784848164 0.18079483209530156 -0.10495320237463861 -1.29579022765182
Ni 3.5101086125824548 4.28321522037449 9.426696995391142 0.08102625924539593 0.7069749507072017 -0.5790342862984543
Ni 7.28102624750677 6.31430166235534 11.498982779827779 1.021043686498706 -1.703236030944589 -0.4742482056292994
Ni 0.9914092389027778 8.958672501501413 0.300025946808328 -0.46642896669519673 0.6675889927104116 0.19422550367891067
Ni 4.956572889943435 0.22997140917461656 1.797578901544287 -1.6830127619191788 0.818977603729454 -0.31090859289596773
Ni 6.191642962520103 5.417225665148349 0.15157942949214592 -0.6000412275674246 0.7975114634358781 0.5839445791158782
Ni 8.17905795586564 8.781301613723935 11.179035261608842 -0.4350720496504701 1.0076870626861418 1.538877747138756
Ni 9.065448192193545 4.9618975663610385 6.019495718838457 0.4718799625074389 -0.45455869762017204 -0.5314639927186589
Ni 7.946446963509648 8.804675577895566 2.196790372096647 0.894753156098872 1.0104242591116468 0.6094144412522086
P 8.5068031668828 1.347743866377529 3.4969625781381066 0.7501383734685532 0.9675503425662562 1.1437261878323077
P 1.9537011447116903 3.149304897721305 1.6469233261656226 -0.5661864838015088 -0.2761573054577115 -0.17806663453086105
P 4.496375215287035 1.1057031906563461 8.180851052026782 0.869427789960206 -0.6130849481252603 -0.2682478208026477
P 8.726170733277064 1.359667500748571 12.710819059201759 -0.1422683938853292 0.3102779012905043 -1.3483016672869748
P 6.370852456513573 7.86391903004229 1.2215708801066727 -0.1841177258209474 -1.9196735519441648 0.10895512444518009
P 1.710877696047065 3.247579310167214 6.033443640449286 -0.4559414369003115 -0.12372842609961271 -0.23637051247807678
P 6.945926611625638 3.9137919011245037 6.102303994243699 -1.127413052494581 0.7588364154631835 0.003347833426310363
P 2.3496841319728987 8.594783204921345 10.419937558901134 1.0323632252765833 -0.20981204526325803 0.031131688407797998
