# total energy = -340895.3446424768 ev
CRYSTAL
PRIMVEC
9.00556504517791 0.00000000000000 0.00000000000000

0.00000000000000 9.00556504517791 0.00000000000000

0.00000000000000 0.00000000000000 13.18055474008967

PRIMCOORD
 96 1
Ni 5.858786606286922 2.045001767867832 11.329939463109998 0.9793853875279712 0.07340653791660906 0.1615886914804959
Ni 4.694141880463178 0.5035092580789388 6.0862662839195165 -0.13251517115330727 -0.3707589893946969 -0.9709611680200181
Ni 2.8301339629692546 1.648918997087396 4.843919740014563 -0.13478468391377432 -0.5969595033183074 0.14552521025973
Ni 3.2825195276862846 4.182022401449695 4.6842897920808 0.0037700085653935072 0.8852819833836432 0.4845899538749397
Ni 4.84829014082989 4.7004908039637066 2.5363210928257574 1.1337325669547054 -0.9853025243433547 -0.20844936058777652
Ni 7.2574319395400435 6.088338464483305 2.4139786878053773 -0.07842404573585848 -0.06180931999731291 1.0720662002931602
Ni 5.023115179008251 4.44187798670888 11.531193133624527 0.09123431012664932 -0.3407652712460841 -0.8228016054612345
Ni 5.649677381205714 7.753080239713151 12.278121919826743 -0.6493017643654495 0.9915981275440794 0.3226536492470378
Ni 1.730518423808362 6.458989519000635 0.4101656737167838 1.1722646615916326 -0.5003299903180157 -0.39265836057094955
Ni 2.6544804127879895 1.619578865506234 0.42647024960005375 0.7117818851775419 -2.363747290872613 -0.3128351204947193
Ni 0.4683686419209118 9.034653224729592 4.626651472817782 1.2335785300097657 0.511063574685436 0.6659116050079887
Ni 8.348519208410156 2.248608592581917 1.2756743397783614 1.7643238993948456 0.4725294231659798 0.6593532350641805
Ni 7.003168810300472 0.6669584662347924 4.835180739496956 -1.346234757455617 -0.19345365850989263 0.2935073667003848
Ni 0.7147834210460013 7.414885242353129 2.3480102206870574 -0.17248888333276746 -1.1535565436591682 1.4532155317832458
Ni 7.606163448241366 3.846709184969345 3.864406921796631 0.6027120895313685 -0.12846002724732716 -0.910533301751264
Ni 7.51050633416675 3.5948955694774942 12.536592449150637 0.4010460704140125 0.04821615469391051 0.008716553937391439
Ni 7.802610848582516 8.76396394447589 7.175217432712572 1.2309955997739381 0.47891141543292365 0.4289487103615516
Ni 6.742421674081638 0.7834085299127685 0.4508041874593102 -0.48091456190588144 -0.7276903288776823 -0.9987506794284605
Ni 1.7960339109946581 6.561355779185739 9.199091243949782 0.7069019313774213 0.08309188352517304 -0.1291565390937195
Ni 0.05474212947894677 4.690944904799792 1.385606175329129 0.2398397019735998 -0.6273396582720615 0.12309130673624609
Ni 6.3765885969725105 2.0960903395252695 6.83266824455467 0.587065127022731 0.07866264410922581 0.9666705110644641
Ni 3.1658434243205593 4.2791204059641474 0.3278647134629225 0.5833658237942727 -0.20304567307370194 -0.053205123268069664
Ni 6.132195567245816 5.679746963572042 4.7430493042173145 -0.7966365170300925 0.7775797575089576 -0.20038586685335166
Ni 5.307240762613424 3.031318290631365 9.033912967266126 0.013715806924195734 -0.4754365695104458 0.22557804984826313
P 0.21063026505176077 5.249956362064692 12.315528336201412 0.3696027643030667 0.19230514672774623 0.020436927698113193
P 4.055170009352627 6.024849229478029 12.542220927431247 -1.093080340650982 1.3971035192810262 0.08114324443923446
P 2.350587613461314 8.37283423458239 1.3617486318715435 0.3786725878148188 0.9567761347688878 -0.9643475193582424
P 6.556015478993096 7.761815638004657 5.8802414649360815 -1.4185670884714408 -1.0543569559388553 -1.7744759002271826
P 4.562237366261436 0.9818227457042941 12.735539794404902 0.5781310577578946 -0.45506777604610665 -1.1667856407549324
P 3.9063980714395536 6.319142096249296 8.041416825628746 0.33828878468113355 -0.7023662482905969 0.5517736508102885
P 4.8358984830473 1.1046226334393228 3.831904035700029 0.14340276460008852 -0.45128234086174535 0.6295778035739609
P 0.3783057849789586 5.387129131937084 3.528144518739039 -0.1562953042920405 1.56101545957806 -0.7544154035773524
Ni 1.5071623945032742 1.1846550918069672 2.6228780832162846 -1.0630552550438015 -0.7465483421244498 -0.17025510890624226
Ni 1.9950569029970144 6.330660214202736 4.858853668866939 0.3321268788447958 1.231055506477596 -1.2695338650584522
Ni 5.714517450998336 5.455661483481787 9.17089842138134 0.9661346931656521 0.9877029062547313 0.298802296550737
Ni 8.60687986983801 2.4968830209309196 10.292273207296809 -0.0171392307834479 -1.0106127209733693 0.10580243774881135
Ni 2.2541740319057837 5.371126242489656 7.0277404950823 0.12851479174466254 -0.8109467630051777 -0.1848350636029462
Ni 0.5470160443532638 9.114802755445472 9.192290241073756 0.3208878155958667 0.28585550658208186 -0.6277446070199642
Ni 1.4221408529876973 0.7660944301650885 11.37804809322655 -0.05525660648045967 1.2393462857314785 -0.1519920489309963
Ni 4.065256242431479 6.805604719868449 1.5762891133544092 0.18626691095346629 0.6882146393805632 -0.5481594510964688
Ni 5.585215545153548 7.912622833663999 7.899290994869416 -0.5399375774073089 0.18435889529747604 1.003708280544052
Ni 5.204505274253113 2.9879564939575483 4.935563974214236 0.6518816092774837 -0.3544399405196993 -0.5918018703767678
Ni 0.8085691786618809 7.477212759441288 6.7348948226465435 -0.6489122422365147 -0.10743560247686015 0.0856259628009364
Ni 5.083902744438833 4.683254152077167 6.938033357967682 -0.7310193932509153 -0.36626341551718855 -0.1077356502157822
Ni 8.31641436829756 7.0989610078538234 9.323753482578299 0.0051193235044363445 0.21754052425576728 0.1442093196617839
Ni 4.793878515595582 0.1964437981150498 10.195172501112781 -0.6533031722153587 -0.23488467196116963 -0.0035038993882004167
Ni 8.257887199744468 7.114531630169302 4.493884225465188 -0.526559613438506 -0.5286506916395799 0.3181200230427424
Ni 7.136325098071822 6.024335912258837 7.163236428705336 0.9618478928648402 0.22679238187133846 -0.49695644586009247
Ni 2.4082142254895076 5.074113695013198 2.434922930904919 -0.9823735236220178 0.4920523236902558 1.0078251309259032
Ni 2.2700598490049764 5.169410586477856 11.279747845751357 0.24404756940736036 0.09512207521682974 1.520400514270175
Ni 1.1250112331630029 3.3254940850543955 3.824680671813826 -0.6464786930943576 -0.4856957853446087 -0.1301996356462532
Ni 3.5538391975074157 2.594242186837593 2.813416031641056 0.6568047576107141 0.5068274251169013 -1.0780478717978916
Ni 1.0508684144681886 3.359634182913261 8.079548190005957 0.10281764408887453 0.3801987946513581 0.5666562243490757
Ni 3.571715244526632 2.747949174507105 7.138232476791555 0.4589465422752225 0.6925919425126523 -0.627062493351275
Ni 4.25554383614233 7.0816162891842955 5.956938261935505 -0.21024141949119274 -0.3167213429230029 -0.7912300013025406
Ni 0.959515960582582 7.200985056559465 11.451543411779962 -0.5275854835998591 0.3260315645803353 -0.8327152650305207
P 0.191018845609067 5.719101283710065 7.960791801067719 0.03387839791499972 -1.2119514386582932 -0.7650430584945276
P 8.419429029180588 1.666092610017192 8.004774981743715 0.3849427370942467 0.2855130356409986 0.4204270460437856
P 1.8342715410418076 3.2093583156036085 10.233804574917835 -0.589386833177372 -0.3273621104663007 0.11579682995736185
P 4.012501641202982 6.135437570735446 3.8672409731804835 -0.2662025082378448 0.8010403025247431 -0.025485031644981917
P 6.837115192674615 3.9293082294329467 10.412625382397163 0.34905759316186336 0.16135703508566404 -0.48529289347923515
P 6.410116316394445 7.574022585867773 10.028979297225563 -1.1559157879199642 -0.41823029550278296 1.3479453123888205
P 2.402720830687633 8.689532947693106 5.736191144883046 0.21102097796969463 -0.8612164577940072 -0.7040912014015035
P 6.832684454572118 4.1130577827730415 1.5966795141911394 0.15922044835863544 -0.7221650281840789 -0.33603521276026643
Ni 5.189907252984524 2.8202548578911286 0.6203681744192182 -0.7065309211912477 0.7048267940159474 -1.0594914489519431
Ni 1.5487500948230424 1.2541420332680613 7.015785607214286 -0.5269267669699377 -0.7941057801884388 0.016936113633706316
Ni 7.09117119391346 0.5191807427252058 9.412841036803789 -0.44203048324617417 0.8670528619701262 -0.036430989133524355
Ni 2.916254183445206 1.642344934455644 9.164663868559474 -0.5998820762817411 -0.7682111718098641 0.8052209162649939
Ni 6.307056627685171 2.19470127900155 2.5214538051562245 0.2399366325627803 -0.6474981354978074 1.8384881414130856
Ni 4.105808302747616 6.824921657327502 10.393236400416122 0.00370213144193556 -0.3190204233698247 -0.38613624318171563
Ni 8.27237715423007 6.833999267098468 0.36347992290957043 -0.2584999973872645 0.9144796879935219 0.08102368814223465
Ni 7.661430602174328 3.7582024897024144 8.229780830602415 -0.4713045496199431 0.5198076394266532 -0.11193914677416851
Ni 3.10633464915533 8.236967271671098 12.156821458705672 0.7022220094032486 -0.1392226650804699 1.5082062861968284
Ni 0.2664863829520058 4.793122048114668 10.000443362621136 -0.928930316201213 0.44451622578250544 0.369821308071776
Ni 8.72035899754035 2.348192133105087 5.8800829669876995 -0.4882722878225333 0.7505008990142946 -0.5710702942563713
Ni 3.439522552236922 2.7356835946380005 11.587276191769044 0.17048496552886122 -0.775770986434993 -0.47595644656965763
Ni 1.1101970783284385 3.0284365097516925 12.423858982250913 -1.0264070076931484 1.1158621144321879 0.1937215674592986
Ni 2.881717840715386 8.31850365943532 7.856112011170154 1.2571192934441833 0.2735273240340322 0.1451948235035048
Ni 5.674451691205645 7.813543604794773 3.557510766459423 -0.44978570171156085 0.39051714585823066 0.4914396298069213
Ni 2.962957044826392 8.352148451205492 3.3892345753301183 0.7749598033876073 -0.3755435552675339 1.7101461278008614
Ni 3.378329736370134 4.48704990199774 9.337526594070082 0.4640188145918074 -0.2862925941195005 -1.133975793313763
Ni 7.24181628939832 6.033755733509266 11.524827099550023 0.472344046628051 -1.0260210851086395 -2.186432446906112
Ni 0.4212695356687705 9.022045433381026 13.559364400598547 0.7458777984199864 -0.6965635255658906 1.031812752089752
Ni 4.709820569561645 0.3893448068611527 1.7757632841757394 -0.7116057646109939 -0.48980955040266616 -0.5255247444160884
Ni 6.0264071922661016 5.606531718097872 0.21707194587435286 -0.365370471389274 0.06430946071134731 1.9240773374388151
Ni 7.964548922889592 8.456207757657404 11.642832424346498 -0.5770594219602706 0.378514979191032 -0.8500830668850069
Ni 0.15190227239361748 4.953556193025164 5.620584002112373 -0.764134173527013 -0.4791006486255942 1.5010172246475568
Ni 7.950428196579199 8.8640698077835 2.5977687661890916 -0.7567317104153548 0.08634407191388356 -0.6230734267965399
P 8.393718140394762 1.694991468901154 3.6286988591960485 0.9229296185330879 1.0380970424365672 -0.5678427884580091
P 1.7484034763928271 3.0647109265745653 1.6043369463223431 -0.9807164476345691 1.5079584318520804 -0.14306055076932137
P 4.774876772920243 1.1244979159438115 8.143197724072666 0.6771259856665693 -0.3191284097025988 0.41829508730244735
P 8.494940693793247 1.4148013173097824 12.299474115032066 -1.0103491828993372 1.366327157330118 -0.3604246973482244
P 6.317115844068276 7.794676945598169 1.3800308298834882 0.1332214531917125 -0.30517606128756475 -0.4708348090723762
P 1.7786981978903804 3.291624154152999 6.0129168555231365 0.031073838586669063 0.24252573344619524 -0.334206901302276
P 6.9464787770581715 4.109518595630194 5.900288753736826 0.20761812293573279 -0.9907769171943647 1.438507793259426
P 2.5112378919377862 8.483224453404329 10.018750776215777 -0.08281446149407028 0.33278559547471714 0.720389938561527
