# total energy = -340888.4248968135 ev
CRYSTAL
PRIMVEC
9.03407493876414 0.00000000000000 0.00000000000000

0.00000000000000 9.03407493876414 0.00000000000000

0.00000000000000 0.00000000000000 13.22228185117145

PRIMCOORD
 96 1
Ni 6.3450010385577995 2.070781562029243 11.22903591331089 1.0843789562222421 1.205870008350904 -0.03010221870201912
Ni 4.452949609821114 0.39322436139296674 5.846125884109007 0.7716397378754387 0.6464249570382867 0.22848596752367745
Ni 2.842779378971324 1.5942341231300128 4.503323610187031 -0.5451201500495128 0.12548140423497745 0.23157103420690442
Ni 3.9848761329633526 4.7801186240341105 5.133683397621057 -0.2705648989715985 -0.0016727597167326032 -0.6267238790649335
Ni 4.089048047995524 2.669903326065624 2.1736110135652917 -1.8032097778267653 0.34869146807169626 0.5471747185856963
Ni 5.275881539758719 4.6545630542555045 2.496591830760779 0.2624109024058965 -0.3377866482337344 -0.19656520755568083
Ni 4.802658640338445 4.639223195464019 11.133888135467657 2.1838790843566387 1.8087085961578075 -0.06547211356088078
Ni 5.632185444785934 7.999284656026452 12.349359643938161 -0.20212856057607126 -0.055885241203394075 -0.6877700956439768
Ni 1.9072919127067904 6.707321637315951 0.18963155119814337 -0.08238405882487101 -1.1187371219871378 0.5247415863931607
Ni 2.6664703776906156 1.6054363757221466 0.3834386517092578 0.2836893521686985 1.1607738873432139 -0.7022340935881067
Ni 7.9333178427782585 -0.5096275101223068 6.84803096394782 -0.039509628058848084 1.4515813386139322 -0.10326475892862216
Ni 8.869392523896412 2.4306719947008752 1.1873809566882618 -0.9583193108862915 1.3403099073307498 -0.033489390006697164
Ni 7.0248603279295825 0.6057067010641284 4.657522617117749 0.011284057554251534 0.8445361689248487 -0.2584997402769484
Ni 1.1356915950502364 7.339878511709983 2.4325294004532485 -1.8426556425272138 -0.9922738134548652 0.9706912021880829
Ni 7.751443851500167 3.9736558122218772 3.4617652663944662 -0.1999184402986299 -0.07352300888981532 -0.21796424205674717
Ni 7.5902940275175235 3.7681667497535947 12.459501275512979 1.1821883484632478 1.1868104206162915 -1.2330026029016377
Ni 8.192857774003585 7.087845896536321 8.888903414963535 0.3264809934129281 0.5281999772554065 0.5252527217016244
Ni 6.828152386041586 0.9082587652059122 0.08840113087887456 0.299584169022084 0.5155329233106992 0.7073058516840594
Ni 1.561070035012495 6.559171846784986 9.350757834817728 1.115552296501253 -0.16569757144254688 -0.5238949221221493
Ni 0.40271556024239863 4.929144719808172 1.3199722638207019 -0.13508833119712219 0.28906835709242473 -0.4326315585297774
Ni 6.69420416089355 1.680690217732205 6.7663177585479435 -0.2786142516386363 0.9440795131378257 0.36895587474768715
Ni 3.4808470389147113 4.610820064698157 0.17458710664840144 -0.7585528227844935 0.5130345823688777 0.567580535935558
Ni 6.30669656195244 5.7615262918517205 4.431672557155797 -0.5942644729846475 -0.8940887830419957 1.2262616846333785
Ni 5.246285911136275 3.2285705037249297 9.021086381920842 0.7273242037875152 -2.274870939455179 -0.016316734882152545
P 0.029030998955500948 5.976284314932527 12.270713506889113 1.04601655439396 -3.5087423181150155 -1.2852206796660899
P 3.9898448740324444 6.435260478596515 12.121103809891302 -0.06100199360466913 -0.5157437537699247 1.6733911796690148
P 2.2536854378198363 8.563254835517677 1.1932359404825856 1.6608652792878622 1.4006051046763814 0.957288555628932
P 6.269756230622412 7.679153185982222 5.709671606647216 -0.2711940479151652 0.519679341378905 -0.16166890989912802
P 4.596609465240556 1.3648228309327228 12.509084794345176 0.41315313809019166 -0.47949736984338065 0.23110592164502777
P 4.2703709607186795 6.220303705872945 8.029415101869423 -0.935220777195615 -0.15655498571133036 -0.714579502527337
P 4.834223697239182 1.3236635867313034 3.8556174959770724 0.8894219736939456 -0.9738390037884456 -1.5705527096445338
P 0.1271329192161763 5.70087151451012 3.6831985672497294 0.6120084272316297 -0.1704659393654677 -1.7446837565664146
Ni 0.8061664941630228 0.17031308592151562 4.384548113449066 -1.6974369077643088 -0.5165454237356136 -0.2806243400901296
Ni 1.963393516414169 6.461396056619936 4.758461236825142 -0.39745989572465096 1.0907920588374376 0.26630509525398005
Ni 6.222155691180516 5.781274779082692 8.782384447331816 0.9263260458091466 1.8488514869252803 3.5891610256833992
Ni 8.742924512576026 2.2827390219620147 9.881619034046928 0.2916949960819944 0.014612864817168383 0.7481007742132342
Ni 2.4721022611424273 5.483394234953321 7.058106626126608 -0.6626393620146201 -0.5401028993405795 0.06349930610522611
Ni 0.7162982295575655 -0.14341322518092137 9.3787761140026 -0.9132285891952401 1.1094685522010184 -1.0126966000855913
Ni 1.5791923888026722 1.3930452802051627 11.402723226122053 -0.32190648666836824 -2.1767224187071994 -0.8047558037031172
Ni 4.369691577652483 7.080392784932683 1.2950391211360006 -0.2982639075487638 -0.3356027532085381 -0.3331049264873489
Ni 5.716843758528582 8.224739023517811 7.922751589042969 -0.46691901895773785 -0.4603709334265749 -0.7563187912476522
Ni 5.678286327832432 3.0341391486540443 4.820182938385397 0.11406313509570679 0.71042254293617 0.1529274162610721
Ni 0.9342136617359119 7.528248002676578 7.09338378430969 0.5272291287017049 -0.7962500802249513 -0.2602504044194679
Ni 5.590700973896356 4.719111517780339 7.131926760486366 -1.7003715649126006 -2.2752969712490043 -4.0752730726298205
Ni 0.9919956033321105 7.730258946396496 11.431006203694789 0.874858474057474 0.3041694743999213 -0.03815465669285042
Ni 4.661374746557495 0.8690418470587736 10.359776345052543 -1.1270644109059107 -1.9230450395195593 -0.7693594264816943
Ni 8.110765137467522 7.368733346209399 4.470149584587375 1.3979375851465472 0.6742594627520517 0.09199741354491899
Ni 7.629221855275188 6.185748370256082 6.681073133359142 -0.0656772875931514 -0.7220061340087114 0.3289803627960141
Ni 2.6500554640132714 5.131571230962959 2.9128422416753823 -0.19551311214208264 -0.45030737854298575 -1.4245253629374046
Ni 2.128906798462942 5.380938794108655 11.459830322340322 0.11474884830882173 -0.16250657530907495 -1.4994293113351465
Ni 1.123884059455141 3.255799204783551 3.4576791544207386 -0.09721855273454225 2.2550122528580387 0.7424011527252956
Ni 1.5650811641664526 1.321477340660903 2.4574535090632783 0.6640964061761208 -1.8886814744380247 -0.8688747456702133
Ni 1.203654938800737 3.0789842953212623 7.876473638132918 -1.0389424211559979 1.7135762365283325 0.28712640287470553
Ni 3.541004942149403 3.0742685083429615 6.927589542538646 0.8806182593593865 -0.7319964124522038 0.5046080488680793
Ni 4.070708876413241 7.110286538019272 5.780940518319863 0.8915529039940194 -0.9047506336312159 -0.5929627234540885
Ni 0.4785674579956823 0.3157246484196789 0.2697692139753852 0.5564260619806352 0.7347930013607346 -0.7644617320697608
P 0.2783064145395515 5.307907334467681 8.014844946239911 0.906940185083367 0.5157769210007053 -0.826019341067584
P 8.640550378403399 1.3176830292990513 7.858834607337643 0.8769590653402445 0.5954088710017359 -0.5532826312556471
P 1.7333498389899038 3.371426326498646 10.11731984903022 -0.8626079388248951 0.13402723692245952 0.07230456310168193
P 4.33035721653462 6.340149740459433 3.372991028231676 -0.08416968997038408 0.4196477446755999 1.3987860491897717
P 6.8338528871590345 4.168511768802304 10.180178037184097 -0.6040164101650888 -0.7448539851411623 1.3964540586224852
P 6.497180026392066 8.031211075914031 9.945350817221497 -0.3311940826178812 -0.32202398608283894 0.7832942913952317
P 2.2724311427623176 8.55881007077951 5.648029404944066 1.83681358192414 -1.6387229388628681 -0.17614319225590308
P 6.943047747708324 4.05490827981353 1.2176198114272856 1.5785863785822878 -0.1164357490929414 2.159484200452042
Ni 5.3008065517762155 3.3161558576610064 0.08641273104377085 0.10903585708444448 -2.2507365083008204 -0.2351620939922724
Ni 1.8107537907716782 1.0224494690483057 6.988491853526234 -0.6456320288233461 -0.07207316381716619 -0.16334964003566063
Ni 6.8201662640323555 0.9611803746290721 9.123572538619388 0.1943178062824008 0.45431212882700467 -0.11927244721078814
Ni 2.5972693657101775 1.5244639644452973 9.169995938131645 1.1545531032444827 -0.09798782680039898 -0.39683717453898754
Ni 6.399196452509582 1.9882462558342975 2.4255352198429017 1.0217558820743822 0.20987709417323855 0.012037390780508302
Ni 4.440003780817463 7.133187917310448 10.072879428908267 -0.06890865004625552 0.0634216587897553 -0.03211436403604147
Ni 8.367107006259289 7.472001853774462 0.1251878829394938 -1.9332392064437416 0.18048809948816014 1.6404838874180325
Ni 7.568097306050691 3.6913861491241247 8.175190737576829 1.2280082350108399 -0.26109192648415674 -0.7235449392507409
Ni 3.147318036133277 8.492129565632302 12.459236577125116 1.16859621160111 0.8241622332541871 -1.2200465569616021
Ni -0.15573389621733408 4.80933482152037 10.140353125811595 1.0854241096573047 0.14035266491985507 0.7930493138994665
Ni 9.176632369385016 2.3022435891768667 5.590261917867342 -0.7783788563714853 0.06359109448808403 0.19389974490837572
Ni 3.513740104792097 2.9125585717307105 11.247097738800772 -0.4007048850245099 -1.239105373365266 0.7297179008306722
Ni 1.203636870651395 3.4061533095342598 12.358562655805587 -0.7103682926594669 1.2686805159192214 1.3069796686097361
Ni 3.2872377846388936 8.166080776678516 7.774582826955193 -0.7189082118096779 0.5854856983507529 1.2562060376012947
Ni 5.982653337575635 7.8587144541445175 3.443729639721131 -1.4134531642836432 0.9834135348507579 -1.4986263558178772
Ni 3.1639588016773983 8.31025557435421 3.268852539275788 0.6856044554512256 0.312940535724332 0.7518412150922729
Ni 3.3987995727520044 4.404319185866715 9.209146907533686 -1.5971248037061077 1.5714551668541452 -0.7344813836575868
Ni 7.078757617417218 6.234984077213443 11.181752469889949 0.05575591471438139 -0.3253070277094849 0.14395195223533916
Ni 8.229743900885586 9.038953071397827 2.287309360338112 -0.6313544358584094 -0.5063466288257408 0.20668095583344404
Ni 4.6130876174405975 0.45719193391645063 1.4190941311117418 0.2871215177786991 -0.41617469852533484 -0.16443284579751036
Ni 5.959995878300577 5.565812098177544 0.08673344069459404 -0.3881147070643251 1.8195558232849567 -0.3046374151752754
Ni 7.958089275526348 -0.35426039733661835 11.341650171123181 -0.4222599854874663 1.78384422881596 -0.6573063798374809
Ni 0.36638864258253717 4.861605977567211 5.647871308637322 0.437329221115763 -0.871229876165951 0.5383609769488084
Ni 7.639195473712054 6.162566934650102 2.0391135166772547 -1.5061794855747865 0.7044964072597222 1.0869066077401024
P 8.517343668039274 1.8662410774014238 3.348318066897502 -0.7208879612438681 -1.0551614541180214 0.9841763811587115
P 1.9885082439997586 3.5563809372395734 1.3915926009980537 0.9515462538285162 -1.4633945291987764 -0.04039768709075623
P 4.637280869409738 1.282215252140409 7.917753035527463 0.29050277554610615 0.1786325343366601 0.4816051602150028
P 8.576263903044026 1.8696559576270901 12.198955851776761 -0.34788568434094924 -1.2586758392980257 -0.4499052580085607
P 6.464440539784089 8.068874133217745 1.1721594442749668 0.05843757531160258 -0.646415701066906 0.8698669343801534
P 2.200438601708518 3.4673139950574403 5.327230316781644 -0.5656905180016968 1.0715182982094902 0.9569360573855197
P 7.337014710039253 4.122519294651859 5.925208366964667 -0.8110637481990162 -1.253169821878132 -0.9143683592266382
P 2.690383573344952 8.466897395075987 10.118589136521509 -0.5341873051870929 0.9760360114397642 -0.0025783022501374947
