# total energy = -340867.07909245754 ev
CRYSTAL
PRIMVEC
9.27383706385910 0.00000000000000 0.00000000000000
0.00000000000000 9.27383706385910 0.00000000000000
0.00000000000000 0.00000000000000 13.57319795677284
PRIMCOORD
 96 1
Ni 7.957656894562559 2.8509351264407097 3.0495853503252808 -0.22841089131136788 -0.8506235127695092 1.3571573179053917
Ni 6.068696872510009 5.997752020022113 4.464388001080135 0.6319501604608793 0.16877415348534158 -0.8468092812297416
Ni 8.28757364322359 1.6408106935726663 12.377725228970844 0.64938275411503 -0.1699316641285525 -0.5515288817893341
Ni 3.725300293384013 5.121606276388918 4.730816062142195 -0.0850790891585309 -1.1366276291143136 0.6626169934171169
Ni 7.921776419493845 4.31568202596335 8.83089899985406 -1.0256097086028337 -0.6149741947281732 -2.099033965585785
Ni 6.69800089866996 5.97360294866545 6.961815592486126 0.45162275492029963 0.12998263453944064 0.12427221441822467
Ni 1.8828021943333395 5.021402468397845 11.441893070878551 -0.30494466200304904 -0.21104180390530108 0.5827988955472092
Ni 8.993618669950514 0.21751784511158084 2.49559508122931 -0.03542080270145513 0.03815157136905688 0.025627470760117153
Ni 0.5275542695532263 3.2335550903551673 10.261527453324025 -1.0150247339981358 -1.7459333127027994 -0.040554267273278544
Ni 2.5079979107348414 2.702646473985618 6.015057927110697 -0.5507246407204838 0.36439319507766926 -1.0681835774093023
Ni 8.456969548523448 6.869780180059934 3.0953814118358336 -1.7827422540010331 -1.6163157748122616 -0.07515488806628347
Ni 7.520228554412355 1.840467128763765 0.978448220920741 -0.6318475734447441 -1.1665614405592684 0.14212544054956167
Ni 2.997443202205909 7.158177960800924 12.213964106987543 0.627860306662222 -0.0050002814280688075 -0.15851339498928185
Ni 0.27209993972632057 4.478549150066935 2.0978188856258373 -0.8266240645311184 2.7284161082091725 -0.30341331296018714
Ni 5.5786580554756435 5.431398798919396 9.63307476539393 0.3412494099713542 -1.4797295189133741 -1.5439145382317152
Ni 3.721145614440931 3.5361325677568107 12.702042434895644 -0.406673443903119 0.6203352019297703 -2.5323898038760966
Ni 0.6148071642764114 2.1333163512294866 7.019528534447259 -1.050209766539701 -1.8907031328537436 1.9727395785312087
Ni 2.2398820113521545 6.610038555421896 7.740727010712121 -0.4329658019407447 -1.830657075404441 1.406586519070797
Ni 6.455369503161358 3.5550790165976958 6.902663351033996 -0.7019103917001008 -0.7348012288908506 1.1201864528391545
Ni 0.6578090187210027 7.267674153392373 12.029748610279105 -1.698217237573759 -0.4073712413010919 0.14592321702909708
Ni 4.484085630712069 2.8415314557972158 4.792764365427671 0.8243650932936125 0.012296300868849792 -1.49026615677864
Ni 2.786046089465833 3.9140136010018156 9.469137440509023 0.49410817777802 -0.6062008194109173 -0.4450746693891367
Ni 0.6771829914442005 7.994121621357645 8.723236244822987 -0.2894031147240242 -0.8010834970578526 1.4250701796972813
Ni 9.17851115675459 6.436144839212677 0.6882438967464637 0.042761816447558616 0.09366708793785804 0.024762294546344453
P 7.846964377007589 8.06533541511641 13.03211591140073 -0.21797272669717946 -0.5275320046541044 -1.3150223364085547
P 0.5467965537920674 0.8982916662137308 0.43836685244716844 0.15500615316697178 0.2282517400256843 0.07167284305495399
P 6.414527525336952 9.125205142100938 6.400943209006983 -2.460647541035788 1.1996996178741337 -0.7186716703188397
P 0.32792843802398486 0.5673223370615392 4.685183220161549 1.1967040255809196 -1.8124945455628012 -0.6953466224396541
P 8.29597573947902 6.0418769361185065 5.316716676718636 -0.6041758185610885 0.44392255806256453 -1.2450507923154233
P 4.614308848834295 6.0226244506590465 7.670743855113505 -0.6163818737089771 -0.8602430381371443 0.4802273060308697
P 6.644323930539249 3.134844370109264 4.852363605819659 -0.1906601549251555 0.43781078873787177 -1.4640110797368528
P 0.41554672192207504 5.303911362690494 9.82692763343641 0.02536650378924664 1.8167227247115356 -0.4755908357001229
Ni 4.75554938522523 2.19925333177706 10.745561460948467 -0.9285217679088847 -0.6526912496629727 1.669616800228247
Ni 5.04863972745104 5.069737706458879 0.6624672670091949 -0.300949681911043 -1.051085484276435 -1.6711239809013931
Ni 3.3253197067431057 8.568876938715793 9.13582090323073 0.4831676196061163 0.27970002850364734 0.1102231925243263
Ni 1.320928236466132 0.898963092007211 11.716465415529482 -1.0443345387058465 -0.0949662663652558 2.0071872186861173
Ni 4.098757706415066 3.767644632790514 7.106207378664693 0.5893606079251269 1.9033295633685023 1.3700192614697244
Ni 2.780277762897536 0.326720057072459 4.762781123260532 -1.0490265448648772 -0.3664472493932205 1.0357591383320097
Ni 6.9808436510919645 8.2308270350702 1.4219277396655015 0.6190226537659339 1.4685647605458063 -0.19382081204132423
Ni 4.372196788193577 1.239058804078793 6.446115141292381 1.949290346369333 -1.3233537390923855 0.32003266668442304
Ni 3.464705475748736 8.043263683231288 2.6084975541238706 0.37134854334957984 -0.03509221571744279 -0.29762473130286804
Ni 5.357004079094835 7.285294443552766 13.330712130609818 -0.37880217141414757 0.6895009622921544 0.4481409670192863
Ni 0.01318832349320738 6.154832269883548 7.225746209263873 -1.2357292578041816 1.4728515608466182 -0.8540654485715227
Ni 2.3560831880414788 6.890757599187727 5.377591997071714 -1.468624153028832 2.278394636337721 -0.9061616550461296
Ni 6.2286427379817395 2.9962561510793146 12.277880318468826 1.1632588585485966 1.1355259114097025 1.7354637806300433
Ni 0.7860708203332695 2.6059574501896963 4.280592609184468 -0.0009379384332370945 0.5657481107125095 0.8830098995200147
Ni 7.731226892164591 8.909106194039117 9.832153440544506 -0.5503474598867232 0.5141445276036049 1.9150951885448633
Ni 6.306190562361319 6.582383973707007 11.2961992379955 0.4778238387956996 2.3266442153727285 0.17589508080083902
Ni 8.088176875466434 1.6676862729857278 5.651988138821041 -1.7212419806037067 -1.24303273344413 0.17734261188064296
Ni 7.208284501714925 4.179764671968239 1.1901133475479937 2.4381665863244524 -0.7986113813682764 0.028756760417718217
Ni 5.868307804201716 0.5015884535426564 12.789210010319103 0.17224154320865176 -0.28074081106333587 -0.06119894010682364
Ni 2.5201837324562915 5.50613665071024 0.22566769300260864 -0.4987999268267345 0.14434018881269337 -0.057444615270713976
Ni 4.988248501385527 0.2894661267549262 4.027303720279905 1.344785169493284 -1.9681229056948042 1.8848901257163924
Ni 7.148551718071194 2.400365759365623 10.31279322385384 1.2239129818955439 -0.6160345176718874 -1.1266586908270597
Ni 4.250078903545131 5.707378912015773 2.5973670950446586 -0.8575809179239489 0.9590147942914193 0.9086186012270545
Ni 8.58624683527917 3.888083952955259 6.133686994307385 0.43622467519767455 1.7491433349996652 -0.793492314974156
P 1.7585420533548668 8.392256714450175 10.684644408329222 0.7927371819756863 -0.7257612301757694 -1.2609440665069123
P 3.9396743077775027 8.748566803004088 0.5016283310414404 0.45548352342728654 -2.2718784324857584 -0.04033006707761441
P 4.255643205701045 7.384932547491322 4.565467259277073 0.8815415425046044 0.29554882261044585 -0.37066257302614875
P 2.506263703229582 0.838914997907979 7.362360028412166 -0.20282198709867005 -0.1359938737305271 -0.003704959655412974
P 4.429676029464162 5.495499559755519 12.104754475957124 0.0037725796685547934 1.0018640282464617 -0.9351927521711572
P 5.558014494477206 3.3163519064351585 9.100720357847536 0.21062065720748244 0.11370009532933321 -1.2290150790087995
P 8.94768535565345 4.301919651964391 13.121102086245482 -0.7085037286469024 0.6479624767287356 0.4441752975033189
P 2.071923550775909 5.02837639376659 6.244213510181371 -0.21861858781129448 -2.124628783335754 0.5458117767998987
Ni 8.041186343759748 8.338310805048595 7.332716208676538 0.48559499810068624 -0.05331413804210819 0.4429961895935532
Ni 2.1422285085158745 0.6811188078358166 2.5180720797881224 0.7044390716592256 -0.4585606196907135 -0.46658271866424156
Ni 1.0206599444591926 5.281264652915926 4.295265673969611 -0.7825178182405232 -0.3524483640109672 -0.5029887680971015
Ni 4.6031524230116885 1.6586906511670012 2.4310686512782604 -0.5331976875803139 1.4302954326519626 -1.8496806676947952
Ni 1.3877369576847989 0.8364620680409138 9.289075695359973 -0.6962439374429429 1.6950948898946936 -0.2676009312472682
Ni 3.8901149232421677 1.8903510975915285 8.75729162878456 -1.2635195405435724 -0.6311320354349582 -1.25448494114513
Ni 7.834593078547608 6.804918964595836 9.281556468379948 0.7033656360893886 -2.481373717839546 -0.09913556725159701
Ni 3.122649274550887 3.499964603743374 1.3200462945744198 0.5936497222187841 0.12514767504464253 2.318973586201348
Ni 7.389263429336007 8.42603202853657 4.5444555269526505 0.2783761674859012 0.8154983869316019 0.3440657963742268
Ni 1.019918037505071 2.538787049330895 2.0242662301942036 -0.42151745089448694 -1.9971241780231606 -0.4023128529415781
Ni 1.1817557657098117 7.70109619599032 3.390041814653305 1.3001729301005478 0.5652068934970589 0.00779944143976076
Ni 0.9119297707978744 4.272057897060988 7.93916671849846 1.53196327940711 -1.1776084424020494 0.6598314602521798
Ni 1.7033719974789858 8.136150433887334 0.5853200723848411 0.17775887348245514 0.8072155780975193 0.6146924018216962
Ni 1.0071386902203232 8.791588132506226 6.532888578646465 0.12645353834025963 -0.22288661905902907 -0.6351426992562481
Ni 6.158940579641999 0.9203504147271567 8.481823431486527 -0.5062424991477088 0.5538205060369882 -0.7259250094471433
Ni 7.155534917276865 5.612683763159055 13.200423068245415 0.5039141081248483 1.839615570149309 -1.5941855185721254
Ni 3.605537963314904 9.294053891022132 11.542036598929604 1.3561874977929547 0.8956005917008318 -0.3059833876802085
Ni 5.746959648018171 3.886479579166971 2.7402518827226663 -1.0881278817417133 -0.6476819693738394 2.224272657682337
Ni 7.946268622816791 4.75344422424291 11.00702152756899 -0.3199470489491522 0.09751011583303207 2.1756386987247174
Ni 3.3178078988326227 1.3142232523682564 0.11725746671525546 -0.9641539152901976 1.516635133690472 -0.1658955463859659
Ni 3.3784495184951515 6.124386263253776 9.768372627082348 0.07261129570882334 0.9866652090188363 0.5075761303574677
Ni 3.7479655508324337 7.828259047926793 6.887271563887047 2.318307156261943 3.0618334237306173 -1.4701909832953197
Ni 1.3360074953086574 2.9719030553102668 13.426552598326964 -0.2760081814743569 0.04570650089817935 -2.596502832305922
Ni 5.677118382124531 7.805844184075389 8.406749866798943 0.7161365626018118 -0.5054284878868457 -1.0354423784225393
P 2.328484249348149 2.6186347852682523 11.177243731738999 2.037437790040543 0.38940488663065836 -0.09748080525699342
P 6.484016385427386 6.311541566267923 1.9111467495155623 -0.5016929321038134 -2.524331966568627 0.8472700229162441
P 5.449473507089188 8.622359156271047 10.285198922078973 -0.44476767967167913 0.8008292149552014 1.8388594087095749
P 8.301076349788607 1.2607966778345614 8.721540060049126 2.310881553221833 1.505494286582304 -0.9397929699473299
P 2.035746312925545 5.971905836507895 2.2293571338242444 -0.73013313399122 0.8848991461229276 0.6107732692729481
P 6.875409399074332 0.6522688285410982 2.803584769861272 -0.9703538734533222 0.9490725954770429 0.6804668771143442
P 5.126011348929016 2.693762138210009 0.471053418078389 0.8969553059565133 -0.870525908120391 1.8458522950876404
P 2.73741408862315 3.1116319562821784 3.390856057535453 0.6515687060227552 -0.7152654728507682 0.9584270401087495
