# total energy = -340875.72896865587 ev
CRYSTAL
PRIMVEC
9.15671371853239 0.00000000000000 0.00000000000000

0.00000000000000 9.15671371853239 0.00000000000000

0.00000000000000 0.00000000000000 13.40177610187837

PRIMCOORD
 96 1
Ni 1.9845711666438386 5.437705218102729 7.465861425838911 -0.38038468540991904 -0.08206627047413609 1.1539296107278707
Ni 7.715575078254594 7.87817999846675 2.2233416306292066 -0.28341552968202155 -0.07196954835976638 0.7304259826412904
Ni 4.2156868471243865 3.6750012221279142 2.2824427229266124 2.5098150038993743 0.009191950911913202 -0.01987591298832061
Ni 8.050912243926943 6.306210346901171 11.981535945760378 -0.6218899480114 -1.1657597705935794 0.6232809148216556
Ni 7.877264327106168 7.319400707385177 9.818878603211022 1.7526426064021752 0.46606695537008763 -0.929659995278386
Ni -0.43872653466702455 8.765502173725153 7.485240694514269 0.7600044676293557 -0.06211296728066077 0.47403171874311906
Ni 6.4845190309473075 0.5216964323207222 7.1391663664677365 0.028610464647841047 -0.567768740686964 -0.9295401818710702
Ni 5.782519582357101 2.79563623099297 6.883889094865156 0.19857401045559347 0.07622369565043002 -0.7242085409766689
Ni 3.0651457825530763 1.692453689190962 2.9783969091942564 0.15055840180826327 -0.28045027640611053 1.2087349886035248
Ni 1.056364265135449 3.712919173169616 8.856563859192313 0.37455856564644524 2.952841532510231 -0.6661630588971624
Ni 7.538612431108514 0.8996251356591822 9.415592212883965 1.6331415881203484 -0.5909261526400339 -0.4689926136573148
Ni 5.090381914320362 7.706454991503198 1.6605205661620246 1.7353640218273854 0.7142424309028925 -1.709156253083766
Ni 2.9756938473378183 8.645704889620205 2.278261767494195 0.538176371741828 0.34150343496368923 -0.7517386280761376
Ni 7.112275845621524 5.859353566223539 5.717532554553873 0.27763517555481865 -1.2051300448610858 0.8040091553450798
Ni 0.8632015602779506 0.29060112567975266 9.817189189550747 -0.41414378413823516 -0.18022687540697346 0.9010945249358676
Ni 1.6770337834787608 0.10952619845329734 13.472939336993786 -0.262859817017857 0.5409991859026038 -0.7957204329737263
Ni 6.141398658710013 6.080543140085731 8.843590627355587 -1.0120949619458506 -0.11209135608131662 0.17365050774103644
Ni 2.7337460037312313 4.4673408071531435 0.7411489776118911 0.8200687799111038 0.6498609793030292 -2.233811707521024
Ni 5.903452298949168 5.302176700022984 1.1305189946008236 -0.3871502862685268 -0.3082189618789466 0.49768998159200734
Ni 5.718642348242899 8.495974308737834 9.165045299530151 -0.031901219583970866 0.5626054513184698 -1.303004228901756
Ni 4.0711939064245435 7.265009828566606 7.977634727625007 -0.3632904489317937 -1.6317015132397124 -1.1274901855894195
Ni 8.679657983670587 8.381771776646044 12.921965228589816 -0.6889569168632264 0.46347502627319537 -0.48588810386107295
Ni 4.386010876906248 0.8709792728147342 10.643489193997242 -0.4028016196525386 -0.964974868529596 0.25537327883282473
Ni 3.1061312326527277 2.007105838827762 0.6648973607307839 0.3373325914154513 -0.03020377727688992 -1.213738612465703
P 4.529844534226472 7.637614818614641 10.693852950171976 -0.07704850554457054 -0.9136227393098653 0.005218053865829723
P 2.611613757656801 2.1193854610623295 5.4723871865561335 -0.827249356819943 -0.47581555011641924 -0.3740219764166849
P 2.4046811868788702 1.225818407124758 11.656717097007034 -0.006708008147794898 0.9571944532532289 0.4038277469242077
P 4.682551047030736 3.9279096519206687 13.027343435779676 -0.028497078998428342 0.2774073758147287 0.34051021781248453
P 7.324162198460204 0.9634602488907972 11.619581129307269 -0.20435796412722226 1.3275330672810557 0.28910203854383765
P 1.5654042879102066 3.002971697169557 2.0018901747578868 0.919304877296307 -0.4984232602136061 -0.05312619040101819
P 4.943022922261898 1.5995954565143393 8.578932302663844 -0.1401415773503135 -0.6106393147982452 -0.46415816838314905
P 2.9604570758977338 4.8121551714075155 9.321994117747991 -3.383499769363721 1.1330231995925066 2.034153462862316
Ni 8.591304854088028 3.4123134222041442 2.4881336433395944 -0.8844029232127995 1.9746877033965153 -1.5887594624605477
Ni 1.201470705646882 5.9648938472442214 12.93639895624667 -1.1569457718463751 0.5300516857521645 1.364749785540669
Ni 3.7872991577896933 3.1637727448013657 11.00111563192888 -0.8774748286343984 0.3356696018907316 0.6365053839317295
Ni 0.6332178786687277 2.12497105636188 3.872268881694902 1.3602205302117476 -1.457440882718503 0.6545229035550727
Ni 8.689373256806363 6.192145165513468 7.948271894105223 0.250147254547195 -1.6566504698755664 -0.7909890889363281
Ni 4.683411778109683 2.01891799937927 4.826944179552275 0.3706522886135036 1.676664708213964 -1.4293778059336997
Ni 1.6846979527668324 9.365669810305032 5.283851369083656 0.46888668420706986 -1.1583879036095404 -0.4270365809405032
Ni 4.824690712333883 5.3186313143726425 10.684807032800785 1.2421472455153835 -0.07720971371278317 0.5016466522469103
Ni 2.6628547269949707 2.1693536472092907 8.2422802329177 1.5115854870817063 -0.41431861915320256 -0.29375702081734567
Ni 3.5521913792466533 3.847394669184691 6.432745140877279 -0.3279889454170222 -0.678117145935245 0.8636451218401577
Ni 6.163219107232682 6.647096481018645 3.53252092707863 -0.6422787960803971 -1.6581360532821572 0.24786025828523117
Ni 8.548295770281491 5.978839522065886 3.7432370519184865 0.3258731846256001 -0.7648895636357989 -0.46054345444869715
Ni 5.304383468001987 7.499705554997383 5.908172584812968 -0.16432280258220733 0.5260561914395262 -0.8498976903470781
Ni 2.897248281876757 3.932176680460981 4.035797714309885 -1.3295346710921168 0.1528554253725561 1.4874852515993928
Ni 0.02523407135491935 1.1640197469990776 1.3215838963712288 1.26529822971055 0.3210616221695697 0.673072384422486
Ni 6.332426017954634 2.919920304764768 1.2040986824517526 0.6163420216099772 -0.1709066264473121 0.32039699200237726
Ni 8.468696458906095 5.6493077128196285 1.1419850313780315 -0.057390622104326966 -1.23475043883068 -0.025156701771285702
Ni 3.8281289437580455 8.88286377201095 13.159726622735821 2.1221929202007512 -0.028093158691790326 0.2803294345575301
Ni 6.921422463935413 0.37285038997267217 0.7764627593040974 0.1459389007583809 -0.18744833285607718 -2.063045206196002
Ni 8.658020669420035 3.0931927963277035 10.390986406617227 -1.757705622747379 -1.9971306057810636 0.41348635305989434
Ni 7.090684314939 4.063190938733056 8.403637093065383 1.0306079331483735 -1.0867603119702252 1.018072519685524
Ni 2.6463177022228597 5.799139017551664 11.34422776312393 1.1029811447044617 -1.1412160198159442 -1.0167882536564619
Ni 4.031545336511342 9.865076970366468 6.566267423005988 -0.49562821396697226 -1.0442617764863824 1.3473488164554022
Ni 5.3769321099009 -0.004798117929449793 3.606645439389106 -1.080863743980132 -1.060935123377005 -1.3725194021837588
P 6.55693947885574 0.9402296664728313 4.920568829157705 2.2986400168503187 1.4180965765929254 2.4618320482621927
P 8.25377923386389 4.1746739268839175 6.6751966037321875 0.5599908965137581 0.07216186687623057 -0.3079387116343664
P 1.2921587971989255 5.452914519401996 4.675558064849971 0.0372902518100261 -0.8549393665360437 -0.7205220932640172
P 3.726553519728682 7.927965050341595 4.278101754075738 0.04375683337097625 -0.20325984596703706 0.26578650374634866
P 5.219097837477377 1.0251673418804197 1.6801406564052155 -2.6255943503552395 0.693623211990644 -0.09651561313024667
P 0.06006712558282003 9.015800940140249 3.3153712952593253 1.2249697052948323 0.09318757719827822 0.5959981678463026
P 6.467835498757503 4.301723328164673 3.163114377093107 -0.23182428786829107 0.5394470109241355 -0.6482998054634963
P 2.9300659434400167 6.876444686703625 0.8388511117859928 -0.24813973719886293 0.035599751481480625 -0.7965079618720283
Ni 1.4005925997190485 3.420105785482697 12.002094599148164 0.7895199605899692 0.13789211919450445 0.719595981905322
Ni 3.020982952832205 6.33924776959097 5.709571707744973 1.299517555904736 0.6206396205440666 -1.3058944059653574
Ni 4.7848864782893825 6.613198327249899 12.667063382245074 -0.2552041002448121 0.10460841744071017 0.925301204089058
Ni 5.15393866345836 4.559081920769856 4.925822951424726 0.8593842896812748 0.4790217157585427 -1.0222783302367555
Ni 9.243244549395216 1.5633074004944736 12.452032613954156 -0.5993079489458258 0.49298357725527353 -1.0507669245947517
Ni 4.637857127920728 4.03956661763004 8.73383001703398 2.4915102920529155 -2.4917897709665473 -1.4701930401778487
Ni 0.5341669605804886 7.049140305309393 5.9294949081154815 -0.7888352758181189 0.09921501433928075 -0.8852233622315658
Ni 3.821188154844834 6.151754901798196 2.70174420535025 -0.9730879845550339 -0.9516149022829222 0.9812918605220647
Ni 6.140785158898423 2.4757647546008523 10.239050889098573 -0.7975544008586716 0.9742272403657997 -0.37498305477837357
Ni 3.004445928060094 8.849844662748362 9.019448974840808 -0.17588942437388416 1.7882513567447202 -0.9167587138356856
Ni 6.551042555293591 8.192218648291961 11.345152591198117 -1.0712629876655744 0.16768040620053057 2.697678055695367
Ni 6.808199700199446 3.483451930207761 12.211939920524106 0.7267523904444452 1.6605035250730693 0.0499472784524043
Ni 1.6930580322889461 7.423402660520083 3.7443761470910504 -1.18320830508733 -0.5899691880434033 0.049558270544101744
Ni 7.757915721967908 3.304236731514648 4.748852063236399 -0.8351858380582003 -0.2927797445057409 0.4168164458743918
Ni 2.542178398383866 8.179838771496891 11.215316801967111 0.060419638738637885 0.6282788822568792 0.608651594944255
Ni 9.30624273900326 1.6460199944958478 6.196538556701541 -1.4472132914532239 0.19934714117619215 1.2722785176831248
Ni 1.1878638292286332 3.764737015464952 6.047135786166257 -0.9156911918031199 -0.29516032892277555 -0.19631555343871995
Ni 1.4192448253341041 5.0884864746039575 2.4647876863301947 -1.1504915315805992 1.509912727364974 0.45994258763990464
Ni 1.53446375263614 6.853076753581571 9.338451479111733 0.10059543962657513 -0.005591892265480692 0.07516285848608345
Ni 0.770368966399424 7.643411018327125 1.310176462561098 0.9630545115784318 -0.6984172909451779 1.9306321078381976
Ni 0.45065498548132654 5.070337868237222 10.649600384657768 0.2144562289034887 1.9783253001491026 -0.2036218572921461
Ni 7.603167262029546 1.3332724412890584 2.874211821787234 -2.1720846628248722 -0.5963385819048569 2.2435137653001362
Ni 7.652439537942464 7.983665339205799 4.827587896518764 0.3705975241161682 2.217648981718232 0.12930000665011923
Ni 5.342191538480418 1.7589039598283993 12.670213291725476 -0.42167660218017056 -0.8053433007754711 0.25834393142537443
P 4.848910219821278 5.452017161468627 6.996893013145944 0.5944634763693311 0.4208978150326171 -0.7112131571582654
P 6.972196440879687 7.352456443502188 7.385329961018443 0.665040515256945 2.4046244887029493 -0.41472151101857613
P 7.266392492321084 4.912210580978313 10.44206072376777 -0.05990284700321942 -0.25137238520354777 0.1593628874737707
P 0.5166867943069778 7.608771170756308 11.10874547499441 -1.0987606788652111 -1.0562644573742133 0.5296935310817974
P 8.45792816370565 3.3991643814661865 0.229142179628848 0.5245472109941676 0.12408503810808307 0.16967121137831423
P 6.995848232123521 7.031064952651504 0.357732655809463 -1.270219321161251 1.018088203414808 -0.6327939965184134
P 1.876064110414869 7.704669432350063 7.378160254265087 0.5510527134838639 1.4000253209135114 0.47044940070849944
P 0.5032374133627492 1.84738528340144 8.436283524084214 -1.612155729897301 -2.605992774074228 -0.8522481928571257
