# total energy = -381168.95356047153 ev
CRYSTAL
PRIMVEC
9.23682435321061 0.00000000000000 0.00000000000000

0.00000000000000 9.23682435321061 0.00000000000000

0.00000000000000 0.00000000000000 13.51902611343342

PRIMCOORD
 96 1
Ni 4.780730788821565 7.074382015908403 10.593684066519948 0.36992775174265324 0.9423969832290802 -1.634238163618637
Ni 2.2985282702411323 0.5209125456346253 8.184147643573676 0.7521731445103949 -0.8191663227014924 -0.10179125970688922
Ni 2.175613851199087 2.9643370290439215 1.321251953537871 1.434193225044472 -0.12225209866440234 -0.23321165513412095
Ni 1.48489337764794 0.72995757888283 4.30789129450612 0.2256649531351146 -0.08817212626155782 -1.5519510353829464
Ni 1.771308821072885 8.461891556481099 5.9454509018021335 -1.9915831936002732 1.3255890561808072 2.917779655810091
Ni 3.2568949605325144 1.0286496852933302 2.575793715657281 -0.945693394592165 0.06909119837070682 0.36657966120602675
Ni 4.703834227724021 4.088347686922363 4.978057063263228 -0.2205769970892459 0.65685283723983 0.2268777424962931
Ni 5.53057617379438 2.497424804789292 3.6023743523396985 1.8042575023649894 -1.8793046612088151 -1.0828103261835416
Ni 5.337720522244154 5.6810348024692034 6.603774138309013 -1.582106218810088 0.9108420912409345 0.15854347689626888
Ni 7.854579605057378 1.5758760955831732 7.190013199103552 0.5663227522690569 -0.449090218306433 -0.47753638946226795
Ni 8.062518990454125 7.899045676543693 13.380983505380554 -0.49387652138318805 -0.3963777184040657 0.1055270726002376
Ni 3.8138662203067906 7.260947390208488 12.62956878398366 0.896478880540727 -0.015142254958077146 1.2728539305706206
Ni 4.866088280845879 0.20561262939188663 12.401151359433367 -1.2215012871302575 -1.311388082090077 0.4735750908216747
Ni 8.364951086965334 2.0746184158789003 11.653075749968817 -1.3085565261785528 0.16633109126148773 0.3171895408086731
Ni 5.849985553104061 2.2430057202402502 5.9138434132231925 -0.047655911315066316 -0.9552103329436646 1.178041673284726
Ni 5.536219873353612 3.411972001285269 9.426424750578933 -0.6819771431112835 0.740042679795448 -0.5519556849141074
Ni 6.7185795494246285 8.99356315489247 11.128389037984105 1.2264380623102427 -0.3000467104807994 -1.008170944301096
Ni 0.23832668950470032 2.762558605359133 5.031632490732055 0.05635009665495457 1.0730388486190745 0.3233388482395205
Ni 2.6072783544749503 9.109651560883334 0.01183883752056734 -0.7613640669810436 -0.432204755405004 0.9936562956246887
Ni 1.8984906528749383 6.195553618423142 12.406517954267924 -0.3704532852288201 -0.16701011960638334 -0.2809300442560065
Ni 3.630025709132685 7.747035261410685 2.0364786452569335 -0.9904146487589395 0.36644185007658187 1.189856663641783
Ni 1.6270388645824885 4.393883356349941 8.787460973820323 -0.42876256249267447 -1.4281503612845017 0.19231928779513333
Ni -0.001775317602756529 2.6318667803778526 8.981053723938189 0.47103561222927265 1.422796810282072 -0.6135508320180852
Ni 2.667105264532463 4.370939085146782 6.171232136738343 -0.5270229262281698 -0.1102879843239907 0.02864131788577648
P 6.2538656893190945 7.129655171657077 12.36506862955091 -0.35107282381967925 0.6428040724562477 -0.3951870405300742
Ni 0.20159091615442462 0.5313252175055276 0.951356864439499 0.26464261994989263 -0.6643360329907526 -1.924804959633459
P 0.15478146237976667 0.70474289630216 5.929620832563819 -0.6510015206653756 0.08582419485467155 0.5619606186456193
Ni 5.429192791859648 4.745529251963578 2.3897585350637423 1.8236562186065752 -1.4866108194142396 3.5770670706333427
P 0.9694693529267273 5.91812560490185 10.569796715570474 0.9931927257247087 -0.06697903712371045 1.1176850265735396
P 6.93668867821698 3.463605848316533 7.826123720880417 1.3509470753296218 0.5472744773883542 -0.9378805834159655
P 7.536758959502504 9.022049520589146 8.928680930974455 0.31116518899146406 -0.029768489511684218 1.4152547362687562
Ni 5.0582604074085715 1.182960069641148 1.1976964988994088 0.6809384174341241 0.3441172184374525 -0.4679412895746651
Ni 5.197967372765973 3.63394212257477 0.2976686662940308 -3.0278210713409144 -2.852178987091146 0.7927469521676993
Ni 7.347376353834882 0.43906597047195456 2.1801186503399004 -1.3322533555748604 -0.09116797566508815 1.252259651359037
Ni 6.007445694489028 7.8704854162537705 8.07322446965077 0.4640892628184265 -1.7545724764350363 0.7367503821974215
Ni 3.5093743120088257 4.87838249379733 10.074108089340676 0.023690144528088233 0.742717912634766 0.5976493302964804
Ni 8.468930016487864 8.113921916881493 7.2880260639038115 -1.5475464785573476 3.02989080938575 -0.16460562392994876
Ni 2.2208003949695603 2.145003015946563 9.836794679445875 -0.9860661419822567 1.361834925886719 0.7911495257735923
Ni 6.14367037713967 8.043075475606038 5.688670884998855 -0.4222067636520277 -0.00392813140981259 -0.27590173780347965
Ni 2.8386792732275854 3.97049504751773 12.607343137699825 -0.28643683300684863 2.6568828760558763 0.033942418383715735
Ni 3.997189469328169 2.4755704788365245 7.481725961181883 0.010925902883884408 -1.4513782214641908 -0.25531234368790223
Ni 5.26448174351233 0.056691931939013895 3.7385916455310153 0.5080682395025379 -0.6254887211062519 -1.095063689629598
Ni 7.22840605870739 1.7203769726774663 9.567901491444596 -1.0524011177640649 0.41553860760323275 0.4073295894298791
Ni 0.20889724406171084 0.6321276032008569 10.0437845193194 0.17875980394314375 -0.6857574360893222 -0.38082768648460863
Ni 3.1334078583928053 5.1377617529180695 3.6134594650091474 -0.5749097226071195 1.369088522125339 -0.9015262131566473
Ni 2.728557855641408 6.661837738635173 5.485155014690348 1.7626789075922547 -2.4177304299572877 -0.9560446559195017
Ni 7.043180023909904 0.7233273865037528 13.327867148072274 -0.15871908324218473 0.5209456096858383 -0.3329493747460911
Ni 5.608701232504654 5.159375921442785 11.495484445680836 -0.4042442656363361 -0.7312253386141342 -0.3807821779586539
Ni 5.503161279699784 8.026116666455877 0.7945054297664038 0.859356521767133 1.1946227175718587 -0.6028488722195489
Ni 1.0990712326576162 7.896126840110441 8.931601614772537 0.3110960263164255 -0.7132029338947846 0.5448609828508553
Ni 0.27243181533538674 3.04127053743809 13.450025071215956 0.252894478275029 0.3342603802480308 0.23510758660525316
Ni 2.5132290109199706 6.1967174582667806 7.779455590515343 0.2831391360921834 1.5885494033322705 0.1228488517081368
Ni 6.962708811864041 3.9865486479006167 12.817442092584214 3.7422586489737486 -2.0370716649503757 -1.1502835293348512
Ni 7.499312874374643 2.512924195722827 1.2110344729804725 -0.4254301556853319 -0.004426411202469796 -1.9794031065943134
Ni 0.7667727889208461 3.7584360385474676 11.12940324127642 0.5379580850834348 0.5932049213718815 -0.12635635064076303
Ni 2.641897971411118 9.175122170500078 11.103351702427227 -0.6511956389540526 -0.14303869639245043 0.6141516988268777
P 3.5589021631325535 8.33920805804295 9.388530679479512 -0.19975980323357856 -0.37587368491344303 -2.014743433766821
Ni 7.369156785194402 6.739427061544407 10.44824657545625 -0.09535141761881642 1.0383479821051087 0.7594095143578341
P 3.7686796765363177 3.2417927530376813 2.8923683136335288 0.7245011325164232 0.43209034131432683 -2.9335343475411864
Ni 0.4627399507834269 1.8861779662751752 2.6331414621113614 -0.35262242769498625 1.0696033405749643 0.6317347020159636
P 4.136129778280633 3.049657573771612 11.037987316288277 -1.611144772134283 0.9702877961020773 1.5195217112096475
P 3.9394408447057243 4.460286885206427 7.9153893132050746 0.2848805442633223 1.7898675521919047 0.8300873404893705
P 1.6132113388211642 5.331845902081026 0.8322470932672529 0.5139154423119343 -3.1579782837850066 0.6963280125163169
Ni 8.403265433563847 5.691740281665847 12.339747723492449 1.173191030060644 0.18828085605970152 -0.6879061070012089
Ni 9.193078556659074 4.37344226449302 6.966422015174697 0.7014056841495405 -1.2843719585125493 0.1829059649010334
Ni 0.9303791130991226 4.314742246982522 2.744037849244216 -0.7923633435760354 -0.4016464230021728 -1.8567730557652022
Ni 8.292478964638446 4.9714896812884115 1.095572323667376 0.5260572198807907 0.040956644918019786 0.2660482420481676
Ni 7.1104056301162615 3.979325451410733 5.22502203071849 0.8534514691366075 0.9581740435576789 0.0751587447210254
Ni 7.642816174460103 5.947969783749437 6.585793736407214 -0.7629632931473634 0.8843173054775286 -1.7884835273601842
Ni 0.404686510963839 7.9328801634266135 11.457280017289778 -0.019694907325766082 -0.12758122418679962 0.3220414695843357
Ni 7.75072999107303 4.095478515170688 10.319815925028324 -0.650156399056261 0.37934518840181125 0.15287985085258832
Ni 3.977478086579561 8.224800754048452 7.14452091645352 -0.7713533169832716 -0.026886025757566604 -0.1952446889720444
Ni 1.7157400869512238 2.4502246333528412 7.218253865277682 -1.752576271940614 0.1948510530780515 -0.7359086030224165
Ni 3.31749776381912 1.9406013342015096 12.910588998419167 0.538142433180099 -1.6879688203728735 -0.16933336842292127
Ni 5.896705409684408 1.9727085349672833 11.546653680457062 1.0961263265661574 1.9160673226501455 0.8361312326906052
Ni 0.9413247497238182 5.228005524920834 4.638093902841925 -0.7981886920085608 0.6919149710502859 3.0292871143634796
Ni 4.288675929214682 1.2567253473498559 9.96440048147668 1.5251295443147281 -1.7492621199657163 -1.5201007236415693
Ni 8.982746833805958 5.820372294860371 9.055760234028378 -1.136576464161404 0.16671495696346772 -3.0718363005796
Ni 5.929385293547845 5.706103543228211 0.46452635257517044 3.007479274459769 2.119668096896369 -1.3483633737628455
Ni 6.605502348108574 5.767537660688845 8.570467653386 -0.9224277391960051 -2.641168293534096 1.1015014748351417
Ni 7.740440168963401 1.3336034347990888 4.522709342851738 -0.9492831688259523 -0.897384423074132 -0.22170648270799884
Ni 2.5186510266994615 2.836841145220569 4.373729529724267 -1.0951040559492302 -0.46299243020982195 1.4465633165740506
Ni 7.7617218118185045 3.4372901362964843 3.065330616999277 0.7575971437394436 0.057609165873036265 1.3632893989450585
Ni 1.1247773142833781 7.37507758947831 3.541754922769613 0.6632859944596835 0.23972528788292263 -0.9846296666460461
Ni 5.6016442988495765 0.7728155192836105 7.848794582088562 -0.33865413844035225 1.1060700680424307 -0.0762126399068365
Ni 6.247030439443757 7.114479069568996 2.849418928673605 0.05905772539410474 1.6604814135858823 -1.7547180008739651
Ni 8.390897326019148 7.848049170379183 4.765281276738472 -0.09166754100932599 0.3262758193806574 -0.09717381553953588
Ni 3.929806837111161 0.8740852882812263 5.405623187661136 -0.7649733815988567 0.3092116648095191 1.0174336005499447
P 0.9039211539870737 1.0488783301946663 12.113844562477382 1.1389781316243608 -0.6855610038077999 1.3192152914439796
Ni 8.070573501118037 5.653398224594866 3.3638989499660887 0.2925630005092445 1.1007255159010656 0.8979449235632921
P 3.14750325205465 8.359196545516232 4.2284407515294795 0.5854044514908563 0.5932185482186364 -1.4959284972707398
Ni 3.928633760443367 5.581757416442008 1.1300164409445825 -4.654372150727939 0.5964884772191598 -0.798491053740328
P 8.452082049227574 7.922885919689972 2.080415446719119 0.7379426027333097 -1.2928306308028636 1.1348527966020778
P 6.115571958057539 6.077165243217468 4.550382868022698 0.3061744206450921 -1.753248358306974 1.978150208023819
P 0.40237176283038023 6.652998097918014 6.732190933500705 3.75061396291698 -2.9983744839450233 -0.9946158313244805
Ni 0.9262410158772968 7.219418628803736 0.8463637316246555 -0.1961132076199268 1.8445209778707266 0.5035392412839328
