# total energy = -340888.7095734678 ev
CRYSTAL
PRIMVEC
9.09592566170862 0.00000000000000 0.00000000000000
0.00000000000000 9.09592566170862 0.00000000000000
0.00000000000000 0.00000000000000 13.31280663616488
PRIMCOORD
 96 1
Ni 6.337149440579573 2.0114729501132 11.427180194533701 -0.602581220380459 0.1102375907020295 1.9907524701688617
Ni 4.611934359748331 0.1335391004576373 6.205538676313597 -0.10348150292511857 0.6747513147868057 -2.1052611774424195
Ni 2.6801599082735144 1.4374927675546705 5.083521709714729 0.4053040743594181 0.7404563702940989 -0.4568647200455293
Ni 3.363755088217475 4.450527162951015 5.016225505403376 -0.49096114750860603 0.5977020379112867 -0.3094448638662477
Ni 5.335060431621351 4.445415252858026 3.0074831521049723 0.06882868873793953 0.43727162840495015 -0.35755997420591973
Ni 7.266853074947034 6.080980892627877 2.357245459499124 -0.3055511852387963 -0.1660359286185721 0.1044333253154266
Ni 4.908452432918 4.432571806147527 11.756486350109414 -0.12264496322744683 0.025055400306731045 -0.5449118906934487
Ni 5.88330824113172 7.877471645147129 12.231606557513743 -1.0573273514210886 0.5124375722148272 0.43441307591023254
Ni 1.8890054100918374 6.6763183081015995 0.4299507512997458 0.29271598114734104 -0.9396757276431753 -0.6551620798009685
Ni 2.7268038138906823 1.5800532068561273 0.27953870916507145 -0.3667256998655878 -0.24673720042438155 0.8436000302638246
Ni 0.4249661841628098 -0.14511002720014884 4.81407038185415 0.44508881045652376 0.3085442064288492 0.5950931395335299
Ni 8.974549403395539 2.0801380912021235 1.4300350182926742 -0.5209882899983156 1.7289601751835706 -0.4635920114670338
Ni 6.816386463834588 0.8524119175984822 4.860332258603159 -0.6703238751430713 0.033087783692904306 -0.017833171526678966
Ni 1.0985512981684527 7.347388398725194 2.5901793755263864 0.15994138568506003 1.1912977669636837 -0.446209040103896
Ni 7.6487636960757435 3.995758179109061 3.8916789619417678 0.6112034148318313 0.1992710365226181 -0.9208907337261882
Ni 7.838495604669446 3.8448385843352604 12.671528262272448 -0.16145216590263164 -0.3940518984843665 -0.257521178413763
Ni 7.9283542520157795 0.18144733970990384 7.041955409039265 0.2064017340301284 -0.855417591724043 -0.009800788140505702
Ni 7.039082006195181 0.6091896003146715 0.5488972585862399 -0.5698464491515992 0.442587898411541 -1.1235507413256973
Ni 1.8794092087606924 6.250201489371595 9.305904870971164 0.6672154114210767 1.104083633740021 -0.941392967444598
Ni 9.418194070433712 4.87857231787268 1.4097993129832918 -0.08440700279217075 -0.7056809144861267 0.28765502168466583
Ni 6.2283894601847845 1.9487292564807461 7.027910390579151 0.2179822397788762 0.3773875504548081 0.8019581863533221
Ni 3.708990938002889 3.9384811366614585 0.5419525195186292 0.08856704770713135 1.224849377666884 -0.7154871019432709
Ni 6.0935787493517015 6.026559970766037 4.760299818660725 -0.7178648581468282 -1.4964720284790356 0.36820305574206263
Ni 5.30301548632313 2.702799666674671 9.404632045614054 -1.7046365108365416 1.504846111475344 -0.9244457980672983
P 0.073586036747833 5.548496321891797 12.568301333318166 1.4979547836721494 0.9648504271365897 -0.6174044014362206
P 4.055673039932049 6.020965976625132 13.051662449164215 -0.5647345818463306 0.2036514249785009 -0.8907774592805755
P 2.502698403088073 8.579495170017061 1.3547107501947164 -0.4488397928585238 1.3559231883879745 1.0096680976719128
P 6.527108747309083 7.9765808486581795 5.831155843072712 -0.2692888604726523 -0.5874657048952592 0.3185465690571998
P 4.67407772230225 1.1779951108947289 12.701082743187287 0.7043542252549031 -0.6877742094090348 0.015308091111980086
P 4.1758756945207525 6.180726810919191 8.120891344012822 -0.8638906621920606 -1.0290537012873762 0.09677863698364624
P 4.752584654708992 1.0960408227491198 3.8902545400190593 0.6021315344375501 0.17259609833459305 1.209395505005659
P 0.11035813449325504 5.708848391338959 3.476412672660032 0.19250749254653945 -2.2656789885432653 -0.10985012545562373
Ni 1.453783570004036 1.0393823032309182 2.819465825455271 0.8767497775429159 -0.6014530203132867 -0.5591563164276048
Ni 1.615954824537672 6.4676577786831455 4.712054120574917 1.973393924285756 1.125147910609488 1.3139566141482018
Ni 6.048371999952849 5.289680859639281 9.175066350774395 -0.5779953035109787 2.3366530057589823 -0.08017393854742966
Ni 8.416159637028082 2.5312323211694014 10.294007984984582 0.9761385984558996 0.45133273448370664 0.9987954166234669
Ni 2.3761195047712813 5.514377505594995 6.960028408669954 -0.4467816247779144 -0.5094499503414129 0.5207563764931677
Ni 0.5529331207005803 -0.061731317131831664 9.127193585631316 -0.2569611921452349 -0.27751459081655433 0.6843880665456213
Ni 1.379597202177667 1.0095567637381935 11.379160984991161 -0.518995685048319 0.03569102564370627 0.7120806473648833
Ni 4.147842052338204 7.185362678998476 1.713651430829075 -0.04483721091934858 -1.0500688700864624 -0.7826227192495038
Ni 5.736027016530866 7.792288303473031 7.90567720032035 -0.5292333036159272 0.25029457875833666 0.7087796080161083
Ni 4.934239381518754 2.8708741768139117 5.289630832049403 0.8050044293788136 -0.885510040234049 -1.2780632426857024
Ni 0.6735423631561107 7.512424869770024 7.20093672252377 0.43490081417992843 0.7961168970811966 -1.434409711930652
Ni 5.188616032160274 4.357494037628785 7.279669233881235 0.5613975470532977 0.5812346363838828 -1.205066795723318
Ni 8.016029877258346 7.275621547063833 8.986476890415 0.017490957695911812 0.08756380325359758 0.5002716262762545
Ni 4.425804437625847 0.2525201722607744 10.463573317302187 0.2853137751459989 0.6090130920487318 -0.16443464556972326
Ni 8.023179274648186 7.14834226248875 4.405673335458936 0.682999670838527 1.3904340776806505 1.2848720380774195
Ni 7.255001084108662 6.099118167940013 7.004958641935664 -0.6602672622380178 -0.4366946728555576 -0.509564107321774
Ni 2.5809233618064122 5.179092598232588 2.730856048670801 -0.3624355571306661 -0.4223162926466985 -0.675871544434178
Ni 2.422254038564237 5.38270488903608 11.495062176442898 0.45997009844373044 -0.23747068752079104 1.1024635816380948
Ni 0.9061224476840545 3.0900586919576116 3.937901726211417 0.5043239419687572 0.6733186961053372 -0.3735491505453244
Ni 3.9397272784456923 2.6270306078230705 2.7119246990684194 -0.7855794878849826 0.9430243324004339 0.15586027363715094
Ni 1.1047456233878932 3.658162906686833 8.238936445088969 0.522128831360662 -0.5762348691764463 -0.19294612274585482
Ni 3.559181046131837 2.826149511462973 7.3743359874111185 -1.0765962269530298 -1.3895645305915036 -0.43840059980307083
Ni 4.066642726003481 6.95742788358884 5.861881879183241 -0.3374153809372447 -0.3487444327968187 0.22027309269558193
Ni 0.8921201800734718 7.531871958344421 11.577029198884114 -1.1779501420121843 -0.6625421743151234 0.03706887982783939
P 0.0778647600712175 5.676184923111337 7.939637747514628 0.46363212067634996 -1.5033461298910495 1.2430003375442982
P 8.713769221249635 1.709651952416464 8.342270705963353 -0.7334547421652852 0.7892304543740085 -0.8970059566887906
P 1.8079698104148976 3.117610250092245 10.544221430555709 -1.632584172954982 1.7630895127671122 -0.31584639651721735
P 4.136308418889965 6.270030606814151 3.7547170647439314 0.015189820366560938 -0.2297128979522431 0.2635509295476106
P 6.705543516515789 4.051397954978838 10.609986790616793 1.5108848614702561 -1.010832550293659 0.659551981338548
P 6.316174236532539 8.0011216554747 10.125254918808086 -0.35464897120671174 -0.3887788230108853 0.13980759104966242
P 2.3789847212824764 8.495166845333605 5.944926768788191 -0.696064217331969 -0.2977954525527774 -0.6208234544200986
P 7.225466614229773 4.030277216124886 1.6073346160054198 -0.24501764663011352 0.8264150338441058 -0.6968152365653805
Ni 5.770627916875582 2.8891751787838302 0.3908337239778601 -0.38387547217199697 -0.11078035057937695 -0.33041683813222456
Ni 1.3055654650836481 1.091929464453691 7.082758820936311 0.35315516027000465 0.3807325556676411 -0.21559342783172547
Ni 6.66009117713026 1.0919112726028262 9.355587725275285 1.5734989367570513 -3.2031497381153224 -1.9726004818501832
Ni 2.4733367557923986 1.573767922382363 9.236398356779747 0.4910444512510317 -0.8828528051168603 -0.9130825505356791
Ni 6.659045145705539 2.1656579821172195 2.4164608436563633 -0.5849840761239861 -1.1172394543956887 1.7153793511753423
Ni 4.124410948424432 7.08984636603321 10.170757285783491 0.9043739670180876 -1.8823547608890485 0.18071847033141136
Ni 8.076999865431489 7.36833631499593 -0.0823654239751517 0.36717358603628375 0.058596212376653925 0.5250028104743474
Ni 7.755831834340111 3.753806562608151 8.135868694829755 -0.6217547079851163 0.12426578666032147 -0.17669392255305053
Ni 3.17016650724045 8.496476658595865 12.602129080001133 0.8817600862733137 -0.5749063801730099 -0.8731947132018058
Ni 0.386914289709054 4.889196358777682 10.248451042456582 -1.5931236529665145 -0.868518133661743 1.02991347818451
Ni 8.659957726391763 2.5064732121425046 5.9185940646614945 -0.38492782469591125 -0.19958676799082403 0.13624455628875246
Ni 3.5901617681544726 2.3379984812842394 11.1878163688183 1.5163600256522143 0.9571533156026483 1.4570223071238455
Ni 1.2652978031945683 3.3515847399889704 12.806027892455743 -0.544432637064185 0.3875194966824874 -0.5069811770859463
Ni 2.8970613461336905 8.325746138230375 8.19491125640378 0.9241107833253827 -0.23140674071489822 -1.3061147495062797
Ni 5.671773399276639 8.118950273525556 3.495197577862952 0.10386408307551791 -0.1921629647229271 1.0192050906280705
Ni 3.2379766313387313 8.604981953078548 3.6513964477576972 -0.49391611637187194 -1.096901514169285 0.4505338927314951
Ni 3.547792947490516 4.192039154014066 9.422990351914196 -0.7676342162604715 1.3303641089719476 -0.14506318302164695
Ni 7.423648637550142 6.139949777205899 11.13083767272488 -0.09388588881688348 -0.22744261386082767 0.5660461015689026
Ni 0.5431031540858234 0.0006985670732056334 0.532382696371238 0.5213654708320763 -0.30190587517672524 -0.741650133491884
Ni 4.649063927363246 0.5985410004110018 1.7420070687719296 0.12844871439341748 -0.8075192253808673 -1.4190921077369751
Ni 6.2440435478538845 5.817071712133238 0.11578294442111756 -0.8799186621892007 -0.7683286712243348 0.7708306117105822
Ni 7.86970372482789 9.178334516782245 11.181559281713378 0.8839856331697228 -1.6601217162536182 -0.27924314347188683
Ni -0.025668701570134077 5.124780827475936 5.757496129328877 0.013588023097079823 -1.3681616394356952 -0.010895820976897366
Ni 8.079292038640444 8.382877645871059 2.4128925121092464 0.09751551514967076 1.4121223612873615 -0.053903434886674914
P 8.381922573700662 1.25322751014582 3.4942124891386266 1.584369303812652 0.9463965913067766 -0.3147364512824902
P 2.128337400068226 3.2454989616712973 1.6948537913305495 -2.6562185029989998 -0.7348513654024957 0.7149512840444591
P 4.530880568220527 0.7190338150209978 8.16453086545968 0.6420204002126878 2.7854017815655965 1.8425247733763042
P 8.523082240485534 1.562006890798315 12.474245825977338 0.895229067294026 1.1845625051223792 1.1854935015770809
P 6.186129790626016 7.940751998380093 1.4259609532915178 1.15849486150105 -1.0696789310079062 -1.2900605242568943
P 1.7382768297521167 3.257760269154125 6.093124862672627 0.13655797376411322 0.18674667880336226 -0.4432327310843915
P 6.897522118691285 3.9737915191898994 5.849233994869538 -0.6313678055948482 0.2491285834746935 1.5344220253602479
P 2.296939473882544 8.284195950855331 10.23484535719485 0.2717712605748739 0.9285449078373362 1.3356965769284546
