# total energy = -381173.5297686934 ev
CRYSTAL
PRIMVEC
9.19561530737228 0.00000000000000 0.00000000000000
0.00000000000000 9.19561530737228 0.00000000000000
0.00000000000000 0.00000000000000 13.45871250938664
PRIMCOORD
 96 1
Ni 1.0987656463074609 5.048916790511479 2.844337058991439 -0.17544256664445268 -0.8259874593883839 0.30346499213372896
Ni 5.582547525153185 0.844002971580133 11.683130941452722 -0.6898837995528699 -0.6994009950146859 -1.3261467284564903
Ni 1.4491369694161151 2.187719571399318 4.755138040858485 -1.5643830904987124 -0.5484823816535263 0.8331592945464749
Ni 4.052719034024864 5.156146857142365 11.247782020475732 0.028551843495763733 -0.33139771398825507 0.31053372605505225
Ni 1.056520990951806 3.8084926949759237 0.5225279490787077 -0.8778394110626689 0.04099238325196166 0.04372366614019566
Ni 5.912375844329637 1.4428103862892778 3.764307764853172 -0.0026412942775889993 0.5760163254077371 0.1931690373899383
Ni 8.794235610369128 1.5983909966424172 3.316374644735081 0.5978053962583704 -0.9616044093954664 0.9815320015573288
Ni 1.80975220764584 5.868917367792671 12.785130685559178 -0.008790087487804217 -1.5769640124875164 1.1312234273796067
Ni 1.5898390746831748 0.8760432529592598 12.857511210425402 -1.025822338834272 -0.8792612311108599 1.6814227917242397
Ni 6.9117001099196305 0.030140467318073485 2.2527996975091513 0.5199567634100077 0.041170046480406515 1.925080581892349
Ni 3.6062995121374093 9.197638045240096 9.955988460810161 -0.4223309479347178 0.0680622428855602 0.9709444558494698
Ni 5.8919615790075754 2.5917381124759498 1.2404112216745404 0.012408400966681856 -0.7464413842329403 1.0509749268404995
Ni 6.930431577694874 4.364266470561561 7.66247517784451 0.14854779913613772 -0.4896336869464342 1.0294756193161434
Ni 7.181545432386258 2.6580844747726515 10.902256786477313 -0.5361755392617152 -0.7497655635101668 -0.7272283016395992
Ni 0.17859999340751703 1.2688937196063221 7.063804777799014 1.706248592518668 -0.41229387541368995 -2.153458563083252
Ni 6.4985411275231195 6.415835766123739 9.180645468263231 -0.24453967855243047 -0.9650586864926541 -0.16409191751832383
Ni 5.329383048314584 3.069008922721747 12.498312096907206 -0.40141656637955386 1.4366805102426998 -0.9273321184761578
Ni 1.5568727948725476 4.63834177593276 5.118401616211072 2.313156979519571 -0.4792752265302455 -0.6227170718983855
Ni 7.898922946156544 8.773940888042196 7.877290261845665 -0.897038866809255 -0.13747097249668583 -1.131530159986748
Ni 8.550027662550209 8.996189707217384 0.5379094543058309 1.1818317364547775 -0.6135302631927949 -0.72783791019914
Ni 3.838534769213391 2.4638546945327433 4.748556739195872 -0.5953677333511553 -0.23304916141432766 -0.17441258271804155
Ni 5.814111502333441 3.959751366274393 3.681778959261982 1.535436325557375 -1.0255210055437691 -1.6653184299632091
Ni 6.014612692010128 5.0079871081022445 1.532799594338031 -0.9468509052353757 -0.027023579776695394 -1.3455680704058957
Ni 6.171931273600145 9.257133674354394 6.059058777599161 0.5941030077061188 0.2859961459250042 -0.519029623610048
P 6.469050790186249 8.546597698151501 9.651726710045839 -0.7727751370314627 0.8499195447239491 -0.2146737442309335
Ni 0.888879411951632 8.088214681136117 6.949015915629959 0.40222157877935244 0.04869515121285807 0.3767748565714737
P 3.62244701209486 9.019785655332885 12.228558730590679 0.016773619913913046 0.02882952263718261 0.7310127083826959
Ni 7.6464113579836495 6.109198788002348 3.234209065936783 -0.5960272213120251 -1.2774459208166773 1.2560312025863272
P 8.923820217089173 3.7928969319190693 4.054450568331236 -0.09400595933451553 -0.6890739020570649 0.3383165525952754
P 1.7413276363568921 8.209679559802385 4.77896020110323 -1.1565531643936469 -0.23196415588026503 0.48474884805030705
P 3.2973084565734756 6.073685322833969 1.4458155132745254 0.34069996522578744 -1.1021483643905212 -1.2532551825030869
Ni 1.7258514162951664 5.406203216107605 10.345873341616517 -0.5886106171329799 0.004742142670675704 0.1479495034305065
Ni 4.725387467616833 7.28038909812808 0.24302263304414004 -0.6903337426060949 -0.9601874744432818 -0.6349223557153258
Ni 2.744817515546386 7.271230265578183 11.336313723545409 0.7858042023012789 1.072967629061507 -0.7999756087056545
Ni 3.494867049446982 7.172708446361708 5.803315850311774 -0.6360500415618658 -0.6003639010141661 0.06164091274024869
Ni 7.636847918373314 3.9062788649916036 13.32785312476121 -0.8215685043850819 0.5154267367501382 -0.35776463401755804
Ni 8.56171528922784 8.68745612887373 5.08682755251295 0.2927524908122313 0.7446040739138854 -0.17534666449653674
Ni 2.75015097225215 0.5018709195203832 3.3869390356368414 -1.3986814052911072 0.10183548268126331 0.030917258404146754
Ni 5.39217990321745 1.5059658701775311 9.43722243783202 -0.23299593957888906 -0.13211587883235956 -0.6661694866550657
Ni 0.36277712731856143 6.429160212273138 5.41468249270827 -0.48673708212492944 0.7843155335708945 -1.1008862098486458
Ni 7.05245738887675 7.103217183731607 1.2350805236532794 0.2863360457629262 -0.39354384849969637 -1.1659225214236888
Ni 3.808060501070457 3.816308967734371 8.482905190346667 -0.8885984493513858 -0.24472968307604948 0.5065993682664952
Ni 5.839105183930452 3.990501502867625 9.725238295558285 1.0250702911595957 2.0300188718686525 -0.02192816753165901
Ni 2.5296401243138393 3.006083329208742 6.662372043663176 -1.3466597608081776 0.1843285562801729 0.2967932365405082
Ni 6.122973819287235 9.0355285482299 0.16971610974641602 0.2374138661409266 0.3515104255777301 -0.02163788998474983
Ni 7.372207314002311 7.448687244039965 11.893060395199099 -0.03168576113905511 0.5055256755863422 0.5980702198839829
Ni 4.973209292134659 5.419178228886628 7.324849896701131 0.4810827120526296 2.1847144357737407 0.7828245508476648
Ni 8.101989712421004 4.986230282988732 10.580647507996744 0.32232069138765135 0.03330221369655555 -0.014000170933833954
Ni -0.02118209917539197 3.64168423869565 6.363386736791555 1.2331488986715151 -1.482370813190963 2.322350473093381
Ni 8.696127593828102 0.5698311122513293 11.356945924943206 -0.9477556764378323 -0.3312128516709586 -0.22327819807049287
Ni 3.4632341338127954 3.8799977972932007 0.6959259830751029 0.4625219183313067 1.3696117416186606 0.7732801016923393
Ni 8.042153845551336 4.017113612706385 2.0878092143163425 0.382891768102489 1.4642969864083877 1.7055538804444885
Ni 7.481432829090353 4.6599514712061145 5.559080315647823 -0.5713747128706675 0.8011279771425429 -3.096985031931086
Ni 0.5855041184742674 7.7796374282476295 11.916357485826776 -0.3826233449324507 -0.4509671236141717 0.5118336200822411
Ni 1.8760709830975122 2.7477233298895265 2.5882584917561893 0.8481866211932424 0.6129221972951509 -0.6916858857586152
Ni 1.6106119689906246 1.5313917456800095 10.790926395113498 0.5839864880974072 -0.8593686059519909 -1.389479684187181
P 8.621799437702773 5.815619583195072 12.765669085952146 0.15611506996043434 0.31355991447588577 -0.4277911997183406
Ni 8.84870123807299 5.982382061400295 7.6953145581680005 -0.27628226107135 0.3032212515540391 0.6043809925933591
P 4.175719580397794 3.022175655476133 10.46657130599096 -1.742031149434916 -0.5681119829589958 1.4899254856097697
Ni 4.626038043049464 8.695879312222832 4.409006815830913 -0.3723852121442103 -0.38850037253851805 -0.7333871221521434
P 6.518008244499159 7.823169469704675 3.992715806962018 0.8260648495935387 0.9528873412374428 -0.11387493034430066
P 1.6340791784959863 7.133351214119174 9.146459849902286 -0.1673891002123569 1.0646326268332504 -0.7549954444505383
P 1.3642430516443682 0.8759724467236832 1.716013027796034 -1.252280220184327 -0.9847525653771556 -1.2485233242450562
Ni 2.70722584138576 1.5099751583218641 8.285371425633688 0.7765330614119982 -0.052200079042323 0.660757828721191
Ni -0.1371102980441782 2.803715429685038 12.01414825364996 2.8787654793304225 0.025563707401717265 0.012196799176508026
Ni 7.222410745490422 6.874457869129381 5.775092668723273 -0.5236442395639239 0.9213969839386456 1.6463267193520552
Ni 2.096949655636221 5.644765056310425 7.4078228504973005 0.18320601263995545 -0.15386149803956728 0.0926594726089501
Ni 2.277275665981103 7.912458891451172 0.8292559637886956 -0.43191602051999156 1.3017253621893323 -0.7438065177132545
Ni 0.24534728451865234 6.312237967421778 1.2755982425100678 -0.36430732023208223 -0.2671255342727464 -2.304011308464561
Ni 3.599503952645065 1.7140074641623666 13.474593070843797 0.6381909991642686 -0.7085170983833411 -0.08225113279143255
Ni 7.831123676688272 1.7493829951055975 5.334818576346959 -0.6256653558934322 1.1499166329137358 0.5173812893733477
Ni 8.344321754777896 2.0412794023660563 1.307866575141441 0.366436193649627 -1.240652920358044 -3.0832923649353416
Ni 2.2757216070444235 3.4265896079981926 11.83695059153146 1.036119606995222 0.6234526645128295 0.6775108798098138
Ni 2.3675490185336634 7.044714681038382 3.0659614959074535 0.13145433398896073 0.3982093722961658 1.4394927828805146
Ni 8.547691976337683 1.8025980191681084 8.948562858396414 -0.1159456968304003 1.1686350352588453 3.3481301316151755
Ni 8.431735271062367 7.682154713527278 9.790351525882153 1.7514907521859193 -0.8181250259211716 0.8819364639501779
Ni 1.4222857735870964 3.3542017266399613 9.47903857752821 -0.22480671889987738 -0.1823806885251827 -1.0982284605108248
Ni 2.965208820489568 0.5400860563786831 5.807810666928631 -0.9504771891340534 -0.008086633662876395 0.8169114652290447
Ni 0.9147273661830665 0.10221845645046979 9.14597524099126 0.5550883170058183 -1.5601487407023904 -0.1843486108848309
Ni 6.194313400534334 5.438461433562468 12.314896359918984 -0.38922413807842 0.47672186398077254 -0.07814868058728476
Ni 3.07745049730087 8.482568630837303 7.831261610913421 -0.653803508890545 -1.3731783759239964 0.32138069607188524
Ni 3.613095071629753 4.744017783626967 3.279363213881582 -1.1626304809359784 -0.08785613768303578 0.22142417558088962
Ni 5.302816916550873 5.749236438438329 4.922994797249891 -0.32952235134241314 0.5953281383624716 0.7394351281184361
Ni 4.397490227592467 0.42846324445754985 1.8259567204163525 0.8605376865594276 -0.11417240698006144 -0.006812394936143106
Ni 5.488007407236013 3.5314104234964745 5.897338255103886 1.007806876093458 -1.823703526904743 1.788999033544022
Ni 5.096973074553413 7.535015677753261 11.045457340342574 0.4093620464788756 -0.2967880943341856 0.5968003520326238
Ni 5.267101147852275 7.86415432580397 7.642610810300042 0.7774843695816739 -0.09503620037124277 0.5844857963313289
Ni -0.026259917783879684 7.742652664677659 2.900352147824476 0.48356099838979294 2.2902037131575073 0.7646203691348122
P 3.649914314129545 4.622488535655628 5.972437923328549 -1.1272456736787813 1.4041478277223174 -1.4642378510356784
Ni 3.829192024363294 6.441491532001465 9.141062943452953 -0.19948032431994678 0.18647028521352402 0.35348631835717836
P 4.603140961674718 1.5402655141645998 6.809811776048017 0.6428297834878607 0.04839947434931019 0.7182656931296727
Ni 4.96725053360822 6.670747409814227 2.8931519812716946 0.12089584174682404 1.353766289945972 -1.134471244892943
P 8.738859616779282 3.9532040883873165 8.595365722795206 0.5849843332343022 -0.053980053760881226 0.9074271520221145
P 7.250089546670336 1.5937656022924185 12.87204671907161 0.597934465637067 0.2537856226307306 0.2053882051639495
P 4.178478264900775 2.6819287044934206 2.728228626068458 0.6527490994841016 -0.5662175941497604 -2.4992544547747086
Ni 6.784874187702567 1.746054182472 7.628195764210463 -0.8362721291438436 0.8314135154999617 -1.4987068313468255
