# total energy = -381171.4626594555 ev
CRYSTAL
PRIMVEC
9.21231725382349 0.00000000000000 0.00000000000000
0.00000000000000 9.21231725382349 0.00000000000000
0.00000000000000 0.00000000000000 13.48315749626671
PRIMCOORD
 96 1
Ni 1.8209619371510288 3.742900085654098 12.487035568005616 -1.424865776995959 0.9973257740564758 -0.08655824480721867
Ni 4.6394428179577725 7.695242208083001 5.27404528014736 2.0960424870576286 0.562016154473903 1.3948306640864494
Ni 6.145463259123745 4.8269687515662145 8.011746113104214 -0.1365147792310036 -1.8268898950525245 0.9533007746257774
Ni 0.6029802613788021 3.290741121546731 6.292279962008287 0.8414801557073444 -1.130658298904756 -1.2352399768725888
Ni 7.047450471028647 1.57227542812372 10.276674500471964 -1.0377365737733546 -1.6912582897574229 1.1262352301363958
Ni 1.8008698728358385 8.079791974570385 6.835031013260412 -0.3326436705802142 -0.2874519045349243 -0.37584977365404304
Ni 0.6526125427655599 6.84238428503317 8.647275334427276 -0.3842493105716479 0.9095413701516402 -0.28145172108743144
Ni 0.7355224784053035 5.583428985026798 6.33596477126213 -0.25657681222262263 1.3517379466620334 0.19839274768272286
Ni 5.376262390657243 6.977077578179616 8.280411374942322 -1.6587050384117499 -0.5329228366523725 -0.15764050546602526
Ni 7.9231088797181375 4.421645209273807 4.384116070526801 -0.023171810130772994 -0.05694299304394709 0.9182684656119927
Ni 3.3387649323101822 7.331549128257511 0.5718407860013578 -0.3391539608949062 0.13361997418171181 -0.1351477236801479
Ni 2.1700903431194285 1.042760634555256 2.1191609674385035 -0.1474350256879332 0.05283668418505739 1.1558314557362739
Ni 2.8973291056915276 2.0850975025087246 0.07672478571713064 0.856763564228976 -0.460439067660349 0.07180859730186988
Ni 8.2645910622195 1.2337227625651501 7.142136512039371 0.08253343991854173 -0.4487156085758337 -0.27357797476630946
Ni 1.1137876019418296 5.488597389400677 10.468202264772069 0.5285005392149609 0.7720716832065349 2.0358822726279646
Ni 5.362784770256911 5.313830515433015 13.036959329608868 -0.4161911535855671 0.8926710767588626 -0.12234028750283446
Ni 4.161360392601921 3.7078195808800287 11.993269172224908 -1.3092774635049775 1.5327757480060762 -0.5078131860689383
Ni 2.7752566874244087 2.5375512607738564 4.115680195392704 -0.5072156616942556 -1.8678617094791963 -0.6601600472361921
Ni 9.385324751503674 -0.16727173250648109 12.267611064063484 -2.09574089665681 0.6222884690013992 1.2560016348999725
Ni 4.770782827559638 5.5117203061503925 6.191061466707833 0.48381888003687 -0.778140257998118 -0.7116600148876969
Ni 4.739534646836517 1.6430352383048188 11.542702096569474 0.4413951636550204 -1.801939909975406 -0.06294549048428513
Ni 5.208662699650248 2.667067231524549 0.17519985288688122 1.7397852908235327 0.3995579159042602 0.15415486091027
Ni 5.565299144324232 7.612294501941793 2.679710215965708 0.21168689368846771 1.8313119353796203 -0.853534258658401
Ni 4.437748340141736 0.14262878338078924 1.1572826374566114 0.5616657131130198 0.699979236115659 0.02079431103753193
P 4.0910519859749 5.301716318012347 9.791158656181711 0.5734205396561027 0.052143514772774714 -0.7612403969189857
Ni 8.315793122496357 3.177577014234582 1.8096685572133895 -0.24701770777927778 0.3372271761858386 0.4878462560287082
P 4.801118988857172 0.34410032311501554 3.318084200911204 -0.2811658144158964 0.45993358877884016 0.5573616864210271
Ni 7.773915398936611 8.35945950711534 2.7569960318143356 0.5619791305883804 -0.9474841679440005 -0.30592913740350536
P 0.5723861551932236 3.3561301506660435 10.64437309591609 -0.86492141744942 -0.7294739031406663 0.05034631366303588
P 3.6053141248345812 8.90317048184369 10.964072753853827 -1.469194423710005 0.6302200651436501 0.2868019296557512
P 2.854740562211874 6.522108857256048 5.606512288811563 -0.6898133513262508 -0.5453662046220479 -0.21392838142447673
Ni 7.418237035275364 6.336600421164811 7.109399620819535 0.4286268082457586 -1.291057598062841 -2.214524834266954
Ni 1.3411660207531662 7.997673376997893 2.1681050887132276 0.38164195485578795 -0.9352907112016022 -0.9088528287250476
Ni 3.024468298545237 3.5736882390968243 6.060234583186828 -0.30240646896222756 0.9363217235692777 0.09638731508249852
Ni 7.945964639262376 5.418768023280025 9.671252974974168 -0.2873320911276084 0.22791723950440104 -0.39919281925535766
Ni 7.461369105483398 3.725894147678013 11.274616289497724 0.7010308173086249 -0.3585691321967244 0.8446354135068743
Ni 3.8131992799636887 -0.5421955485110862 7.508069106232134 1.9621900851501366 1.7153153307066265 -0.1594240797290093
Ni 6.64549863691568 0.9696148341597446 13.05516194761913 0.6234038135527651 -0.6291774828117487 -0.21580657228379607
Ni 3.3589767567519644 6.673854149965728 11.427556419778098 -0.8903388290812603 -0.7347135542730507 1.4791343085315363
Ni 7.410553962538606 7.784039735792364 8.784722189253596 1.8405997884394494 1.4084935062855226 2.474624314930854
Ni 4.041323896486869 2.387307575805293 2.0137094122788888 -1.5081191257996607 -1.1252530687287845 2.023078950215709
Ni 8.80235087988796 5.973110012322785 2.836316848583287 0.5993066633942453 0.3035554949650063 -0.4802424755395213
Ni 5.560536376212837 6.690408684387735 10.763524288326105 1.1727521427510126 -1.2502058541538015 -0.5488706182308806
Ni 6.156121910390445 2.36425835759502 6.655623895003175 1.086474148188374 1.1907161834286009 2.230568517993378
Ni 2.8479879335355625 9.237743426272429 4.333109311379462 0.6970792888600446 1.4175954685867909 0.967799996683217
Ni 3.376351187425256 1.5112530374663058 9.511208305491653 1.217560814425271 -1.8312103768047496 -1.5889109004367474
Ni 7.594468667714424 5.961972320549715 12.191633397289939 0.11696102546879211 0.2196370017734798 0.821586759217527
Ni 1.3776099485068998 4.696540761389937 4.184335912272752 -0.3953096821508676 0.19107410253412255 0.10245177610902355
Ni 8.716224924233346 0.6054998301959522 1.2689635616625037 0.9963353851187486 1.0588633284496412 -0.543538921605322
Ni 4.217666076735091 3.6241164647095485 7.9725504661340905 -0.36509767734386156 -0.718870159482891 0.6286095261234206
Ni 4.986590575678687 0.7729410693431484 5.723937092935163 -1.8456100971698473 0.2563520978063263 -2.2896699521412245
Ni 0.9137577898854242 4.292691189886356 8.553580538772037 -0.9082738162931261 0.470516506501009 -1.1777305698022105
Ni 1.2703417243500563 6.487415269814046 12.80669469174666 0.013839219875937458 0.9264664280417527 -0.7927641785588798
Ni 3.5309983601254387 4.5321101075789185 3.3650863656716496 1.1182313859953128 -0.14637470274421888 1.3981026499695017
Ni 1.0415077593847537 7.364612135514373 4.405891225236482 0.389260133522678 -1.0436639950013833 1.1227637266480277
Ni 6.90428184584645 5.841088291231087 1.3510664982953648 0.40724140059144703 0.5599412742227453 0.17704924900994026
P 5.736620611573015 0.9036739872263654 8.296551355079972 0.30988375117587924 2.003130017897608 -0.15864966345683
Ni 7.347210067888791 -0.09471183549952814 4.877694535031933 0.18828239872159833 1.3494067274256953 -0.700269256552252
P 7.0452118778931165 3.96441947057985 13.643876935457323 0.7824995634080781 -0.1324812325915783 -0.565421066390394
Ni 8.710393527300052 2.207980604709698 12.931265490500842 0.6190871884552822 0.8619062847721802 -0.2881095927235812
P 2.964790906232627 5.317690476436253 -0.014382269971973866 0.6429516537777056 -0.49759047989966565 -0.006869216316007524
P 3.0834916163203054 1.4753157871712317 6.643003941355591 -0.6252866323977747 0.023166667924450424 0.3023200798960084
P 7.349015682105104 2.348523719424298 4.07717178730287 -0.25818915101506507 -0.47732581611335867 -0.010290326182414536
Ni 7.1554925298496235 8.44259145960515 11.268319670534206 0.7430938079169461 0.523868182649272 1.2649853264558213
Ni 3.3309713117642623 7.2021344929985505 3.620942821354856 -0.741266267789904 -2.2474061583760068 -2.996204729987214
Ni 2.9043949531604643 5.722304670286538 7.58859120919398 -0.6715934858841144 -0.8338218678311382 0.6546427169623886
Ni 5.918333572883022 5.914169605404588 4.055571666624362 0.6261556652662893 -1.1069915514154354 0.41487731987015003
Ni 2.0275665801573433 9.142874981376586 13.714933382259673 -0.8217394827453074 -0.17471031646411847 -1.593910410533868
Ni 2.0877782868809027 1.5245740484703247 11.528531709898393 -0.5739111061392761 -0.18851405511643016 -0.5102040548986181
Ni 9.31153408888805 1.1211482435685316 10.079658037446965 -0.32088910114744734 0.42571092015054424 0.4733472910815848
Ni 8.722351115324408 7.983025792283931 6.471173954184664 0.6649204447393129 1.676846485207467 -0.2556668988138436
Ni 3.047342482724337 7.316330379862877 9.183972050664297 0.13401386718602082 0.3515050262610914 0.8876108886271359
Ni 8.804690808515224 7.61709411932291 0.5960645746839771 -1.139328058764612 -1.2502719315050468 0.05802954123990651
Ni 2.7656666649796064 3.579805217870454 10.057370677888166 -0.38667180397021145 0.9198594642481964 -0.028645688761150666
Ni 0.3665599530097582 2.5825257944679234 3.865391664364289 -0.6084096541367779 -0.24933015796253835 0.0827877220211929
Ni 6.405480918590157 8.709932911428544 6.908985655126292 -0.008358656377340443 -1.0466876123190556 0.4125057343141799
Ni 1.5570751043639475 8.515985992571277 10.751415618295894 0.49884312135984415 -1.7534136802402447 -1.611994007508456
Ni 2.025327987021813 5.6260359531413116 2.0752200557601013 -0.6654356938128346 0.6868311287694753 -1.3148755264180452
Ni 0.06487590303845218 4.9578481452965715 0.5751940695459379 -0.7730659287990042 -0.09039818737859914 -0.062479606591460145
Ni 5.404074376978912 8.936390098496865 9.958876264851813 -0.36880469388180354 -0.1937804457216921 -0.8871455189549431
Ni 5.510642465011062 3.3758352976491666 10.01167574097106 -0.6319252207602148 0.6699862892979945 -0.42180644288981545
Ni 4.498798367751441 5.841125140500807 1.8159789946530525 0.2098506118106773 -1.1944368268132979 -0.5556632156726817
Ni 5.5747970435947325 3.737013414816223 2.4780691695907664 3.041794245691555 1.999368236862331 -0.05947964342287175
Ni 1.2589000261017913 2.0924489318179966 8.31047945780264 0.9754287168730685 -1.509139596644375 -0.8770698798864959
Ni 5.2855579132398365 3.047351695041767 4.733411219440686 -0.3751568613520765 1.063166326700369 -1.0054885123729262
Ni 7.636338650434525 2.966181966164582 8.6379985307751 0.6284408617560403 1.0255657427387757 -0.017305581157983103
Ni 6.659777728932436 1.5735467279290827 2.169197669560446 -1.319178010448141 -1.461324276933309 0.24786025828523117
Ni 4.941109364525961 8.296170886370106 12.532163947400768 0.7806956774301199 -0.07616198917455916 0.18691919982548455
P 8.178428257295165 4.245174056581563 6.968190455554734 -1.6115885445399212 0.9375103445607401 0.7783276914185757
Ni 1.0812589090959164 1.0556855159097778 5.815205364179295 0.29196496191392945 -0.48652882276886533 0.49563284195266255
P 0.25223601493315145 9.037255762039743 8.27380522211315 0.20971177223996787 0.2967996642984114 0.47665604373984355
Ni 0.6721592378888844 0.2670309967259967 3.6771001871774005 -2.2165518919993117 1.0865070583088385 0.1679493435912011
P 8.750568443613002 7.189909747768721 10.84562261880025 1.4685570472363225 -0.4748495866587241 -0.5753848624713251
P 8.193195602135718 6.830435909326246 4.752098405347777 -1.7406314408739119 -0.5285905278256058 -0.5116708692521317
P 6.621767707215574 8.241910336706432 0.5632162144232371 0.296019077378645 -0.4490956176230717 0.8065836009404754
Ni 1.5222617567953534 3.2173097393108843 1.6641452636960423 0.13825798717435545 0.5716233385463639 0.33346488092992893
