# total energy = -381172.2612084 ev
CRYSTAL
PRIMVEC
9.14785830005254 0.00000000000000 0.00000000000000

0.00000000000000 9.14785830005254 0.00000000000000

0.00000000000000 0.00000000000000 13.38881530181035

PRIMCOORD
 96 1
Ni 7.527983040590771 3.0314081536278956 4.071190325624194 -0.12145865622882952 -0.8533468252379434 -0.9969156831022508
Ni 5.987913643049837 4.577158371206923 2.9751689500366196 1.6558444290345034 0.5991824791115552 1.2722096121184023
Ni 8.741784922063117 2.1300605221089697 1.9634560666150107 -1.7495536830642062 -0.7543164161056428 1.6423926744049713
Ni 8.245175135576956 -0.05649442883936459 0.14789434080167288 0.5709502237387393 1.9810910358196978 1.3888068264898727
Ni 1.100222072143922 5.334985253003421 1.503737763300537 0.9760648077951706 1.109777855911321 0.9771919794210785
Ni 4.081481666272912 3.7197936426560263 3.418459529318234 -1.369868594824473 -1.4821885219768278 1.1011165806918972
Ni 1.4149998781193638 8.695972447424204 11.731534643530841 -1.4584166163682108 -0.3912504244798294 1.049180039723606
Ni 5.507715114451497 3.704535014920861 0.4301816982597366 -1.1658201915178696 0.13423343939599464 0.2337950384414167
Ni 0.34344993841568666 8.983178608319436 2.305245668739371 -0.972442380551235 -0.17037877896830014 0.7338527489346522
Ni 4.945624957864429 8.792299395896201 1.6578032493480985 0.7237112896252761 -0.42473235828735884 0.7418396237948708
Ni 9.092916317139007 6.2531192046027 8.852149259179965 -0.7082324772633867 0.30597361748819557 -1.5863220566636487
Ni 6.980904519563299 1.6683955545366764 6.104242383813763 -0.8698787614546954 1.1214815175014945 -0.01598660523624344
Ni 8.21684421825333 5.415852320856455 4.49316639494002 0.4284653429672298 0.17080018277643488 0.08186212488312998
Ni 0.986697149965624 1.1332915800951344 0.5610143684445889 1.869437538606748 -2.153357261618698 -2.478307934430029
Ni 9.050003713598443 2.1779495605943358 7.3738498603913865 0.7806807650317845 -1.8352886606391812 0.3798761212046167
Ni 0.36276381175936434 7.20968330914888 6.507138764959785 0.18629699286045334 -1.4897341955345698 -0.5591509171109661
Ni 4.85074337101243 5.451666186313993 12.279752987709271 -0.7045953947314316 0.35125562925444664 -0.40954510902395913
Ni 0.5430443154931749 3.3365166733227203 5.0556032553587205 0.06841396979802411 0.2690438343413818 -0.0671495012633037
Ni 8.257369230763393 2.8842191127053485 10.36089456014371 0.07572130209271474 -0.11600817463721957 -1.3444167304102717
Ni 3.2451387162204623 7.139382017695195 11.27350320529692 0.8138256272148694 0.3770587063604796 0.7812901164810093
Ni 4.546586228586465 8.285096389435626 4.230731719682709 -1.3848090181843893 0.9108366919242958 -0.06620204974836987
Ni 5.576058764217336 4.460157262853946 10.161722814122195 0.9564578321975205 -0.6114420132051985 1.5863642227554937
Ni 7.569139255327287 3.9418579042094657 1.201447698764708 0.2890591011210441 0.4599215045939821 -0.41324981156905605
Ni 2.677733653929479 0.10507870455966599 1.760240967200845 -1.3397836025136345 1.597161570481314 2.7176976933504036
P 8.739260113157298 8.200021306739561 10.315278764459414 0.5875104420902656 -0.02087247257363502 0.25306262842177707
Ni 3.4838337842622296 4.78751337406671 1.4803347972724354 0.2384559342521958 -0.06376232995862567 -0.5943002113185893
P 1.2010863583597085 4.423886004478688 9.113472469647213 -1.08918537647195 -0.20135928651021448 -0.364824626188133
Ni 1.9316251786849863 2.5006402640463468 2.795089699186606 -0.14293559515568285 -0.41965340110255467 1.6826132124879152
P 6.656759306632936 5.756783853867171 8.887134328670593 0.959593806723341 0.32748012410140376 -1.5418491710622544
P 3.8515868379680924 8.672169719986014 7.807406203598068 -1.0888207940436796 -1.0747458040078521 -0.03887713668117176
P 3.763739954190639 1.4845053058962137 3.1202228808192465 1.219792789079583 -0.2831206241494221 0.35677578774172747
Ni 7.3202992123704735 6.4871031255919425 6.651108674527412 -0.01762414083966642 -2.6204277185526355 1.0413263480071422
Ni 2.191159068058112 3.5401388524336577 7.336575081954649 -0.060714030050605106 0.9281029352039112 -0.3777958416368203
Ni 5.593576912966042 7.6267250236683335 12.761642955317344 -1.0958432481081 1.3732825056020284 -0.17514277601584674
Ni 4.382702346167109 3.360145591452176 8.67996918401899 -0.5787468369650226 0.5510650547790381 -1.3455472444702892
Ni 2.5543564883034753 6.075787970402353 8.035792550060243 -0.6144224359897611 -0.5870455866387051 -0.06134395032512016
Ni 6.591059387931523 4.055648114280042 5.874744572561526 -1.1169232087068506 0.8031367800424555 -0.3296236528069678
Ni 8.67458475459158 0.9236684059037004 4.605645716908407 0.9886557570863038 1.5613648724976787 -0.4456565100345357
Ni 2.5340665384733816 7.742701571885615 6.309947530272001 1.3324803839840018 0.9774269782500198 -0.60440284697023
Ni 8.575165829995791 2.4973104436053397 12.689021766984979 0.5242466490346133 -0.3639471086791861 0.9263985509182948
Ni 0.01915470060831088 4.986506736850312 12.950867320164265 -1.3383633251273401 0.6987911293448288 -0.83926823565769
Ni 5.930455944725752 2.2317389677182997 2.3573152784927047 -0.9539746607643506 0.32296912360492763 0.3976383302840442
Ni 7.400086832937687 0.527428006496352 11.426697815229142 0.3365386347592462 -0.30475465747943004 -1.2178451784349091
Ni 2.7433420940473483 4.942029849531144 10.436139354252118 2.682540942943612 1.4698420845963331 0.003624227016148597
Ni 2.180730509534078 1.2739124587192112 8.071206654107693 0.801226193283304 -1.0399446371682672 -0.9446418133991988
Ni 6.638070232014864 3.170483044190077 8.059397683757977 0.8096871795664635 0.7174593951782934 0.15240239699553754
Ni 0.9429246477397452 6.324865857676382 10.907145199990106 0.14602477560396787 0.7336169787747624 1.7258249719886987
Ni 6.197051980748487 1.2166926047123416 0.2604569082810863 -0.1557412315607834 -0.37221191979113966 -0.7348631924770376
Ni 0.23821572026399557 8.733350596660346 8.25141946368968 1.0890925596478276 0.24491454539334595 1.862649054930005
Ni 6.803051857436751 0.30493471038609055 3.291520187649021 0.6658480987599049 -0.18679707242532345 -0.1660927499984365
Ni 6.516522638059744 8.189354903898312 5.544322099228362 -2.4672629894697766 1.4679235274173814 -2.446496703456703
Ni 7.4004253036967995 0.9367041040587425 8.475093748313496 -0.9505013575037695 -0.2549783573872512 1.4234658113246388
Ni 1.9278013738928406 4.994812992236121 3.680197137768938 -0.8837668322906972 -0.5558295660472169 -0.9104057750344644
Ni 1.1592623499633203 3.6204844923604904 11.446138843803945 -0.2859804621957204 -0.5887543417996958 0.2866162960075064
Ni 3.150238833651755 0.4538655035393187 10.465983327347566 1.579168733448319 1.6977582956594697 1.584759083051903
Ni 8.533369265174466 6.605631926290106 2.1472978316061955 -0.7522101683959174 0.36021206711678605 -0.03217581340159619
P 5.164240476818254 0.5487342833896214 11.60806234017795 0.23060301386668025 -0.1987151640191481 0.8674403272165319
Ni 1.2781845085707233 3.2120051732607693 0.8629000976411527 0.8561408430433127 2.415977194711607 -2.9364954870520394
P 4.445209662302831 3.436347251544458 6.4386139875985275 -0.2451071210201263 -1.6006626416560368 -0.6594064568996192
Ni 1.995449786423744 0.29989515521864296 4.4146274570381845 0.36800045281295335 -0.3248717399442792 -1.420554808325431
P 2.342922038157867 1.9215167952033567 12.293998947524603 -0.23807026877800294 -0.5033798328879331 -0.12358341588131619
P 3.0740920607095994 7.303860510907588 1.237640285558118 0.046297083294326725 -2.338134475400515 -0.31020565329167227
P 6.895088460340526 7.868786503584525 1.169725670349101 0.2509257845844323 0.66138749188539 0.9015220993915893
Ni 6.491567280468898 2.7227411170332037 11.87591986586776 -0.4815619656818932 1.924725255435459 1.4792307249000847
Ni 6.622692682121091 7.348666721127516 10.499830403258903 -0.04369589822605378 0.12061764838477292 -1.1283867292617598
Ni 1.028585193370493 1.0453166263007192 10.083960529394648 -2.9175551985041106 1.3994429660474803 -0.1911941730517546
Ni 8.674767711758669 4.270677672758936 7.091305448113564 0.6909245821125586 2.7577410824255346 0.09502565884828151
Ni 0.8746953462033361 7.452906567076082 0.2669765869302783 0.7300657710883943 0.007495794156412898 0.8935923030215515
Ni 8.728136317398329 7.882444256107667 4.220074464699815 -0.21354271595028385 -1.279318969469674 0.6978015117380498
Ni 7.972294520864738 5.356638233728323 10.725646201523487 -0.9403285307358258 -1.2668506617993345 0.8392571799140965
Ni 4.823830371733739 1.388379610308014 7.517163868515003 0.7752166565934199 -0.13680197145411924 -0.48152288491384165
Ni 6.065615551912243 7.915312511175084 7.935497260634102 0.48146349243081604 -0.4211713804089779 -1.284671234920523
Ni 4.799744060686563 5.3165248748442115 7.29694472999165 1.4599785615386922 1.3159340495895466 0.03142016618249427
Ni 4.022569458470475 6.448215579727322 3.131135361050229 0.13943452398095985 -1.7281376792822754 -0.5812405499211538
Ni 5.006833278113824 1.1661781308792587 4.930712119175061 0.015950609791985433 1.6380824770653917 -0.050984204357350904
Ni 5.828201184040094 2.003005917424491 9.985525914357796 -1.1760758078076068 -1.1060446141211338 -1.3500975828451327
Ni 1.8809826348349412 7.472336618220861 3.3361315484859997 -0.24655413787929795 -1.4986803489842644 -0.6015962307593704
Ni 4.069424788961792 3.2936681047906373 11.899590864145646 -0.7832325849193609 -0.5212999077014635 -0.39351890879903195
Ni 2.039780308009242 7.969541015500059 9.45279855351673 0.2744912306091982 -0.8047416626357303 -1.259552071255392
Ni 8.075381736660647 8.954070123035686 6.6081036776174695 1.23744212673023 0.6747292032996186 -0.1480613464180224
Ni 3.3620940852816665 5.2745636485725065 5.405921405826902 2.180912031308515 -0.1360704926047334 0.30848558527677195
Ni 3.393087029386427 8.935490822717869 13.084648345096745 0.8584196117751604 0.07644069675724255 -2.068222122411251
Ni 4.599534032741823 6.413078655788012 9.449865750128305 -0.8953306258688967 0.5536857802313367 -0.12766864169428335
Ni 6.55453198952234 7.091685084235271 3.3752935301012528 -0.15056174424237295 -0.5013725726499172 -0.22719913039145387
Ni 5.01902737330026 8.774918465022811 9.583406186386064 0.166079637372314 1.1712789006395958 1.4870962436910906
Ni 2.739618915697101 2.7660745220580707 9.872657808409343 -1.4114639017677562 -1.4111841657438082 0.7651883258231402
Ni 5.845911437814244 6.009447701616131 1.311662011004543 -0.40268771978249357 0.34104192194623845 -1.4973621443934728
Ni 2.6852714892135174 2.3232266991208106 5.197900021633327 1.2942979593770096 1.015148918280826 0.8579259599681933
P 6.894969538181918 5.129817085830588 12.804554644072072 0.7774681716317577 0.10939915396113419 -0.7484746126128852
Ni 3.8671564928873075 2.128386464030112 0.6814642193971795 -1.237435956082643 -0.5015096124484137 0.8846749459272636
P 8.937539942989257 4.22622822901483 2.7714443149121126 0.8145259957160037 -0.26743406665210073 1.6893782991258908
Ni 2.3502403248414 5.653504533045819 13.018815782449195 1.0612557399412175 0.23220892490121944 -1.3748264530503804
P 1.3496750216104816 5.4606127917846115 5.735233329155839 -1.916519065475583 -0.4491159293380459 0.7090989390287401
P 1.089638000027863 0.6969670949504077 6.219399283922488 -0.20272737050233475 0.1327879651987197 0.6265798972879014
P 5.38205098423689 6.451115450825672 5.0795294788846945 -0.6776905999207877 -1.5323528015360448 0.7253241426383508
Ni 7.842385784373682 7.324150460737682 12.381936395099766 1.5523315586508168 -2.4231904246305946 -0.1704497414155516
