# total energy = -381172.25365506404 ev
CRYSTAL
PRIMVEC
9.22714152750968 0.00000000000000 0.00000000000000
0.00000000000000 9.22714152750968 0.00000000000000
0.00000000000000 0.00000000000000 13.50485431926621
PRIMCOORD
 96 1
Ni 1.2640906727446668 2.422512123650374 6.541440629028655 -1.2126168401564341 0.5060254980408962 -0.34800472641731683
Ni 5.32573985325308 3.185744341047455 11.129390261512018 -0.19180326739066322 0.7463053728757082 0.03810194907804406
Ni 2.225974014571625 3.458683179852591 10.101846582398469 0.5723381052252015 0.19022101050520787 1.3917479113960676
Ni 2.847597294878022 6.214009062017585 0.13866547902513815 -0.29254808811090904 0.23873901271025336 -0.16053325363278803
Ni 1.9545945626413388 4.346407987282089 8.049447090423701 0.05380573296654603 0.15581939309688647 -0.7673465098167236
Ni 0.4284576913623089 8.723210177911849 6.309927040961032 -0.08177804980975593 1.0003457918297223 -0.44182016700758103
Ni 8.769484291387434 7.027501517919451 8.671872209306574 0.909857358730162 0.9513503357676261 0.2779591345531407
Ni 3.6351153481011713 4.015264341337574 13.006848691267646 -0.2657664491416907 -0.583628076316724 -0.34330500694880234
Ni 1.6988089794595547 8.608775171865153 8.432538619011524 -1.3995175280391576 0.6708419524300705 -0.7327150357857832
Ni 2.1156358592493865 1.8306002382375723 0.4824300088005402 3.1827189810647964 -0.8554404745421784 0.9397045239985816
Ni 0.9352630392592497 6.455750936184447 6.988396893211671 1.0924769027390282 -0.8701731527666627 -0.2307346543485381
Ni 1.1313674726982477 3.4632967504882424 3.52465908537066 0.089850028184613 0.4567395073215747 0.7836295632474634
Ni 7.724372135293323 8.696054701150405 10.001681350327841 -1.3900815794372383 0.879431181029821 -1.598389529351144
Ni 2.306277825055773 1.7679479490054264 8.487408737295452 -1.0234019023182375 -0.8571589998951819 1.1632588585485966
Ni 8.224280195089966 3.8428367524007396 1.7552661660421478 0.6613198718722482 -0.1473658630128946 -0.11657021778827664
Ni 4.36320138439586 1.6138362354921274 12.802277432998102 -0.9899045418917404 0.6427341384502608 0.24366884591170293
Ni 3.242731165539021 7.215246161366649 9.330679023508067 1.5450049430824166 -0.4659062614225073 -0.32975580750945793
Ni 9.026127998707448 4.393733994862601 6.176688043717546 0.07089174191455533 -0.2899556447933845 -0.3436297372780727
Ni 1.8544154898588048 4.059526938016014 1.4543644756143286 -0.0062732346032214545 0.7570674964882188 -0.9067015867099997
Ni 6.019325608334368 9.351984492703506 13.444622104457464 -0.04246536825306235 -1.2879391070385175 -0.36880417966117124
Ni 3.9743788783644325 0.1843878094526977 8.360449732401216 0.9870315912193195 -0.19149679189383795 -0.41613973152234135
Ni 6.876240991058985 4.1464466087916865 9.622262223965997 1.6007212628081142 0.16460588104026488 1.2198154147874025
Ni 7.102056819391579 6.407105447402138 1.3454454546196162 1.167860618986666 -1.3043831115271536 -0.9113259728558886
Ni 4.796637118474036 4.838860516931518 6.166329654926382 0.387252616174346 -2.0010116860030247 -1.0882389533982806
P 6.257801074491188 3.100780824221299 5.485009538737038 -0.41941763094266477 -0.6179376482318711 -1.5787709837892683
Ni 9.165300970502507 3.215852503015716 8.691967077567217 -0.43156635049005676 0.19001223692851146 -0.7600173231451621
P 5.818044748642169 8.318876847403361 8.87529561120197 -0.3991560524801513 0.3816915771468007 0.23267146635993477
Ni 7.567040149476339 1.963185031164922 10.185712069413338 -2.4524693761003697 -0.909017636437686 -0.18739022592463211
P 4.5529575446402015 2.3823186962725797 8.840844233837307 0.6750829870946116 -0.2653283331630075 0.8377805953685701
P 5.0589093819695465 5.520174174121972 1.8765126477753205 -0.2504920394811234 0.5750799296363968 -0.6250886574543557
P 1.1452266388877443 6.708657651289584 4.847310732907777 -0.110962384683196 0.1714308743818983 -1.013583373565919
Ni 4.232305158321158 2.7566822719318758 4.62244160926962 -0.3284108634457893 1.1617539918682962 0.39322708859022604
Ni 6.7833790413045945 7.660012824925986 11.707897878799999 0.07879017082602559 -0.20766774522674555 1.2463227170493116
Ni 2.864658279088661 1.0417442495300837 5.740481399115597 -1.5852015699059603 0.599318233358471 -0.0187507982449419
Ni 4.135678534928076 6.558578198511845 4.7158276606482215 -0.30669661169714924 1.2168841000732202 -0.10407825596885302
Ni 6.467026502817979 1.0681615549898236 8.098226372754445 -0.2599709255058361 0.8879574733332772 1.3088128651637332
Ni 5.17154509546834 1.010814871988677 6.049918195219372 0.7949570724451406 -0.15163029471620337 0.8534576397841948
Ni 2.8686536312591344 1.9050632682969857 2.9185613929673577 -0.639329483644086 -0.8256822694431392 0.18861587080161707
Ni 4.910859900271494 0.9940952920050762 10.608440628760295 0.9633100792326637 0.23469029656217646 -1.3595942094816584
Ni 8.807389387729945 5.231623012285792 3.7072171527092586 -0.02604733190635514 1.1033467555739964 0.4640792355160975
Ni 3.8806680316130806 7.5019518949485695 2.377002940186182 -0.5276934699326331 -0.49811987004057434 -0.4809562137770942
Ni 2.640318793359476 0.11540570130843811 10.705338530106756 0.586311536686158 1.352172720206607 -0.12169802593314526
Ni 7.215818244125471 8.589905667965338 6.779814596631491 0.05825888364189321 -0.4341675355583297 -0.062463151531227896
Ni 4.958776444893369 7.546694302973117 6.837250782902969 0.7911873209900633 -0.05915671286581425 0.3474887060128467
Ni 1.0829895710128072 -0.061844914370906875 12.63223782822228 1.3998247748669312 -0.08448902098301579 0.6012403900818484
Ni 8.321322039840258 1.766693057792529 6.146949890114265 -1.4731014720738953 -0.7510539433042871 0.8868575554008791
Ni -0.2985441558330014 3.4269418138793095 11.130754955706044 1.378834288658193 0.6707121117204256 -0.9278771923463502
Ni 0.6723605620149095 1.3759328520941279 4.368631557034021 0.44789285556422215 -0.663990733836192 -0.6224054541952377
Ni 9.530252862065076 2.649139940414842 13.32606348897662 -2.457208433447252 0.6636318078348764 -0.3106283426513876
Ni 2.045435768457315 8.525546357598001 3.665001135964794 -2.1962954557431207 -0.519029623610048 1.5466051976900008
Ni 8.235361991756799 0.028195375582719902 0.8791915471817969 0.4256548701016283 0.08823691806122223 1.158180929805057
Ni 3.3203037422068635 8.623538597899236 13.49592685535416 0.3204862092820739 0.4603966444581877 -0.06310258488743972
Ni 5.904087840997067 3.9349420765708842 2.986234169765219 1.6956379068823573 -0.5777266232306244 1.1117128681505049
Ni 1.2856452747544302 4.9114688915953995 12.231360062119894 0.29758745030702943 0.25158013033897964 0.031243531395313932
Ni 6.562379780715621 6.30059655570749 8.926249730730358 -1.5387520201941693 1.0899258541824002 0.5274145052396335
Ni 0.6163933366338226 8.252109253164214 10.40097942984458 0.48200959474227306 -1.1795786787545428 1.4660803035610557
P -0.01407139043873674 0.887294822646255 7.956087797754788 0.0014763274352103607 0.2786877851890491 0.7140423990769444
Ni 1.6110957745345504 5.680837157937897 9.727951745515755 -1.6725769112978357 1.4161024289810322 1.3861156528109548
P 2.2266660501669726 7.397749788571747 11.666141373690843 0.8359936786714763 -1.187013280655717 0.4801049215203925
Ni 6.170512318064664 5.360424677291908 11.623154890650225 -0.5211243013555477 0.8587142601974437 -0.5318977378219678
P 8.086343660225259 5.21545706077847 7.94042195730437 0.5337098513300421 -1.216501262812505 -0.5890091381229792
P 0.14264606776957817 5.715485073411639 1.2403252476862994 -0.5098425577941412 -0.1751461184499564 -0.6506155980808667
P -0.038001981325860495 1.5853520503876155 2.0562352146012475 0.18598640359857002 0.7649859800043471 0.4626517590409516
Ni 8.22446473791539 7.369090287783081 5.046048592465604 0.45658421269063304 -1.987093790370352 0.3358652628413054
Ni 6.860813210853367 1.891536279193256 1.2970435623668706 -0.3735005566955761 0.7325522849556739 0.7173501232939387
Ni 8.343079638957988 0.622515544867332 12.027935737510372 -1.5101009321163799 -0.05612332535612915 -0.272549276391479
Ni 3.632660928523005 5.42184975673497 11.101071242236262 0.2510571679559741 0.5375125129055839 0.3165511358937258
Ni 4.464044811349928 3.031420403284916 1.5000111434834633 -1.1134383354820439 -1.0588106208348345 -0.17232201873759997
Ni 4.598511941096623 8.134712334769429 11.281090923011126 -0.3895468115251614 -1.879782886396814 0.6902111009853016
Ni 4.7765957676327675 4.616421822304222 8.740692842478586 -1.4378192518328334 -0.1948425684376193 0.127330027407942
Ni 3.4823046615071265 2.89751612915577 7.022713554313773 2.777654790630326 0.052152513633839215 -0.45412006742085664
Ni 6.424886148631939 6.33947972902476 3.5570574238024584 -0.3049572604085393 0.3783419439482774 1.351841047898801
Ni 1.421201207171139 9.039553489257194 1.5592706128701512 -0.6232158659116751 -0.07253313417272024 -0.11447579715309317
Ni 8.673789609262752 7.439373422846594 13.198482574760698 0.6607416307712749 -1.77281908135005 -0.27773673412968936
Ni 3.553362876437429 4.78461415339753 3.3019371175063355 -0.5523089544884682 -0.5007030573867183 -0.5019806385475613
Ni 0.5744264527036832 1.4603704218678195 10.216962551470989 0.6565970124752821 -1.192873853201552 -0.48029235494085026
Ni 6.0550346450543096 8.454423552678799 2.330019259546835 0.2895933763579593 1.23471058673168 -0.11528492331794984
Ni 7.912070643034164 0.04364161007088075 3.9473341272982436 0.4078510091509879 1.6416843354840371 -0.33760358568865084
Ni 8.635478518704302 7.459940720740328 2.7353140581757924 0.8926219686884821 0.19627595845003615 -1.0225925190430647
Ni 1.6874688228371235 6.515376723079606 2.509039640922016 0.08014257108886198 -0.9064321350986969 0.3274562128420038
Ni 8.577578207226876 6.186669042430715 10.993828792810545 -0.15116029705832032 -0.41268494020452157 -0.5538349042146913
Ni 8.138643096951004 4.615379155340564 12.690713913315035 0.057420961121630136 1.6512699222899434 2.164834409020362
Ni 6.160556232632929 4.030249218762171 0.08157623326546075 -0.8712090502303448 -0.3952127515616871 0.5525789203204032
Ni 5.190239283684 7.053106834947318 13.798314115526658 -0.4108100917793119 -0.3132938052986927 -1.3443740500977943
Ni 2.3537422397553547 4.450462459398571 5.822442404172072 -0.28525566821455395 1.5638017640739457 -2.9916371652211895
Ni 6.849796004175432 3.3883354548001785 7.444510172392328 -0.3513037088835627 0.251824899359934 -0.020081858351539607
Ni 8.014538046851982 3.022460849110481 4.245439993920858 -0.1313923704027737 0.21662469730971723 -1.364969614860959
Ni 6.072972207685722 1.4490394923866596 3.874002344758692 -0.12806587713270204 0.17924188578588485 -0.881078743935573
P 6.751139409702662 1.9705575170406928 12.459956028117531 -1.0038802873455421 1.0913343044941528 0.022817769225463927
Ni 6.7740504014793075 5.783581375993854 6.127827562543617 1.5403967548864437 0.19574451142659838 0.2967199601004116
P 4.138096045941157 0.630944538418667 1.7012606308953397 0.5379796823499896 -0.323245774305082 -0.5154701883935638
Ni 2.7041429295330777 8.135828818863256 6.3651616313251775 0.5233177094624407 -1.4249323685678363 -0.44781263714559005
P 2.037445064116367 2.243653217247441 11.80047378717498 0.23710636220283682 -0.6742684616131162 1.2370065818547082
P 3.462180266394415 5.922422170703146 7.224989099835018 -1.8520905626878685 1.1142772864435713 1.5413776307424742
P 6.0626562637444055 8.345801645633022 4.825810571031515 -0.46789038173207154 -0.3582318034619637 -0.008597254750707774
Ni 3.984150420970742 -0.09612835776443235 4.25668972455883 3.3172308709331575 -0.11330800209723711 -0.9957771986224334
