# total energy = -340888.01630019734 ev
CRYSTAL
PRIMVEC
9.06494607685803 0.00000000000000 0.00000000000000

0.00000000000000 9.06494607685803 0.00000000000000

0.00000000000000 0.00000000000000 13.26746488227024

PRIMCOORD
 96 1
Ni 6.265318881823914 1.6766433122671767 11.450750712057467 0.3467765104371705 0.3785725719018448 0.30783741016981175
Ni 4.386481953241126 0.32908110180045524 5.92381699127315 1.301474679631107 -0.3388325729997455 0.3127330476992162
Ni 2.66402440484487 1.7406055699099903 4.92837172290194 1.323559170234972 -1.2043808253998871 -1.199394170818573
Ni 3.624074685802229 4.464204798625123 4.816567400752114 -1.1035300752293964 -1.0276779039857722 1.3658944406680735
Ni 4.868057199453497 4.905948672943712 2.5407329833632737 0.5901098273863257 0.06229500138447981 0.47499459687702067
Ni 7.366338135089011 6.212533702366133 2.580853527028428 -0.6458868251466295 -0.24255530113255003 -1.0031709199833434
Ni 5.231325837885769 4.363311951748066 11.4446608814616 -0.4728862922847662 -0.5382697027865827 -0.02513459028409865
Ni 5.363202669545017 7.82764416246786 12.444218009252705 0.13344951004211855 0.6179641305944324 1.0041859915114189
Ni 1.6756642981195824 6.077330035594228 0.7468735762970704 -0.5815465111973468 0.3366450784301235 -1.9604962423874814
Ni 2.581533397964257 1.5235635723558674 0.2552688740393476 -0.4163531330847281 -0.4159134744441482 1.297973608456384
Ni 0.8373779952746573 9.026746129408586 4.420361281715368 -0.06737884366529041 -0.8528418605770667 0.5052222854133106
Ni 8.542523919019388 2.154094008135516 1.1350291169590179 0.5561828356215777 -1.0650432320081078 0.6127113668359254
Ni 6.794874886214207 0.8800883939580306 4.667427286290291 0.486774106010452 -0.6602991439172177 1.2116076821656294
Ni 0.4277267486109519 7.475888005215627 2.455144484499023 0.7218086732859247 -0.4993969369807851 0.20110140486313752
Ni 7.987477287008406 3.6777935546785496 3.681695107355628 -0.8906501896740919 0.2604362951780289 -0.4810780840669392
Ni 7.339052648197732 3.781405885298924 12.680843915737032 0.9907000412098422 0.017527210250485946 -0.7837552901920503
Ni 8.414463429546593 0.1327815132511916 6.305123965374844 -0.9368094618389736 0.01273364551658452 1.2698660515868903
Ni 6.981893783242111 0.5786970756320281 0.2699713096502999 -0.599152397204568 -1.0124556877193787 0.270415774988244
Ni 2.1035478702930654 6.295269462783645 9.4717751400891 -1.60200861416097 2.1096454225530445 -0.03267974962120823
Ni -0.2321994934447902 4.398094148825089 1.3250784253715582 1.1223320384272477 1.6695813190046216 0.4954994016985918
Ni 6.077003697545029 2.0573619713857334 6.881568401972825 2.1591885235884942 1.0043070904703155 -0.37846895644444495
Ni 3.759341807194813 3.970047407627007 0.4256880422980453 -1.2293824896505474 1.4615996420818826 -0.017116090854996328
Ni 6.245584494793245 5.605309242266711 4.541784417865306 -0.9716774773607523 -0.6794620899989137 1.0294614782487561
Ni 4.93983344038544 2.724170320301229 9.469029368002932 0.7731644020500814 0.33426192290992757 0.42586852877433107
P -0.13484741440153136 5.554264532404653 12.565628454478507 -0.02677546832163131 -0.21782540248603774 1.2881697349920846
P 4.248069295652106 5.9029567379727474 12.44847762728932 -1.9626999349070198 1.095837334570829 0.5509794370437673
P 2.1805817797954226 8.110071614157132 1.5269130698330526 0.5485952530823068 1.4874086327251868 -0.5190522493178674
P 6.46908073376484 7.844767845104945 5.935969457627452 -0.18395960297652836 1.5444801809271982 -0.8657796516846572
P 4.47696824232709 0.8416620886649625 12.66508178796077 0.6522341075208961 0.029763347305361648 -0.21693862900571026
P 4.2825342196257425 6.161407407991775 8.216169552918899 -0.3225153238969607 1.814185560111979 -0.6646890454547971
P 4.787823364079836 1.09821818500948 3.8349742760747803 -0.9740030401701354 -0.08523669778231772 -0.6799495711582935
P 0.16949726326971323 5.58916457377722 3.4181363403720693 1.037329568142923 -0.8376728661461121 1.2802250262237114
Ni 1.7379404758415398 1.3023426347828475 2.60315601320737 -0.16929017388981168 -1.1217617677460745 -0.335022712335352
Ni 1.706775192143128 6.544809291070406 4.926050190279729 -0.0687042473449333 0.05813752757268052 -0.5419805759792666
Ni 6.06404988998103 5.565169662215353 9.325528556330166 0.5448797519039326 -0.470656374512983 -0.673190398057589
Ni 8.954806719452042 2.4256344599057096 9.964861054492351 -0.1883793293107788 1.2955169193857752 1.5874322590086918
Ni 2.4458492890643653 5.785375325857534 7.068082381519053 -0.3559725751141418 -1.3596119500934714 0.20046505683071927
Ni 0.2533090327549972 0.3574516627053184 8.96400310697736 1.247513394923303 -1.7314973397831277 0.30764303477081856
Ni 1.508515762309514 1.1152965429175103 11.46676484532728 -0.4648084003726382 -0.8815132603698304 -0.9910394268271318
Ni 3.944511455277261 6.832793554541855 1.708079637845339 0.8830294399040406 0.6651359031842288 -1.5812605829803412
Ni 5.76465285973346 8.163736093358585 8.097996199842225 -0.9367125312497931 -0.3398836399720791 -0.12408760921124436
Ni 5.4219525833464735 3.0303751248529025 4.613455505425842 0.7320151815052812 0.2698534747268707 0.5772967347820573
Ni 0.6549432413434043 7.486421472248074 7.259226735385569 0.044821270079748614 -0.27321184967614237 -0.14480093049919576
Ni 5.496421113184303 4.846917745822113 7.006879493381126 -0.4634099773632148 -1.7916511264548887 -0.774731232316569
Ni 8.027054840419478 7.328673285244072 9.24565822528353 0.14227327898133563 -0.0031349460845558914 0.19581701653574662
Ni 4.3703644795890675 0.3032296893364847 10.342559273666664 0.31598909274266873 -0.5119889147131828 0.09163591644044218
Ni 8.169592048352527 6.95468988086313 4.928146912245826 1.2121077617304996 0.8507135013801542 -0.555729807244559
Ni 7.248040592254725 6.32748628019614 7.166354552562134 1.390701215299108 -0.6291011210478585 0.2033050973826757
Ni 2.2612235377305803 5.263488265623397 2.7302583379079346 0.2740207187306829 -0.652623886760147 0.5297007301706489
Ni 2.3493620058514812 5.239021976879356 11.777488525365765 1.1315350450827546 -0.564093348717906 -0.3481096274262973
Ni 1.250908132250914 3.415490282689822 3.8980608599522455 0.07148438119323172 0.33400892635885704 -0.30594430691215696
Ni 3.7651705673513214 2.9694133642735485 2.7172030029508516 0.3042255244488373 -1.9422702062977584 0.6175041602388786
Ni 1.3685529989868033 3.3613997510352487 8.049039147000451 -1.399052929697913 1.1232915741270397 0.5875528652924269
Ni 3.705115301353073 3.1679810022647388 7.140177708543547 0.7384187710387798 -0.8683373851095045 0.06070168875543093
Ni 4.426385844701396 6.756303541788162 5.931432452249019 0.3097662517614085 1.364839517040998 0.8197095967994722
Ni 1.054126288584502 7.170435591166272 11.682307500844255 -0.5641907935277186 0.9085944328573385 -0.8257344628373133
P 0.1560276602890646 5.634724991423589 8.387014773630716 0.4397208612763911 0.22227263962411398 -0.9597190194472957
P 8.292113855934765 1.9209436018751458 7.954574253198015 0.2470670729599745 -0.4203116035118439 -2.0747010452673753
P 1.9443946166883486 3.5349572035337338 10.351461956947702 -0.3206852126667574 -1.5044002821871767 0.7039251081372844
P 3.90949356960915 6.272181045802884 3.959741470734417 0.5160368595303113 -0.11439994960983522 -1.473408718901669
P 6.862798525176452 3.5757041349544325 10.36362802072072 0.6312500490700612 -0.03258333325266001 -0.145981066850226
P 6.307117346958695 8.073313258893299 10.521457792237022 -0.5868764080506924 0.2972151545692752 -2.2222183462564695
P 2.4491761241770234 8.484834603877824 5.797470683053227 -1.3230097254894053 -0.07768022559129847 -0.07413210322872393
P 6.703654336517546 4.0910553692587985 1.9374481487133361 0.11365715790653973 -0.996762188243522 -1.3059872227894798
Ni 5.58840311832909 2.5648357677802918 0.4569249390683644 -0.20940735362567162 0.09506679649886209 0.1350086269991223
Ni 1.6538087137691255 1.1483110755613777 7.068056093176201 -0.5396329016826965 -0.45552646085008 -0.9626505912717936
Ni 6.947039066598599 0.8472306848766944 9.340891826490743 -0.7895469571731628 -0.09824236601336629 -0.37165141930197926
Ni 2.5886947051549916 1.5704474720906512 9.178856826612693 0.5663196669452634 0.4688666296024119 0.40319448421558307
Ni 6.45423235252633 1.9168643762601705 2.590883889568362 0.019521614972695413 0.5586552084214701 -0.8389123949801681
Ni 4.406297924784095 6.742271005672647 10.361743418486602 -0.7266343768093422 1.0445854783743882 0.7563786979513102
Ni 7.9213575722625595 7.302339617662954 0.25308875457178853 -0.17511860764613066 -1.0123608140127274 0.5578021163925555
Ni 7.520895461167522 4.010087273274443 8.347530589161497 1.4244986234645272 -0.4460347193095609 -0.7508911924741778
Ni 2.947784403568368 8.120559756460523 12.715909845617944 0.17815173804549964 0.23756633255839088 -0.006112283545324957
Ni 0.25677274854940185 4.949659841644626 10.558433706200322 -1.2491079931039326 -0.4313251810135281 -1.04795645172915
Ni 8.812541459893325 2.4805770964665226 5.714111254363915 0.02434500450326775 -1.235600445535801 0.6738028348306073
Ni 3.629821861446439 2.5683710966466036 11.731874624539111 -0.13924606211923762 0.5203174891835362 -1.9107122289858187
Ni 1.0830615956133938 3.2885991712266547 12.575579045495303 -0.6882850876071823 0.46393216841527196 0.32491853402181464
Ni 3.006316758670359 8.209450615083743 7.874823579436083 1.0648324015488821 -0.017550607289253645 0.7784336208688207
Ni 5.635404862359418 7.924321809542775 3.700388838607188 -0.48415158078594034 -0.2255284275572503 0.20375889709064263
Ni 3.1515371905634826 8.142605704673013 3.531149019798509 -0.869002272387013 2.5226021283617137 0.8143850992627653
Ni 3.4006781612345556 4.515793405235845 9.14960152699667 1.1808773429613082 -1.9009623486879066 0.3625083193501305
Ni 7.041223853575475 6.220257036197154 11.347502792258698 0.6056560026510408 -0.9499051186806672 1.0598588595936906
Ni 0.5515031446934401 -0.187832929161737 0.2535320304219492 0.43923749388206934 0.8682376263068465 0.19503205874060606
Ni 4.432613462473592 0.4608219592725376 1.5874125181760432 0.14356397276830116 -0.8478629193052365 0.6383758614815651
Ni 5.909474434010897 5.601003393006459 0.3605409962377264 0.9291689145745804 0.3173206670698987 1.137192757589164
Ni 8.129298364222382 8.512283259793703 11.467401204523215 0.5896537136855136 1.6357821110669892 -0.13108306669247102
Ni 0.09455916923887238 4.780408238406392 6.1774641465069 0.9288521546651101 1.3509288204971766 0.2687353019620275
Ni 7.688914231775453 8.767180471054798 2.6355550360306665 -0.29410771928854507 1.0498901784167531 -0.165515794449044
P 8.737112045799524 1.5202458021890208 3.5810343230913335 -0.7416007683111873 0.5728497547542973 -0.6074326349354893
P 1.9924932191618139 3.1675186900283747 1.6119839602914923 -1.3996365701155251 1.3798182498380174 -1.2300154952488558
P 4.632450192878329 1.2038973232747754 8.043281093421268 -1.4726003640677607 -1.5628273159758181 0.7489356114097037
P 8.52864548698266 1.6171591378550245 12.216813872141962 0.05291073195610243 -0.3549474762837371 0.5079689949205123
P 6.062563238868017 7.7607267324906415 1.40685511452226 0.41897000188228484 0.13229919848775926 0.2926393622731347
P 1.959741569946467 3.374398883328303 5.973105821131607 -0.9011102086651512 1.2959900023674518 0.3204173037173514
P 7.2068585434350965 4.0196870508883515 5.733388768125708 -1.6774872041152593 -0.069139535110139 0.932451184870278
P 2.213333429010769 8.584068565671458 9.973683966250253 -0.41576795000521943 -0.5683809203496664 0.8091806722436903
