# total energy = -340870.6067729964 ev
CRYSTAL
PRIMVEC
9.23507983527461 0.00000000000000 0.00000000000000

0.00000000000000 9.23507983527461 0.00000000000000

0.00000000000000 0.00000000000000 13.51647283509669

PRIMCOORD
 96 1
Ni 5.290140104481436 1.4486792924434773 7.143266954465852 1.1028821572327523 2.062377747815332 -0.12727834823440015
Ni 3.299712549794662 8.310685421325422 12.645579327634596 0.3163271928083778 1.7013969208533215 -0.22228318114707526
Ni 8.76363838948619 1.7180850458470682 9.264352420819773 -1.0990177891813395 1.0117452919159156 -0.4692911187343402
Ni 4.705624186814719 6.393602871901615 4.895152962879983 -0.10602226706910127 0.7770601375600616 -0.20389490844787464
Ni 6.596756161472856 0.6647733803005416 1.636696285914741 -0.7076316104545942 -1.4596201497580088 0.8612691654088135
Ni 5.984692000202583 1.0590697379189091 11.343023935313804 -2.184264749830832 1.8019378530928771 0.3967392155085425
Ni 6.655389684315286 8.074793773197493 6.234000372536761 0.4979432352533941 -0.12540298558855822 -0.061530355304313396
Ni 7.7335852728888925 6.499778586521152 7.924734805492013 1.4672393568661632 -0.3007450220994047 -1.4780549594244285
Ni 6.787506738620503 7.7338992656084775 12.349893307109772 -0.6565479044049015 0.5576900162947234 0.2984459416525828
Ni 7.668718071054708 8.87200281806283 8.55758990233878 0.7545316174402424 1.5187542369160036 -0.7918933459181523
Ni 4.714111225323491 6.806161600195824 0.34811818715545884 -0.4444396069082991 -0.5226579643912548 -0.5519173754770043
Ni 3.9849185445681723 7.33587655321504 2.648323570920414 -0.49969698471970714 -1.6717029933333145 0.6091403616552155
Ni 4.586353128772507 8.643249886765457 10.60652538278015 -0.7595910342410208 -0.6508595957708726 -0.6371414748538317
Ni -0.02855302030622593 5.926732638199259 4.060064390428758 0.7095684224659908 0.07474736821521964 0.07966691700402408
Ni 7.897609528551898 8.414524660708047 3.6615180490000134 -0.7004883145415937 -1.2877416463157307 0.5131795925871743
Ni 7.270233604661882 3.2924353067642897 5.168888121781846 -1.7739189992824482 -2.330284126118161 0.8294075408135265
Ni 4.925243624004174 6.610497960494675 7.424571184925702 -0.21603771445799566 0.05539364627895622 1.0342712409325736
Ni 5.004037326459934 3.440815336927991 11.761047983944781 0.17697622968015975 0.521442861037231 -0.47752456238772595
Ni 4.766400248214315 4.106147439567793 6.424717703396453 0.10168610158759263 1.6354828346590156 1.5618317848317682
Ni 7.909144143456638 1.0059310876692085 13.17614206099669 0.09931477314193864 0.8729627996966578 1.1655823644754508
Ni 3.6252583544439827 4.225981837489258 3.2203942947955957 -1.3613821546200167 -0.49028520448750396 1.600001353922954
Ni 1.6289572888849793 0.43717852803363694 0.3671886273302297 -0.3366157678540848 0.7717749779017224 -1.035565791374281
Ni 5.330885277387532 5.174387611914571 2.2231755815868612 0.9284094107007366 1.499603375019166 0.017940129418188455
Ni 7.605189955818753 5.513887622425431 1.063984647488407 0.0360671780362024 -0.5073053931945843 -0.5093568764069745
P 8.52937211543611 7.449394156424862 1.8519863176059241 0.7878577423961979 -0.7017496977525205 -0.6896778541896509
P 5.7351047284527725 4.585872904613143 13.830325575075243 -0.32521266822346573 -0.23709813467272067 -2.645765683096792
P 8.287754717715758 7.111704221591607 10.709249948008253 0.21794264479019243 -0.5074357481248616 -0.26016915755957126
P 7.312142397646439 2.8073442602460386 11.260357040311169 0.022593826140115927 -0.2503190042383689 -1.0182499258036528
P 3.273466452469384 2.610729407306149 7.025105953038173 0.2607638537207767 -0.4036009756253823 -0.12231971867754417
P 1.2705438345591407 1.3833133962899526 4.280342288821343 1.0898435788812393 0.7924098805432547 -1.3797066639608173
P 5.3985876487779665 9.190123618401973 13.171816349530413 -0.13766766188852422 -0.09946621111813837 0.7748014234328721
P 9.189403282162926 3.9607872805600968 5.454478352864026 0.7403075034210606 0.03389433875459969 -1.0343504309099412
Ni 9.052271579424344 0.4556893223611481 5.300322703675966 -2.512109713470822 -0.6492004629008948 1.6512390690520078
Ni 6.385383650712489 2.6934941941566555 9.205163869670075 0.7398223362545259 0.01701916026581585 0.12317795291278141
Ni 9.059225594655144 8.054781354863968 13.247751794729954 0.0513834966782986 -0.3760801444972942 -0.3596808772036644
Ni 1.8015055233767074 1.927629010769853 2.2325833575704155 1.9227449917806367 -0.7487736319105427 1.5217855675431597
Ni 1.1563797757501733 5.304131250662927 6.479810496571568 -0.06399347213282529 2.245490172300217 0.10387153927468563
Ni 6.406458103244609 7.405739933322614 1.6656888960283855 -0.2690692882626785 1.6090650067871195 1.1168411905160056
Ni 2.0661644456665784 7.411955142154392 10.492648534958805 -0.9571759413104677 2.1179824816638297 -1.0860982529061942
Ni 1.7728767754145818 1.7128764607339588 9.663427008823819 -0.3357673038108604 1.345486823545999 1.3678338237826313
Ni 0.774992212938728 2.828289421658329 0.5016449273963514 0.2275140905287114 0.2144955667818564 -1.5953222032797298
Ni 4.780954734275061 2.3900202306781346 5.049510860319776 -0.8111941031292932 -0.9194244335933068 -2.043751648073713
Ni 2.1036311651770117 0.5413160604998687 6.075681549290208 -0.1003010483146079 1.5113183494632487 0.5867830770059378
Ni 0.5764666219493665 5.747849138835912 0.37818853110367745 -0.33491266912004897 -0.7468278210380815 0.2606018742216157
Ni 6.026877845586773 2.6264659836053306 2.796774711200021 0.9336557467013404 1.2357431417612526 -0.039001320963861864
Ni 0.37746080680064015 5.2580389664439044 11.506424823077634 -0.6027956503841102 -0.06186716981844184 -0.7573480038431151
Ni 4.744984097722648 6.291038073557304 11.582306704813247 -1.1867841953640463 0.7802490768110046 0.284172205342388
Ni 1.1340401172597274 3.0855510448779864 7.43374900741756 1.4558887077400344 -1.0096454719640933 0.20223217603347107
Ni 4.227911969206706 8.860098799958578 6.065652252423476 0.5911835200664787 -1.7466506504847985 1.229802350796785
Ni 5.745798951078625 2.1921401717799194 0.15074144011657736 1.04986780981925 0.023140956892837565 -0.6637739898396955
Ni 6.387230666710046 7.3205924958352595 9.541656938136914 -1.5406222406336887 -0.6911873488556418 1.5468803057282585
Ni 8.206384427943405 3.8271833783768474 12.860775161509904 -0.6200081576076548 -0.0791239000163605 0.9848926904994457
Ni 1.3020446923974667 7.862719396358055 4.787980783129766 1.2157728692869125 -1.0006368407075799 0.5949954376134011
Ni 3.2720627203112413 0.7130903952886207 8.342974954994704 1.125949580575177 -0.72761808087885 -1.165209297406748
Ni 6.672945571372061 0.8690210268503331 4.79656386647041 0.1390192908204122 1.2852085954812318 0.2935988979729266
Ni 7.649499869600133 4.528301415969307 3.2118656984268785 -0.9584895179155688 0.9257169514702379 -0.709696463403423
P 6.285857193684158 4.7875762866263 8.074822401945456 0.6846186944991888 -0.494534209571845 -1.7221578075497568
P 2.000161328993897 5.976906827772882 2.9906818386874927 0.4636719727753498 1.1585609388522948 0.3723134783660104
P 8.003157257732264 2.6843699351287267 1.4302996362517926 -0.8744869496506681 -0.17487460995612464 -1.1638460985106345
P 3.818742515268014 6.732013142973917 9.64019154757456 0.6324360989583625 -0.9634414626042052 -0.8820300521052487
P 5.369903490335914 8.912711050648975 8.143985762989955 0.4897514434712211 -2.0316903460338045 0.6864403210889598
P 4.093975604143896 1.9176828296230113 2.9734344033023103 -1.4404993697681578 -0.44076575760113773 -0.6181801032599805
P 0.9217228578166115 0.11253960823911631 8.439023480899637 -0.9598267486697535 1.666031396869834 0.9287387690156972
P 0.7068733394408456 3.762149945102883 9.4878478210801 -0.5431447714906968 0.9650630573680284 0.39863386142809415
Ni 0.30598036418720487 1.9685127098757662 11.664594961536384 0.32653087281425697 1.0488000306763678 0.08712388750270156
Ni 2.839537749083448 5.358793689110612 1.0513981569730582 1.274344141962902 -0.6799066337355 0.061758155044403316
Ni 2.915505517062947 4.882706845580448 8.0394899094202 -0.43934702287674016 1.457840946370399 -0.8284945420809537
Ni 6.811176248629189 5.375721590728217 5.923973196298911 0.6300123200082182 1.7141341659143319 0.4687707274544959
Ni 3.938706204309309 3.1456898857584257 1.0391450528452684 -1.1571396330247363 0.2046659822859443 0.5237509403451173
Ni 1.6631270848397746 8.901296491784075 2.6942523942236525 0.06505250952495893 -0.2094574901373167 1.1942864172783627
Ni 5.154162786741327 4.947555577254656 9.780519511496912 0.9167911097355179 2.406210602243146 0.8469920866645091
Ni 3.59149490200865 0.01895961921491747 3.9375786010428007 -0.016901146630712828 1.0800481900573722 -0.24842024455375927
Ni 8.222841340481635 3.790464700345424 7.48620703227216 -1.2235383721649444 0.1758007213148198 0.6013033821092999
Ni 3.0627773376281144 2.0376280485043305 12.563264289179493 -0.4163292218253281 0.1320981382205467 -0.8233037419086338
Ni 8.625278421109233 2.533330201928544 3.419370557688361 1.8107698495622104 -2.2960941105000137 0.7899058831744783
Ni 7.721173325385313 4.867256556760887 9.801875633968658 0.9113151742226112 -0.8028696424239979 -0.6396367304718598
Ni 2.5649418807267232 4.602283641751432 10.436109528257603 -0.12998314876007291 0.04544450548604431 1.1116938419871112
Ni 8.889724936559384 0.4018894403843224 1.9054038672712557 0.4479208805886802 1.1322870927574307 -0.9267335656602104
Ni 1.877824224395742 7.881235731733559 7.566075698038499 1.0763056922958043 -2.7137957871928355 -0.6822321965448831
Ni 2.204044189884171 3.287097430531351 5.146046074940065 -0.4664816743100031 -0.47906002519564594 -0.16354735786876348
Ni 2.370608092543816 6.271339647943363 12.293583330392266 0.5322654055740317 -1.1268666930728077 1.7834287385450962
Ni 0.6776572403914969 6.065812942815264 9.102641552693706 -0.4237941627438056 -0.49821217264406464 -0.1037625245006471
Ni 7.910547875614781 0.252568355569866 11.081223270280153 2.7683900774989483 -2.566059685324716 -1.8200893271909238
Ni 1.210404993678701 4.0694102913763945 2.4464003940035473 -1.0540391675881202 1.3280015222770418 0.6018667108119378
Ni 6.844330185785328 5.517064489941228 11.762129411811351 0.52388026683413 -0.8551550820912757 1.3995841196110348
Ni 4.093624671104361 3.287743886130496 9.133526430696849 -1.4517201781846416 -4.5575395205779055 -0.8373298809843965
Ni 4.0183680042839205 9.288274048512125 1.391074557511685 -0.20954979274080685 1.5181644258508047 -0.5539788859917233
Ni 2.022621043524184 7.525555861084104 1.037052383720037 0.3891405772256782 -0.9743938478506508 -0.5376143285907709
P 8.669357457890918 7.229839364795321 5.738445980392353 -0.666476219262207 -0.05718776206490151 0.6199945307608999
P 8.135966943036564 1.482064106599311 7.161662310293515 -0.6858818774823284 0.14334825721306924 -0.7850812080923254
P 3.7474846380822844 1.421851385078969 10.377974699734512 1.384000406240165 0.9065239234815549 1.4078569011427882
P 5.6239051303198835 4.575778962186496 4.296062241976546 0.17437633016346743 -1.4951155144511412 -0.06534304418218424
P 1.110536838690821 9.234747524902938 11.688951561496161 0.682813780079966 -0.6711985644385408 0.5645702883543244
P 5.621725651442768 8.364978456573594 4.2491194068906495 -0.449382038515239 -0.9750535929218368 -0.8366377400133784
P 2.194541292576743 4.167440665446706 12.787570529462748 -0.33123213494466824 -0.5645988275994148 -0.21330566023881328
P 3.0096479224584014 6.5635560489167775 6.180069352424109 -0.4059339946339332 -0.15143283399341662 0.5275808556141688
