# total energy = -340878.5200736329 ev
CRYSTAL
PRIMVEC
9.12074354547378 0.00000000000000 0.00000000000000
0.00000000000000 9.12074354547378 0.00000000000000
0.00000000000000 0.00000000000000 13.34913011768548
PRIMCOORD
 96 1
Ni 4.486283859188065 3.6572630163817537 8.387244928257852 -0.5562283441475324 0.17923520091766548 -1.5363493242899477
Ni 1.8722970668078946 7.620381039063889 0.6073037815056435 -0.369383449203409 0.32584001739481944 -0.23236319109089662
Ni 0.030051937146153927 0.2749557521003325 10.280872677454807 0.9738719139089099 0.29142965823574973 -0.9147717653126439
Ni 4.929360448651482 5.883007128103836 8.552119693075392 -0.6977020100457081 0.8726830636727101 -1.0533876500470505
Ni 5.27030295448182 2.078061035977591 1.3488357182185826 0.12453395272004358 1.053343427072676 -0.42586801455369877
Ni 2.950934412638863 7.7682921333912365 8.19978264262255 0.4555940808632218 -1.7159807322047675 0.9957198630219367
Ni 1.649586756560304 0.02145198827513856 6.783747111813165 0.6615852097184928 1.0840555114445525 1.9024703006920007
Ni 9.016675633043889 0.9468426049399168 3.5345288218990882 -0.17933984481632986 0.9673927339424694 -0.1648604202532322
Ni 6.826019020851764 3.1361675886081604 5.219869804325621 0.5213983809525408 -0.6483951933907801 1.2116668175383392
Ni 6.769497774533297 8.580585532959196 9.333577683646503 0.13048502809715593 0.10854477638063888 -0.8578423991154516
Ni 6.5897279238092406 5.907505444645938 2.2611553976396954 -0.8768441370289349 1.0806696256914547 -1.7564918049449363
Ni 6.229148457623302 4.079644639265116 10.16253194502662 -0.6963886905509232 0.6385710082115067 -0.805677029965806
Ni 3.124164690406595 7.882921635364851 3.18071056273201 -0.8385038466878397 0.7884493532336099 -0.435343815254618
Ni 2.309454293860357 7.087729629511129 5.235408814710126 0.1567079663494269 -0.10175757825547638 0.9421164758741839
Ni 2.858158211646214 5.431466488844786 9.807565384276277 1.2381846613232095 -1.2009342616121832 -0.6397650285196078
Ni 6.191516270708667 7.900406100298287 11.557262331528225 1.4337679645815953 -1.912959373148783 0.6882604050168339
Ni 4.64482974021984 8.86257155400616 10.093303679122727 -1.6346536538895011 -0.8935928172421835 0.07868681247894191
Ni 4.045332402916871 6.538432863409845 1.352894448993428 0.5093728172465745 -0.5556267060077915 -0.032602873636685785
Ni 0.5625647114005373 7.697907357235096 3.4407119440942826 0.23835051902258306 -0.5196160922411374 -1.2051459857006859
Ni 6.908297246289699 3.2182360369498686 7.75760627052425 -1.5194960001780347 -0.03215653012788655 -0.13973328616830127
Ni 4.140060442978771 1.6171898763080539 11.702354204097134 -0.5104704211861273 -0.09724400665583897 0.3259739718695225
Ni 2.937919111929414 2.243812304227631 9.483328431900336 -0.7935457939199106 -1.4391125167229601 1.1193313039277109
Ni 4.313272479259875 4.421252959357394 12.965222356207162 -0.6866256976268884 -0.8033692077682357 -0.7452381079534586
Ni 4.416820278106664 9.072813808143158 1.4291046439043869 -0.7926487360269381 -1.3500554167532879 0.08489011307617637
P 5.229423782947308 1.485185358320775 6.282487476599423 -1.116909838970412 0.7092750595952881 -0.9424712881104415
P 0.6395565540135283 6.135232163716371 1.775447541851098 -0.5249393042262637 0.271105601966417 -0.15239365524478915
P 9.149200033400081 1.4791018225301638 8.308604967327975 -0.2585958995351805 -0.549449373552486 -1.8280232373260192
P 1.7332969386985786 0.11901201913611628 4.754933529360919 0.27737497991489646 -0.045338318925483206 -2.688146204945532
P 2.9198600401671797 2.5528230877147453 3.194900615180335 -1.3806659425502932 0.9755063641885393 -0.8340391260482669
P 0.032481703165072685 8.66694985140192 12.22098155872989 0.0772020004032993 -0.8144506623933779 1.709230043744495
P 2.9219669318727743 6.075664589130941 12.369797430794012 -0.8188503341229704 0.6083088668928556 1.047566672489899
P 6.411791342491351 0.8908375926930371 11.123976860012666 -0.5803866865612907 -0.6324666950859817 -0.2615938058212398
Ni 2.8109492442516064 2.6249955295604814 0.4644291616364299 -0.38030703809444827 -0.25146674468956687 0.50476540038155
Ni 7.778224622860465 2.3017472657598073 1.575664956146893 -0.3857402932948776 0.8831199427353178 -0.8116211633643828
Ni 2.877266168889588 1.9699163825004151 5.303836279351026 0.705667801860004 -1.8942322290529245 0.5921116883077029
Ni 7.511962763287285 8.626079800610723 2.4630749735024313 -1.656542483542792 -0.5425207647534528 -0.3167812496266609
Ni 5.413553348975581 7.768301254134551 3.7925947815300747 0.27575852735739603 -0.7740205794027896 -0.9642580449682298
Ni 1.9520488463477805 4.7730491497317 0.6513277853349116 -0.03032359068420584 0.7957173476499327 0.6685480141895712
Ni 9.000431589201193 3.7270549442224685 6.882250227532837 -0.7301233637992072 0.7818177068497052 -0.6169701421122794
Ni 1.9013375135204973 7.269743183090493 10.679984547920498 -0.5860050611893327 0.16044069391898175 1.3136046301254216
Ni 1.9069650121453954 3.8303200000265156 11.535049673260676 2.0614498366844236 0.3517143140584201 -0.30626723746921447
Ni 7.080113808843722 7.295764663766076 6.529286582014305 -1.5002723760617325 -0.1279424641809603 0.3959866536132342
Ni 1.8517024284042967 2.5509533353353224 7.396632788227135 0.4954562071654822 -0.4303489331431879 0.01771155834715014
Ni 8.50008585246754 3.8447763781796165 11.209050593276421 -0.8839085000748841 0.6547859274084723 0.3384463933049204
Ni 8.30940759273963 1.6842911848710618 12.21028839926825 -0.6975261465894761 -1.5763721445397882 0.9081043805947973
Ni 8.523024521902904 5.143168913424355 3.4661278074137987 -0.6038950540958762 0.28597454865844946 -0.8134343053137217
Ni 0.7433697664907624 3.0926616429991425 9.487693619650539 0.41040951390678354 0.3068778744700199 -0.7044809806407545
Ni 9.53035589650299 5.996186431890483 5.434056779946036 -1.817528765552599 -0.7871645729839153 1.7872362852166446
Ni 6.183116066116234 0.34332301983535957 -0.050509764400038196 1.216601792946111 0.9989586816742088 0.249361525421106
Ni 5.37537391746209 1.8299403348564733 9.313474653307543 0.7735986613740226 -0.6239491445332739 0.37916135452577926
Ni 8.975732616306178 0.5187486605188343 1.0289256464709273 1.3102256863508597 -0.9315343294829634 -1.608946993152016
Ni 0.6552269031017577 5.688251896114451 12.251817879801068 -0.5871111497693179 1.476796147316663 0.2853471994870957
Ni 8.279336502032516 4.683446967412415 0.7504492874512907 0.4981466095134518 0.022614137855090085 0.7367542388521634
Ni 4.75987879638591 5.992072976655752 11.235628439294175 -0.3568621768079467 -0.23275554143330882 -1.0548755474464866
Ni 6.229093733163416 2.809927721000409 12.099210514741209 -0.349444801297953 0.7551371122347252 0.6182626356714578
Ni 6.814335348666198 0.2117900442774277 4.814417193107857 -0.4539537170463214 1.2964065210795803 -0.30193415731149936
P 2.8708178033664065 0.6349998306537242 -0.03408056946806239 -0.19694958747829308 -1.6873808090798876 0.7467722852097978
P 6.572006319549634 1.6325309665626386 3.180336612256126 0.14486109431316985 -1.379204013292786 0.215980378857499
P 4.089613611707601 3.6285053127118934 10.562178291050525 0.7008474976532252 0.5885517388705864 1.3361151525231119
P 5.116372169567061 7.881453195691256 7.496390918226849 -0.1321693577781143 0.6814611227068135 0.2789533801456099
P 3.370069050902348 4.269657084731086 6.647439427130219 1.2761259164536733 0.3619591317148798 0.1552280393697907
P 6.1155495996442 4.029973071175657 0.5774470282664147 1.3401235023515565 0.15044784437232797 2.032713902202312
P 6.459930625704013 6.277689053541791 9.860441069492033 2.2225708444998817 1.1631562715324613 1.5085520995720212
P 4.0422678331632795 5.979477230138761 3.681663740970393 0.33065877893970147 -0.4332851329533764 -0.2216144372148248
Ni 0.017291105175173335 1.6257177713068869 5.829551363613293 0.17900457296409816 0.17798538767096445 0.4740810839238158
Ni 6.2080430575941055 3.6826004413087667 3.082941666849136 0.3425563017082358 0.9043636826054425 -1.7758293289312836
Ni 1.9044112040174028 0.7348646733502152 2.2302260449867095 1.3323055489690345 0.016200006798630165 -0.10148761242354135
Ni 4.340671192175911 3.7464547652518987 4.587748480261878 -0.593595471942081 0.9231021395552101 0.6049355795452485
Ni 4.005091683414357 8.62277809153096 5.4553090239425925 0.5484798105503651 2.0879759079994105 1.0365908902046859
Ni 8.328798293025745 7.227176674042844 0.43709611807225673 -0.36512853058179695 0.17838082333717023 -0.3401430642810529
Ni 6.928399364554328 5.40789848812074 12.198034680625543 -0.21466217426670772 0.719834066058057 0.31058309123574895
Ni 4.009387553515373 8.011724772448826 12.615367972084462 -0.141136337163415 0.1445492194997059 -0.5059259963485544
Ni 6.169316381481759 5.5790765986427635 4.586320171858865 1.3562934272431997 -0.5656120993552775 -0.12090432638725628
Ni 1.634345994482176 5.063371530167898 7.754202409119369 -0.41843161288031167 0.9366353981549547 0.02186234729073009
Ni 1.8438221061807762 5.3770977379484854 3.4241185757826504 1.1809678457925856 0.2787785451306425 -0.6990538960879122
Ni 3.7372519352478104 0.8149767222510144 7.794770563306864 0.9106762550870315 0.16319640228724797 -0.7219991920301759
Ni 1.7551502396795444 4.003586760767505 5.312820211515572 -0.4945187829528774 0.0922252132850089 -0.37139276632395396
Ni 0.8923826466104727 3.188383844082297 2.454691186247964 0.20234736145509666 -0.1407092769283254 -0.06275522885034998
Ni 4.387679503217605 1.1004997675552481 3.437387433156235 1.0883430830763128 -0.634376767624501 1.0574435652839789
Ni 4.536867501608949 6.289682831000043 5.965192321959966 -1.0419061317700122 -0.6443886433345482 1.2068195167483668
Ni 7.993811632579619 5.025429237980577 8.734549152549887 0.6698875589366012 1.0997657230909574 0.38462083497845373
Ni 7.667781542068096 2.110804504475783 9.80763196570247 0.06728602684116798 -0.20336706096886267 -0.16947657886900488
Ni 1.5384687407626794 1.583944766927578 11.831226658830298 0.16358206776144088 -1.4871813472057291 -0.40321762414403456
Ni 8.917551394704516 8.417351589863893 5.60971773580702 0.19960965080895945 -0.15205452673781555 0.35609573095556735
Ni 7.0827223414316 0.9000030276495367 7.002125981060814 1.278870569078346 -0.45080360145311393 1.8778856693741015
Ni 8.62026988711954 7.059811034226181 10.437030747886906 -1.08786974298432 -0.5640136445199061 -0.15751606407301902
Ni 3.9371239042364956 4.0805111098799705 2.0799681834046027 0.16290998139508073 0.960298031879217 0.40598670224873956
Ni 8.661614216563079 8.318437128620747 8.171883200898561 -1.2823970941743656 2.0799802913884435 0.21549701146317726
P 0.9462041529079186 7.203845812644967 7.489943464777999 2.390779355289741 -3.149940243971878 -2.08972657214193
P 0.7795243929884873 5.1779280661949985 10.126422922245466 -1.2461494246962408 1.053776657955353 -1.119301222020724
P 7.642590049034111 7.296594651407673 4.2962440514921525 -0.5737319002489345 -0.8568967473727307 -1.1246691712008565
P 2.541768746817863 9.112306626693902 10.07143760910112 0.05171311210357546 2.4656694197304114 -1.0099208371126671
P 6.014573850412031 7.348500801609125 0.5521670640222814 -0.0019740930072353097 0.394320835875037 -0.24055549709370186
P 0.433311009596839 3.2488634929991522 13.003320613105158 0.5087981756900269 -0.06168102194956475 1.8127902224263488
P 7.276875604362244 5.14594161939189 6.413869959892669 0.5859970907695327 -1.587526361384395 1.1908606794262653
P 8.952319668218474 3.301709079761972 4.427866410334564 -0.13899563667132836 -0.8641508578319826 0.2554843504893922
