# total energy = -340898.1033162463 ev
CRYSTAL
PRIMVEC
9.00511768861570 0.00000000000000 0.00000000000000

0.00000000000000 9.00511768861570 0.00000000000000

0.00000000000000 0.00000000000000 13.17989998853829

PRIMCOORD
 96 1
Ni 6.414255190414545 1.8334509413631976 11.410089999339515 -0.11701887528992105 0.7581707568547265 0.16052631165425257
Ni 4.645388952227938 0.29703020083638354 5.992596864013041 -0.04226199399300463 -0.47104615375223385 -0.12448972974566945
Ni 2.771009751531556 1.5866746996103718 4.774867234113599 0.014573269828484578 -0.08657264298492187 -0.19590443404323032
Ni 3.366148966288617 4.210792973420716 4.863198432309245 -0.731822862988817 0.5393755342562517 -0.4251856437746936
Ni 4.986628877238213 4.557435968970026 2.525057478035933 -0.3912524813623584 -0.11303957892719886 0.6051962894058028
Ni 6.949915603654404 5.974976550473494 2.693787266364165 0.9522993299444568 0.7116271047672325 -0.49526286020775356
Ni 5.016255714027251 4.666514958035562 11.388013053117023 0.45476592853497166 -0.9386812249403899 -0.30061518138975973
Ni 5.492266228516171 7.73730507330787 12.574928971732351 0.0578531635630423 0.3770772183032409 -0.8243175278851288
Ni 1.9793518561522532 6.341619912134795 0.4789308741152681 -0.65779257544528 0.7521500045819433 -0.83149399102891
Ni 2.7661289778112947 1.6287466088743188 0.5072123463400865 0.5356728885936839 -1.450477306916476 -1.0853518616584727
Ni 0.6654250578640883 -0.031011823870543756 4.6030009633374585 -0.45894499961332574 0.09004003270823203 0.1774984207322169
Ni 8.63339531708914 2.4627645772796503 1.4968936774867523 0.2653105925511947 0.4267861554925941 -0.3343943347227338
Ni 7.020641797010363 0.5296044716773577 4.868866253304692 -1.007375187872678 0.1618745981520309 -0.1148727754811957
Ni 0.6240987723345282 7.361809681080118 2.438953245414126 0.1504406452834764 0.5576676476972201 -0.15275643790084661
Ni 7.484648489785062 3.955659982567517 3.9044397743692287 0.6919136854987051 -0.29991584132988997 -0.2944805292469316
Ni 7.5949972004272714 3.877909797510814 12.57469213714039 0.9948742271921899 -0.40061463930354874 -0.3383111532786367
Ni 7.877766897087631 8.727372723998077 7.102200246285329 -0.1491224406926851 -0.03074293760981157 -0.5045262877875505
Ni 6.914993757737113 0.7339585050929557 0.5043235046252162 -0.04524421654978014 -0.06716312811005852 -0.7360710967422097
Ni 2.0129499497874814 6.4838647491924375 9.148814027066262 -0.03273374278759524 -0.2806127701259038 -0.6073177066241799
Ni -0.019675281367893333 5.114015270313511 1.242295590616918 -0.2694984053802971 -0.9725094863437445 0.13358552139935057
Ni 6.4639004035507055 1.9300758528362605 6.937082410612441 -0.861965934365522 -0.31179870881040495 0.3447124288192902
Ni 3.5501145130251692 4.223877409242744 0.414997240938632 -0.6505194388226345 -0.9954591531613823 0.5255046898114304
Ni 5.76160929488703 5.547854819245269 4.8494251049934896 0.27912950071215803 0.6232824574835524 -0.24304175385066532
Ni 5.241590770857676 2.7529454856960514 9.418211124142513 0.02107661816464112 -0.09206374800648016 -0.5307996196617826
P 0.28148916894260795 5.68443543735449 12.310145196384681 0.26962978875183885 -0.6942150799383722 -0.15646473999036925
P 3.8887339488240125 6.038642731658448 12.678905661185528 0.9094634657258531 1.7012768503356894 -0.9706513500890832
P 2.24445351214997 8.4269800122629 1.412938065915968 1.4029350383611388 -0.22988876140847503 -0.4110047242886212
P 6.4123911310785795 7.652774034724679 5.805640717733133 -0.9334513440000183 -0.45702875642721935 -0.18120749415268791
P 4.728136977533248 0.9345060753138041 12.679525213274005 0.40212490530048806 0.6528691700017337 -0.2045420551135703
P 4.068818289890025 6.102579066370354 8.222597162471095 -0.44066728435006036 0.12422156368594735 0.3489580914695216
P 4.743562743922191 0.9219079158402891 3.8699879955888328 0.679866524526184 1.2881967315752783 -0.7313922032093017
P 0.12797172571702692 5.5369946474618095 3.375622349967057 0.2831645900134801 -0.7492953087419677 1.6822720270984126
Ni 1.518478944290194 1.0933473440438468 2.5678398910757627 -0.37618735949911986 0.529936500330539 0.44151292017980737
Ni 1.7958996011169093 6.439685642418268 4.651555656736489 0.35619086177253495 0.2957658237172584 0.48421945790939835
Ni 6.059642665820161 5.682625408723914 9.209006934406375 -0.16692733008458996 -0.5915182776980781 -0.20542445771852366
Ni 8.64913626259286 2.4283109974757413 10.16837163675852 0.32273592454819905 0.09739467330109032 -0.13554161668445686
Ni 2.2840670243186567 5.099481010563509 6.89257371653539 -0.412935879873063 0.12376442154387073 0.568746531219201
Ni 0.6694998735622767 8.976733434492074 9.017041241225025 0.26935262383105224 0.38705489834124307 0.5113355973999
Ni 1.37126328233664 1.053967964931852 11.407743265702063 0.20264200987738004 -0.08399665472762953 -0.1256518683745707
Ni 4.069259540650712 6.949060117485724 1.5844747493892282 0.42218362372357615 0.023224774855895487 0.23434396896635123
Ni 5.640661560870748 7.779800223097375 7.866911227862955 -0.20808863481424808 0.6361012065147754 0.8548663472062633
Ni 5.271109546235933 2.952940141698405 4.678574611478687 -0.007232513192697222 -0.8524130005697641 0.5061311703808251
Ni 0.8885214424678398 7.5555097599044965 6.865264797007598 0.061821404182170955 -1.334167798988754 -0.0389594119823329
Ni 4.8860597242716555 4.512959693316208 6.913213445994501 0.4388639125927345 -0.6571451716692682 0.8416300510216472
Ni 8.187687023206637 7.263428771681869 9.01617134686824 -1.2253707973879928 -0.6117826843740689 0.591168350557827
Ni 4.503549345460724 0.36075761682077984 10.490211836998391 0.6246970784428918 -0.5411747922485196 -0.5870718118909503
Ni 8.148577797621595 7.077247966024312 4.650250815201313 0.17808488936330621 0.04739571567514418 0.13926817360642468
Ni 7.1995464676753524 5.940946211195143 6.957142210500363 0.40251262765721 -0.11273413187163811 0.02254446095941924
Ni 2.3945057861365173 5.240221992987787 2.5674580740910047 -0.761632747261398 -0.9662385657333683 -0.11923542332526561
Ni 2.3420149558497987 5.1944309701694715 11.349593619537462 -0.47277804884167607 -0.08413780829118413 0.04614358843559795
Ni 0.9318045400442869 3.2606810293666677 3.699835398685322 0.3376048712402315 0.7457446152762317 -0.3162238344612941
Ni 3.8173143614155443 2.508609630803356 2.476911616974355 0.06788457965711535 -0.1041085949861562 0.8824447710451641
Ni 0.9859883324332357 3.399638998513064 8.127240171551191 0.20911990429223987 -0.29702849247976587 -0.38506537871504004
Ni 3.422692099479611 2.600317748085898 7.0176638046315984 0.3457964059120884 0.27910327545991287 0.22945501630516613
Ni 3.9803880354011643 6.69073030989693 6.178328314304101 -0.0584799985137638 1.1602462969745178 -1.340082621811292
Ni 0.7120328448455545 7.4876201785815315 11.063075992946528 -0.08610058844450978 -0.5287203685352507 0.7652695726830369
P 0.23115326328920807 5.660292717162572 7.970070252641223 0.27284855279945264 -0.47615622128528956 -1.107892208852834
P 8.621166367435793 1.5469441209133397 7.928038866406319 -1.46666111576519 1.1704484343185002 0.7740740583485443
P 1.7648319455174621 3.373605203632484 10.195614818928087 -0.083707662732301 -0.9076449244598757 1.4094988076215853
P 3.9232595695684416 6.162328021414507 3.79863144400332 0.07794144967248512 -0.014031024171769383 -0.11270096464085752
P 6.92798814238349 3.8613043607208484 10.319716145115652 -0.40258564698699056 0.8793170240494598 0.4849743337975519
P 6.318791939107375 7.67580012033853 10.240953784844635 -0.5110995701296941 0.5643131780381958 -0.1659909343132496
P 2.495714302450194 8.432986425678793 5.662915007397516 -0.1451104913198146 0.018888866484702952 0.9094603804020596
P 6.95635426271342 4.003152972605628 1.6280343040749228 -0.2565343890204614 -0.4234519489130385 -0.33700246176954224
Ni 5.5064042630933105 2.9113905292532314 0.2507366924579378 -0.43035536090109106 -0.3539090077168937 0.7015974884453724
Ni 1.4653847711266175 1.0097528376874214 6.967184717608914 0.1318482269932697 0.8417976869477631 -0.8003021388071379
Ni 6.869797072678091 0.7999579122390159 9.245990051734308 -0.30181280124228665 -0.7498761209461021 -0.652139748034877
Ni 2.641011874362391 1.5126796485782972 9.263835493212982 0.3929357826020523 0.6100952693693169 -0.4129114543930308
Ni 6.4064207381329465 2.0943832279282932 2.7378736204274152 -0.09120808487440421 -0.47027996501017066 -0.8552604973208884
Ni 4.125532520314755 6.815856418463398 10.428503368372082 0.432220696244604 0.5286234379460703 0.13128746939379327
Ni 8.165993694992414 7.304717235717655 0.09334975021465176 -0.4298501391298984 -0.10995168403049452 0.6963017872640719
Ni 7.566045747455614 3.769515197380221 8.155353248077542 0.09603430261845397 0.03666778773467878 0.18096940999995284
Ni 3.080596688300655 8.43069912581727 12.375293619920845 -0.3655087967393511 -0.5185290298245456 0.5857062990019912
Ni 0.1296709914015532 5.08550506810254 10.098952986473007 -0.2407187621444435 -1.0717579250241218 0.00579269542237712
Ni 8.509998191095162 2.280645079643935 5.672998037535112 0.7238886957434049 0.42741093356078647 0.5968885408710559
Ni 3.6751415652984223 2.5202262324622797 11.455256967510575 -0.49432954976020677 0.5944290235869698 -0.034271262478044205
Ni 1.2064336104258344 3.229820491471217 12.660374930260154 -0.5278937588688973 0.633596952035683 -0.480461790639179
Ni 3.1202732362922965 8.41677721406169 7.9403101401122225 0.5383625196107051 -0.24093961990599794 0.12397165245867035
Ni 5.525450086743406 7.864727486853428 3.634172782936195 0.2337402739440813 -0.5352049478183298 0.440764472049557
Ni 3.1252530663057736 8.403890890826094 3.559192572042503 -0.35636698233908304 -0.6368524828585032 -0.404441983469439
Ni 3.4539578676654887 4.2590874189221175 9.252618718773945 0.21838718852677874 0.31526455587181834 -0.5273525416534466
Ni 7.261519686758077 6.015607640927032 11.39760800588259 -0.35105199788407276 0.19303456869460303 -0.3091211619782418
Ni 0.4506530039374757 9.175044133509761 0.5204219532962688 -0.058127757380667625 0.4078924039118846 -0.5565672155441899
Ni 4.797053142258631 0.29184325311891063 1.685828248095703 -0.43397830236565904 0.19482354227422577 -0.4341976174653167
Ni 5.926754145912613 5.512950983563107 0.40790300932088 0.027472751498972044 0.5144150076561721 -0.24287051838012366
Ni 7.825159000272567 8.86037831043397 11.367531813727059 0.19950526402061125 -0.5591267487412499 -0.016676946435048697
Ni 0.10068171693612128 4.821664128563932 5.662954629914803 -0.25089056047112274 0.06472572231315951 0.2785083221883913
Ni 7.699888809825057 8.794496870328013 2.6101081119026284 0.7355062253776753 -0.15201930262450591 0.23246963476177382
P 8.426475725679257 1.6150948506456921 3.570619165720804 0.49218396417211363 -0.04307857635702903 -0.24349426800705162
P 1.926365744399457 3.2456244727978922 1.6189796583632579 -0.954835208992433 0.31874300133872197 0.4000001456480014
P 4.6843721061670704 1.0861612602269313 8.099615172396865 0.3569084566648498 -0.38718139661677836 0.4822201680911824
P 8.485558302023598 1.6987253774723778 12.357829995426927 -0.1253299662587777 0.5407546739919654 0.7410325545125431
P 6.391841452795119 7.638356841503022 1.380146830814569 -0.6120655057218104 -0.34725550695611807 0.13543234480010224
P 1.5945541774797969 3.1416063598039172 5.837403568408603 0.834803257907801 0.22962522333444324 0.4705689570054993
P 6.797440953042857 3.871651240803099 5.971509580210947 0.4263331271155754 0.5626023659946762 0.567388731639726
P 2.443133420987826 8.40092820714719 10.178098964752294 0.6599219630834571 0.6657195436018406 0.29512690458167884
