# total energy = -340865.1694379467 ev
CRYSTAL
PRIMVEC
9.29708896375037 0.00000000000000 0.00000000000000

0.00000000000000 9.29708896375037 0.00000000000000

0.00000000000000 0.00000000000000 13.60722946260086

PRIMCOORD
 96 1
Ni 3.958412274969662 -0.21042194443610468 12.880072709079307 -0.7273920809109732 -0.47165910474588446 0.9735595248748137
Ni 3.571699859135341 2.0273232214648895 1.61487832277094 -0.16419630430667204 -0.37115339661963825 0.706223674363474
Ni 5.743304604373107 1.0241580241830266 0.7365488579659076 -0.31920759967996637 -0.7199597930026439 0.012477049421088189
Ni 4.9870236047707825 5.329612036338974 7.831599994741102 0.4140568808513837 -0.4975125754738787 0.38314964974956595
Ni 7.053273737765864 7.592235282622973 3.265912094849203 0.5452746733495061 0.3927460351887494 -1.4318036417663729
Ni 8.38891213381323 4.264472443962711 5.771846667520394 1.5392346162575428 -1.3902255612142704 1.1947319894562134
Ni 3.4664382177823856 5.828940090903939 10.481825388274142 2.0894995437327886 1.2222523063636692 -0.8655276835748513
Ni 4.512184082560851 1.1465542005133267 3.9514710683423777 0.22405929921089154 -0.10987249405312692 0.11163344260829162
Ni 1.6854134773917318 1.3452236947785894 10.662747669398737 0.49210246020190085 -0.49495638471092823 2.4006860728804913
Ni 1.2467303341980198 2.3948836340147124 1.9473310679407039 -1.2583215412824005 -0.45127179933878414 0.6381971698118557
Ni 7.479201274888541 1.2189599294354976 10.511434757235534 -0.3027204006582206 0.37755364371902717 -0.7921157463416035
Ni 6.263337276081071 3.4746940327904605 6.858723783624562 -1.181634789952623 -1.1942010566534078 1.2894951386717275
Ni 8.802139847398712 1.379018613195653 12.397274878708439 0.5206303924382646 0.08451910289000283 0.18678370268888475
Ni 2.5730065616495184 1.756591990569459 5.260827523571809 -0.47041957591182854 -1.133135556800655 -0.42018407679504405
Ni 8.887998464064896 8.118710836989264 12.435293464645962 1.188739262207888 -0.12419533843370224 -0.4533433371558321
Ni 6.974694741765583 3.6841481502644693 1.771702549277369 -1.2244423720364526 0.4827364456059686 1.0651399054869721
Ni 7.281489380787503 1.8912045418103565 5.457410751071517 -0.8228481424284539 -1.2021221112726976 -0.6671711884467025
Ni 8.141284169015849 4.145339545861954 13.182031002417443 3.2644530650104944 0.039897864636202256 0.099467496669719
Ni 5.306908545066768 0.41050645564306687 9.073735707568636 0.7294451067852599 0.12317641025088463 -1.1932731455224999
Ni 0.9491026249035343 4.533604575554775 3.6338109214376453 -0.9046549885936161 -1.7531755960875097 2.1171805545878244
Ni 3.745918009401463 4.013069861042266 5.805130246043939 1.2136943894913292 -0.45615766667617574 -0.3083061222761142
Ni 9.319959811931087 0.22647894680147204 9.588483913904316 0.7966349743681957 -0.5592241935510627 -1.3521734915375552
Ni 1.44222952112347 6.30471861910015 0.24250247964653646 -0.6052119731350868 -0.3900548615098315 0.4086382809389737
Ni 8.997397310010863 6.482729981667279 9.486048587599168 0.3401842019316335 0.1683967155412648 0.21004935808504474
P 5.9579557945830555 0.8186672557382314 11.898229455648254 -1.2829745639443906 -0.17025356624434548 0.7677673994042261
P 1.305766849176934 3.545640118743861 -0.01953876218577736 -0.13748845599818257 0.12509779564331358 0.4078700353143814
P 1.4427501581059612 0.18890941026134725 3.863622874635958 0.06523814317320377 0.3182344371334197 -0.0551596758912792
P 3.584213740893076 7.904078240957262 8.132537467709994 0.9131730533669562 -1.4727687713248248 0.1443363321579514
P 4.689182062429917 3.595193602970257 0.8347549384972098 0.757389912824644 0.3128297211780806 -1.7022225020784103
P 5.657576146952545 6.002070481760213 2.394926400623988 0.5140424548081018 -0.0187256014339613 -0.04330560476617058
P 8.431790308156971 5.9849917293167065 11.86955909267314 0.2711526531542685 0.5789327277235835 -0.06051836910003126
P 6.1937671592956836 9.064308459349956 5.027286507986402 0.7410826910241882 0.9615427029195954 -1.0619756488263774
Ni 3.3069838448054782 3.4539987127364347 10.45780914803894 -1.712436980717567 0.8200883202951295 0.7947058756662829
Ni 1.377856477074021 3.644338015281838 5.941610582459524 0.49334430302880194 1.478167573742893 1.3007455147745663
Ni 3.486622197942893 6.681985192537844 1.853645232068102 0.5050456506261303 -1.2624646169164968 -0.0040726274074768575
Ni 7.533951831850875 4.203353381053831 10.89718678377894 0.7890278514448992 -0.09849896210886262 0.5083425762098471
Ni 2.1996819539364 8.520056870867178 5.659790713545928 -0.009905174928853908 0.06197438482026746 -0.26071860230513805
Ni 1.3948236644498506 7.872300790847352 7.737601776679004 -1.24802298756987 -2.467554038347634 0.397209984497374
Ni 7.474887425605043 5.629554720787751 7.497052615425709 -0.12074620354283719 0.9007340562726551 0.49332604819635684
Ni 4.155306025241071 5.433813809549001 3.930910556078461 -0.04376069002571819 -0.06810055232266336 -0.9987025997993445
Ni 6.253259231634277 5.224164453206558 0.12709492509728343 -2.801173699687873 0.7428567522054755 -0.24615793088214383
Ni 5.805502129602861 6.915118995626231 5.0233538393508 -0.7194833675868577 0.19544832034241824 1.2241551798133368
Ni 3.084857795061192 4.086805073687584 7.977387646927615 -0.5805892894904001 -0.6074812287852377 0.1887110016185847
Ni 5.819652299019855 7.396168973270165 7.876218584140599 0.9381605765502296 1.0246409169316613 0.8982848234012142
Ni 2.6180416606350083 0.4831446117895641 8.312152578124978 0.6673863897813022 2.164820782173607 -0.336164282138963
Ni 6.118851216350787 6.194046071964875 10.259089449493224 1.2458246943669706 -1.3732246557808996 -0.6736650237011623
Ni 1.5435027113069841 6.3894801792675135 11.40620612388942 -2.1000914603160217 2.6415382752790055 0.7344590150600835
Ni 2.0555770748540105 8.343523745446765 1.3355826135135291 -1.1080454466012464 0.8335912398775708 0.6990796071195251
Ni 1.8916879904369557 6.539423630224983 3.775271708416097 -0.8330865323270104 0.966985985422354 0.03790705945841858
Ni 1.5696461254992213 0.9913764884640263 0.0292523607448277 0.06644579032805975 0.8660732716656763 -0.9448436449973598
Ni 4.040579947313543 0.88878590077303 10.861549182327416 -0.8800389898171489 0.861855891150219 -0.29535393299082036
Ni 4.838865194896141 7.961050802184158 10.701364987866125 -0.8696566181415604 0.31432404633541994 -0.08115327174156346
Ni 3.6521382729302334 8.051111703066164 3.813153627145716 0.8314376838696779 0.9152093670706948 -0.35066761796146056
Ni 7.38547732095115 1.0040577178232764 7.650678643325405 -0.15243967799137617 -0.541167593159668 0.970323020215387
Ni 7.372665932346277 8.263940663837394 10.09880949501551 -0.8327486893716174 -0.47114308434141433 -0.2781036305508049
Ni 2.454868452068878 4.40563014584064 2.008848975966527 1.478215653372009 0.7194203755594061 -1.752922599536439
P 4.331355702034885 1.930196532963359 6.424014216257936 1.260233670703449 0.5803622610812585 0.5416180504335253
P 3.9060231786064836 2.2947539857748844 8.984322813788053 -0.09332615965867153 -2.4265675686329433 -2.2869504963275324
P 6.4106124625032725 4.9221950033616535 5.374311510412536 -0.7679854289523033 1.9310897642009064 1.0000953663818128
P 8.978905400043452 2.522235158767652 7.106797078983754 0.1254217546416356 0.007999216155392674 -0.2597595808259785
P 7.4970330915388645 9.022034595789465 0.409962575938143 1.0079757975711543 0.49098043078231574 1.0159801559328696
P 8.173321937617004 8.196425203715052 8.030401507669783 0.24670814695865897 -0.6788897624352115 -0.3529440727004631
P 1.7821775794233128 8.33435681571933 12.607302626572084 0.670553217545058 -0.2728763207135946 0.09911988352231316
P -0.2078485102083624 2.649735436944161 10.591908499968525 1.078973983156587 -1.0674297299624131 -0.7429464837058044
Ni 3.501311598520324 2.494501942361022 12.565364387923522 -0.09247023941627945 0.012177258792482255 1.6936926102305283
Ni 5.058230009215429 4.431885125100554 11.437475023232505 2.229361127948838 0.4315432105616052 1.349287942459644
Ni 0.43443902207751117 0.4972306312926433 6.857798723271743 -0.4988978858571795 0.35559385161848434 -0.10934978878043747
Ni 7.951707227766235 5.317990675122652 3.8777339962792645 -0.7377482273343167 0.1346872391039616 -2.9195858557808942
Ni -0.21623541417095746 4.952605781392524 1.7224846899629007 1.4853383804597193 -1.6631188512087294 -0.4866630343538844
Ni 5.705093568693842 3.49312086313506 4.099735465031313 -0.28410432821893006 -1.4647230182022128 -1.079151646385032
Ni 9.52756380869946 4.387751843745451 8.262650227887933 -0.740616292910731 0.8803552355059869 -0.39854541547934585
Ni 7.902507032920816 6.642686397448731 0.9016567907473307 -1.8431513512167097 1.8920563044475285 -2.315906003019618
Ni 1.4424805425257425 2.5589121747663635 8.8332692904072 -0.5305088278942413 -0.46821562628197433 -0.7539508052361079
Ni 0.2065143779407287 2.0135635297847645 4.727600423193282 0.9429960502656598 -0.7808013497700489 -0.4777593041063513
Ni 8.786251122343756 8.788222105206046 4.568205551585803 -0.07266734575773937 0.9030632186264641 1.028407325952629
Ni 6.577439427035815 7.871798748042806 12.405874686008515 0.7748870411681429 0.2555380865454632 -0.8398043106668183
Ni 6.316005285113441 2.824920484463481 12.953579213335889 -0.7661049241001385 -0.21883173226336505 -0.7881585614660684
Ni 6.721293284715931 1.034784596879231 3.006680433304547 0.081640238680311 -0.07370401455236984 0.4674538084152852
Ni 5.380857590758466 7.591798319441239 0.8041563592690835 0.748100259992602 0.681830076010458 1.232199390274052
Ni 8.323646569222367 6.798143022167223 5.570772946046699 0.7764335597196563 0.16101687813742593 1.1954673249603411
Ni 3.2570677741091334 4.960638466265245 12.606784778716287 -1.049401668816109 -0.06529753565622948 2.588897509154838
Ni 1.1381217408147637 4.23527958458731 11.240074581612065 -0.5846729726414704 -1.6142545214078587 0.22039342032353013
Ni 3.6125233768160356 6.502755911315244 6.025444293147376 -1.0005285972644897 0.43734696172757576 0.840709596089907
Ni 4.794787696074876 9.093436239102546 6.778890610321817 -0.42932769096752516 1.3087041075000105 -1.8222351698893327
Ni 8.286839393978035 1.9959269520028748 0.9809451546362558 0.07716703340030581 -0.9342712687981523 0.23587197557510345
Ni 8.80195390561925 -0.04766431574707051 2.3274211672995166 0.7606639555902254 -0.06214484895986072 -1.4900463274583498
Ni 2.3412580248181176 8.17470720387399 9.983964414349126 0.20871649820623409 -0.05922613265116897 1.032978233152763
Ni 5.6832454096071565 2.6219650321816386 10.177282504201496 0.2033143533540563 0.37853349113379325 -0.5192021446321703
P 6.839896248745224 4.243451725794627 8.968238849864663 -1.6572945312174683 0.49118071971857985 -0.997927412196217
P 4.022692348129381 9.163136515133557 1.7694842638483974 0.6427269393614092 -0.16558392868281804 0.5715030109184157
P -0.05287626382536646 7.06080437983404 2.324468411841673 2.3413493827933873 0.1905827647200008 2.110410839964159
P 1.99922741858831 5.468343197994936 9.135458151551866 -2.5346467182310732 0.5390541463610911 -0.050925840315589714
P 3.065278125683933 3.36543464317909 3.8115480198800693 -0.04185987345857952 -0.38236752016790276 -0.45783916814365666
P 1.2536008829491094 5.931477685187789 5.876363612046608 -0.24157931037252592 0.025998223835974582 -0.460439067660349
P 7.969548341505532 2.7574701039639495 3.5152507240176285 -0.4887055187052099 0.9866217573754105 -1.2507100474837298
P 4.828108462954313 6.690194522101055 12.54474995254356 -1.4282002406858305 -1.5033960092923784 -1.098317420680205
