# total energy = -340876.40614503215 ev
CRYSTAL
PRIMVEC
9.28173746498258 0.00000000000000 0.00000000000000
0.00000000000000 9.28173746498258 0.00000000000000
0.00000000000000 0.00000000000000 13.58476099240314
PRIMCOORD
 96 1
Ni 5.156998350633023 3.696025016271344 3.93418790438902 0.20836888505882825 -0.009210205744358333 0.3462448063034166
Ni 2.7140357477771158 4.59094230488179 4.525830916022955 0.1330954691368095 0.9699759212886133 0.7287869043759707
Ni 2.9471373044130074 4.378019245662735 6.923676849033528 -0.044687315605045616 -0.4176633672557194 0.7069212146511309
Ni 6.566207434721614 1.774955951940677 3.2148745928615328 0.725890299554466 -0.44955275976514836 -0.15582633507542196
Ni 7.887750507723719 2.2557685201039503 10.289274793322283 -0.04609987968185609 -0.4572218462746319 0.8774370334179274
Ni 7.015684856942275 8.98032239729623 -0.023615524828728945 -0.09795954466562484 -0.10936521539940522 0.07027519137647897
Ni 8.334406281731537 4.2931099106262955 1.9949359162130995 -0.21340130527641313 -0.38582899635394197 -0.7017183302939528
Ni 4.412825761446146 0.46174138203522674 2.9723594980102983 0.08335259338572741 0.5939942500423964 0.9451503776045013
Ni 3.6887481340382253 2.261216900041247 13.407711204946155 -0.31691828942515743 -1.0199828493343595 0.12035179631789594
Ni 6.101359455130998 6.893462936986019 7.587605104472697 -0.7764919237614175 0.2279005273338527 -1.6897601079453417
Ni 0.32618531792578415 1.5598238391865682 2.8319741458576266 1.509895243863477 1.0003159670330515 0.3014057956118551
Ni 5.914462387980392 2.1739685671441626 8.935267915092428 0.28903107609658607 1.0479119716444598 -0.4450895817874722
Ni 2.512260055346294 2.7544298695609575 3.182094280383593 0.3607931364312367 -0.35194339935009067 -1.784655411863346
Ni 5.530792484934235 3.106653245813996 1.4178819396480622 0.14882676382913723 0.9161154238247319 1.0904246481956898
Ni 2.1159948344553126 6.451893555151349 2.131761722018321 1.0683843805661988 -0.16489230193243215 1.62386633346601
Ni 1.593841407278889 8.732212271054532 6.291062391540624 -0.16400989932747884 -0.08180401795168492 0.1378949474079819
Ni 8.634642646010473 1.20929902090376 12.5732263812995 0.7275905700750244 -0.955599083741651 -0.22627970390097804
Ni 6.109750145869186 7.819817470652042 2.2675544704350905 0.7676797247864263 0.03140473956352656 -0.6160977668096551
Ni 1.2197316939012413 2.655505110835731 11.643145230010266 -0.4156301388757745 -0.1413600231384469 -0.1174114827426494
Ni 3.742981326497551 6.104932924084762 8.795807023998965 0.6468635872376021 -0.6715927145531659 0.3586161833845759
Ni 8.636331922243162 6.61092684620014 2.0571263422673907 -0.6501170611778933 1.0451878878450773 -0.9200294141671576
Ni 8.593403886110288 0.23698967649233707 4.928578502413439 -0.6246577405645242 0.5864529473600286 -0.35718485025468805
Ni 6.835312851283867 4.444439359515026 11.326906222034749 -0.15572220539738987 1.5090125841482076 1.1600395802803507
Ni 2.1317180978518726 0.5182244676747925 4.15913731094156 -0.23030553723091948 -0.6133482290889759 -0.65599280323238
P 8.259149953739032 3.062787754189355 3.8261345567909983 0.4452819003039364 -0.28742105129698886 0.5436872742577282
P 0.7891138341926637 0.6904554613348999 10.877779649493185 -0.18382539139150922 -1.473383007870056 -2.0742765561354473
P 1.8150994668108782 6.389149009365786 9.904717556167087 -0.16789843574860763 -0.21321772851069729 1.275061479744901
P 1.8622042848377616 1.7113853315138543 6.78766690795827 -0.6474806519963107 -0.7806488833525845 0.7834038203899024
P 5.923484236871452 0.8484603358640115 10.739690599208465 -1.8060374770835477 0.9961227548873103 0.568660399263298
P 2.2650873845963626 1.5012096666073032 1.414988822056145 -0.1208567609787725 -1.0782515031682656 -0.19958985331461754
P 5.679142496071905 1.0781387876943236 1.1003945379731142 0.03015929719219967 -1.6687961040991648 -0.07555906548323763
P 9.235523771020203 8.56006388485855 0.036984011410821575 -1.8154754825679957 0.15157810132202926 0.6612059720022032
Ni 5.091868398299105 6.286919952075522 3.782541020076345 -0.9262219161311145 -0.1413019162070018 0.4434746718918685
Ni 0.4763972456144284 4.373192742140769 8.046729036521013 0.49873024993106374 -0.09235659665655062 -1.240739052313947
Ni 4.0043272104744885 5.808919750387547 11.37874565438193 -0.030836525764882376 -1.4066577386283645 -0.037589013997367526
Ni 6.31108031489798 6.624923706413844 12.468976689746288 -0.6525824919992502 0.05884638071424704 0.14769213600406178
Ni 3.252859175579408 1.21534143204376 10.548050564173773 0.1438452514541458 0.5577195839810782 0.8952586349803807
Ni 5.747595310445948 6.88626959039078 9.810642505307682 0.8105140463431332 0.34106377632310936 1.9089420244592736
Ni 3.404597020919997 7.916477485416961 10.775962701349796 -0.5297770919345393 0.9045377462894615 -0.3602115528961538
Ni 7.4687914385419525 5.074613648208074 4.12930580648079 -1.9843715063431826 0.6306137010376429 0.9086620528704802
Ni 0.773129753971167 1.8675134387119243 8.950469544839114 -0.377537188658795 1.1133334344730632 0.5066677596105854
Ni 5.159188840692993 3.2617046714571654 6.337630725137566 0.9902896931453009 0.6156236553867139 1.0045251200183927
Ni 7.6911540248414685 9.129851189101766 10.655805039822933 0.8220189616589391 -1.8985100304926723 0.21923359568747408
Ni 8.476092005313879 6.532412628330307 8.235353435028228 -0.24033798176625706 0.45629547780562063 1.3096358752856607
Ni 6.2070413187869775 8.30631974392871 4.859934484246027 -1.1153633204188984 0.20740806380745572 0.2844154317014457
Ni 2.7838344140947835 4.48898241798025 0.5138676200724636 -0.19653204032490024 -0.12438765695016642 0.29703646289956587
Ni 8.884200723308762 4.491080090664798 10.212411796561213 1.1507959501948954 0.35184312632680054 0.20545248274298167
Ni 6.419175430314942 2.326987292265581 12.422530875084904 -0.8503728302112837 -1.1501449468744578 0.7454103718652646
Ni 0.6368914821523697 2.838392467368088 0.6092653185316375 1.5662759366460508 1.1090209231406385 -0.6638678351050824
Ni 4.990975911214922 9.295660148556395 8.946883081452793 -0.2300404564949909 -2.1280447509958385 0.4557576030242796
Ni 0.5907853790850316 8.028053252412263 3.657357297670359 0.9782826413820958 -1.0307382880786506 0.9265448466881719
Ni 4.807633749542996 3.4335374785767105 10.848192254729776 -0.5150837515884226 -0.48845509325730074 -0.8327564026811013
Ni 3.889140847575252 8.435948490443677 1.2019608792028627 -0.6092000112485573 0.4044509823305034 -0.7182055293156986
Ni 1.7268208610466045 6.66368424239025 7.765280765375084 -0.9490160312074946 0.2579155856387042 -0.737913292157271
Ni 8.572093016713298 5.613390667322656 13.140376743906964 -0.45332251122022577 -0.43633883217803565 -0.4260204809711631
Ni 1.3277432736803234 5.168656212986081 11.81440906661847 0.796995443031408 0.2677050609253003 -0.6023850452092528
P 3.013046922700475 3.767726438785171 11.954168829660796 0.732196701388468 0.3164786307845775 -0.1337133052264665
P 8.087558471795585 2.9258914071788125 8.27178796757655 0.05061242284022897 0.4606452701338841 -0.34951524952457225
P 7.798283839554038 7.5481595762656735 3.8790061183528772 0.788849416885506 -0.747356696958358 -0.7261160424120269
P 3.7097341426212367 4.6071760638431725 2.6289231426885014 0.31861393196002546 -0.046855012680325756 -0.7378559565567744
P 8.431660327699161 3.2687309467766434 12.243958598335938 0.23187930947594257 2.068535796996928 0.6646723332842488
P 5.612926580445544 5.375676087128269 5.785980864225649 0.3795305649397399 -0.3098665247846986 -0.5944498495225762
P 2.96709304012883 7.678066774906907 3.9570915199482593 0.04960583595258554 0.7243795193368943 0.1206040215380181
P 1.0981130868852307 5.353010084050112 5.987565352863099 0.4505434058131918 -0.4518456695643831 0.9136355948256717
Ni 9.478974465015694 8.613433875726448 9.05186603027184 -0.09128958884461698 -0.37918912243992114 0.31773795711297537
Ni 2.3430261347385772 3.57199315749435 9.60524136619286 1.272358221881125 1.2440758299966639 0.16631309353935872
Ni 6.784541746927797 4.706880488521948 8.940891719869274 -0.8734543946210956 -0.33523739944931946 -0.2837873111991435
Ni 3.310805063055631 2.183111078623272 5.267681214476763 -0.3365494333925236 1.026457658425426 0.8409109134674357
Ni 2.3449567361473633 0.19259326948028022 8.690715478850672 0.8153307510054862 -1.1055525049760637 -0.9019195919403241
Ni 7.905190892565594 2.1284416444994605 1.1483569885489007 -2.3425048365540686 -0.8713913414444799 -0.24091339465375283
Ni 4.579627866817796 9.378453247433203 12.43841099984593 0.7732641608527393 0.19463173797839384 0.18279849278889163
Ni -0.3032362218525883 0.805195372658354 7.17782103285144 0.44519191169329136 0.43128301492168303 -0.18791318830763767
Ni 8.157496364176385 9.340490940885429 2.2878907573901452 -0.8370352325621132 -2.2901846869941136 -0.5180927136180755
Ni 3.9971060186666234 1.6096110793631595 7.694381284984908 -1.2142728877026183 1.3748202824027935 -0.7157416411562383
Ni 0.4136582688713909 5.427134040062464 3.998226324387972 0.816460236624239 -0.2773994053949287 -0.5079574249562865
Ni 0.9179137215451076 2.8223721883701764 4.966045164176458 -0.9519871980206766 0.18505463581292 0.9371082240263152
Ni 8.949766917307167 7.006421682875116 5.966236848164779 -0.4475503846231389 0.9264304325974948 -0.7270454962048316
Ni 0.2846012773890269 7.5758284358791 11.425246231294814 -0.22786324633801402 0.25790967210143323 -1.2945653541057833
Ni 1.4157155821057026 7.058974880839296 -0.2552060145927432 1.754884094138184 -1.0477962720022018 0.9939902819253397
Ni 7.575308658576734 4.968931784552095 6.71799076057616 -0.22609458447336547 -0.45409975570588246 -0.9817906545353542
Ni 6.105694026563226 0.6011809251323438 6.62788272434231 0.6750819586533471 1.0007602536593216 1.0756487754380957
Ni 3.9791644199974674 9.159014408459493 5.8036681432861466 -0.3019557545780541 -0.307815812903257 -0.9634545752303277
Ni 1.6929146738047909 0.2551818820751334 12.742153076394569 1.5634837186128943 0.37317685480757024 0.6094877176923051
Ni 3.6887666975133095 6.616059647061001 5.899875209259004 0.11105288751447326 -0.059426164477117016 -0.30513646629888097
Ni 1.4290070302661948 8.604746169386909 1.6293700422430866 0.004137162096825133 2.3165611201051135 -0.23795174092226765
Ni 7.799991679261811 2.576331889600398 6.199840546801706 -0.533223655722243 0.12130696114231367 -1.4242088601382503
Ni 4.420529603606208 6.177209814326209 1.3019446841816587 1.5393991668598648 -0.45038296897592756 -0.41277904258022463
Ni 4.992962203048963 4.3074316316539765 13.24704432808993 0.8269608790452466 1.5738380652640251 -1.7189801811527234
P 7.586168291501158 8.519521255274034 7.349328979157006 0.7363382343606674 -1.520548352701949 0.026730988236941058
P 0.870654826675023 5.195925957885191 1.0103858163309665 -1.5982280640726154 -0.807970196875357 -0.41577103532901294
P 7.886933714820001 6.483813450559122 10.472098105865596 -1.1445358282177966 0.09469450076110787 0.3530584867911403
P 6.7573184107163975 5.59297084472972 0.9083210457951995 -0.7515517088763121 0.42301743247878115 -0.16518000837618002
P 3.9283933156413977 7.265280061190731 12.9665186616557 0.022167280125658596 0.38318615941445616 -0.8219117466571135
P 3.6557608388130935 7.997312137672355 7.55987869808651 -0.17675717169081814 0.31219517291787524 1.3311176993085205
P 4.4260336739687585 3.904910519659523 8.628917670294419 0.250345229490614 -0.36833006823823017 -0.3077556490892829
P 5.256229406697144 1.4936543322479177 4.840712005796041 0.6817755686234387 -0.10252222433564279 0.22170879670084398
