# total energy = -381175.00949884957 ev
CRYSTAL
PRIMVEC
9.12782476856822 0.00000000000000 0.00000000000000
0.00000000000000 9.12782476856822 0.00000000000000
0.00000000000000 0.00000000000000 13.35949420346896
PRIMCOORD
 96 1
Ni 5.489702008485285 3.6146916290081736 4.9342355347524585 0.5722041507504985 0.4439852929796999 0.5001453851110355
Ni 2.570523242993848 7.968545379552913 2.172347445588441 1.3377146357997478 -0.7920308999372812 0.16335015425629287
Ni 5.390729004572901 2.7473109530164495 8.037004978062853 0.8370540016151906 -0.6197924420524229 -0.43528236588906327
Ni 1.3651027047046735 2.022023125120648 9.730881890147383 0.4482019021642088 -0.8912855092652456 -1.8314913983802779
Ni 7.583305535402569 5.0036818511193495 11.992256661785724 -1.1469750337869087 -0.5126849123389429 0.7925453776798543
Ni 2.199221587257614 -0.14852887733678083 8.53676981395791 0.7284668020323906 1.8559564734011778 -0.7340856908810648
Ni 3.708233577186179 3.1254858607997207 9.502140427134973 -1.1076777788491825 0.6086395107593969 -0.5019554417365807
Ni 4.253000414731042 7.474629653766411 8.969243412912776 0.5036767953030615 1.815133525847545 -0.9669404768963993
Ni 0.4566148698897986 4.705603605637211 9.955228305536092 0.8378533575880345 1.217332757574865 0.6661142079370979
Ni 1.1643909659765148 6.486615645698133 0.40861346502265405 -0.060278999395715537 0.9954871781858404 1.1696753035979017
Ni 2.105497082584335 7.48801104486994 4.987900754885455 0.23128898419011135 -0.3965348128072203 -0.08396811548253925
Ni 7.970799952269537 2.9102517528725755 2.893612641110897 1.1798877253545292 0.5338499764523322 -0.3359089715950473
Ni 7.887718491270689 1.0569564685082156 12.063903696703134 -1.105675146596857 -0.4351026457780894 0.5042090136574477
Ni 8.778822383823169 5.468708011528863 7.773274737166374 -0.30905071375162263 -0.31436235577252314 -0.2239106894481692
Ni 6.080819940180022 4.221436396698299 2.3339701875486947 -0.24394703927375408 -0.507668690071274 -0.25687274619648665
Ni 9.177206295633187 1.9790493261333284 0.49282495072724486 -2.223033385958597 1.355404082659711 0.35117438239455007
Ni 5.333652716325723 5.591970157137351 0.023872912886881013 0.4971945300128276 -0.7474765103656741 0.46059153407781317
Ni 3.8949797440259357 8.286577049968418 6.546473182150798 -1.1163873908080384 -0.00034298516171553834 0.8310939273770138
Ni 2.156019592651203 3.359714972060045 11.293421270055013 0.9929700681909414 0.9493510459494102 0.6684042895228552
Ni 0.833942715535002 4.636067836587635 12.441282658167014 -2.7456067610558454 -0.0794591718685922 0.35117206840170484
Ni 8.303317480584973 0.6310266071264188 2.790504732580573 0.18438923431477922 0.8412348724657576 -0.1557016365720996
Ni 7.425978347776094 8.87469192731591 0.8383687977629015 -0.25173516785960515 0.57763792017156 0.6696389332609048
Ni 9.145441465455646 6.1195036615284195 5.386574931522958 -0.2810573138624901 0.19311632977513193 -0.5303663887791059
Ni 6.431994742312381 7.651234807293739 12.51962312698362 1.920671654191376 0.37849929546174815 -1.3216082171561885
P 1.4516527391137146 6.463111496931704 11.330708434214573 -0.927630366442867 -0.0156814152909988 0.8316706258160903
Ni 4.49798210356296 1.5346064105658728 5.600366843137444 1.2210806546530713 0.647423316395814 2.77964688135969
P 7.80653561782268 6.55453578976454 0.5946723066577065 -0.03221592261091226 -0.3134228746773893 -0.15700518587487153
Ni 7.405741960275056 1.8226531766327474 9.348252603879446 -0.22178310158220513 -1.0386498296162434 -0.5344199900231893
P -0.28356044019553495 3.1506512736731356 8.749880789845028 0.8271791657036399 0.3291220305802009 -1.791320482588347
P 2.9887510458400666 6.345590753099559 7.061494264355839 -1.4150431344785825 0.07516542958924474 0.08195365615567175
P 8.044370219864652 8.071352069866036 8.819216659532279 1.4729901433070116 -1.1415330368357306 -2.417024662139515
Ni 1.0862385303500426 2.9087913009103894 6.403994227067372 -0.16385100515211135 0.45952864003093763 1.334866367717675
Ni 4.408848894745803 3.27721769184607 12.514278785584494 0.7277528066845015 0.30378586580825745 -2.1522470592736545
Ni 0.03865359952667853 0.02963165753027523 10.259877672065592 2.455259023030365 0.11991933676616767 0.3753067566663794
Ni 5.1061051727923985 0.9938375602674944 12.849922593881482 1.208253678091732 -0.7617139941212946 0.46805081856933584
Ni 3.097782912642007 8.127406041739684 13.135910122681675 -0.7881215375805459 0.10277470666608106 -0.04097309997825201
Ni 4.215859295767701 7.1250887322667475 3.8310758428555394 0.011968742326101966 -0.06447426842398575 -1.3283838453171253
Ni 1.3930338484814786 4.11871185680805 1.3330065344882096 0.03780781487639295 0.16594722555950778 1.2637064597433978
Ni 3.0437279343916015 5.771204124196614 9.943618625219191 -0.3866738608527405 -1.8289267229768953 2.089681320726291
Ni 6.4864057057285684 6.5123469837068955 8.821514133025293 1.2019709304068138 0.11258140834385773 0.08527397877815637
Ni 3.6640822888043476 0.18678085257385824 4.158356738104062 -1.587414775507195 0.08284505762168959 -2.469910711505269
Ni 7.486057690370515 2.1494475588213664 6.762161855751173 -0.5723561029473304 0.24215780858381522 -0.3816594383572846
Ni -0.01892563186497633 0.968827320415061 7.893243563600134 1.0303518512735095 -0.7629470951974473 -0.2547184188576451
Ni 7.460554547980845 7.661248031059476 3.9572022998748655 0.002295223792079918 0.5643759129553313 1.8729936313891227
Ni 8.793052662629718 2.9154363573383355 11.181576207660914 -0.43328770405653766 0.2365011245186701 0.6012699577682032
Ni 6.982548620757405 8.797415762866748 10.39369979814316 -3.14305251571311 -0.1266625690272722 0.8945477249562852
Ni 1.5780092173170845 6.086497447183019 3.0545015059601517 1.1544993671884116 -1.1169512337313086 0.31517353881990884
Ni 5.706542613570834 2.019321288990604 10.681810458983382 -0.2723001364951504 0.8333670396819067 1.0768620790199068
Ni -0.18892589139331872 8.095066158602028 12.56857200006123 0.6232732015121717 -0.23580615533417454 -0.3238551257543068
Ni 5.260319772174464 6.444709802208162 11.080979363723074 -0.398023738647921 -2.2793649706707906 -1.2512425229484323
Ni 5.6289195917806545 8.58912792958475 5.100788214867565 1.4942181994478525 -0.14121321314793747 0.9315016764728152
Ni 9.021686417309919 7.691041251088069 2.3983368694346083 0.520171193413659 -1.5452034322464678 -2.961324373170261
Ni 2.235869803683716 2.2389367528043067 13.54024811458503 1.479411473452323 -0.8424204081334266 -2.0436223215847
Ni 2.9040722155075764 2.6319626314780553 4.4865193812247535 -1.8541767557929358 1.446883933138263 0.3005089948291986
Ni 7.13700967140809 4.372803114754102 9.45164164941249 -0.5893068718690561 -0.3616549702108997 1.2522714784335789
Ni 7.034796289704604 6.702415678760625 6.378984899997415 -0.030665804514972993 0.10555072674932145 -0.5049021830697304
P 2.7430391310270554 1.8446055951893539 7.587043379643288 0.5831868750142473 0.2689607877092723 0.0732306744603771
Ni 6.777108668801669 3.145384518784503 13.176135533632657 -0.24723727998925163 -1.2868798125360676 -0.20613536774261917
P 6.009458606177714 1.9812856432004256 1.4632788495151905 0.5283051353747031 0.004358019858379591 -0.5516196417309274
Ni 7.927105055125889 3.9090457219867387 5.14749346861827 0.6681332952496558 0.306734149803304 -0.5514160103605535
P 5.181081125401116 4.184067082115868 10.59660404037955 0.63589037605555 0.9395152908059109 0.5100716430858119
P 1.1115864997187312 -0.30147470907669754 3.562749742190556 1.1678009693933242 1.788052867580669 1.1492406898926337
P 7.7647119247555825 0.141614550078307 5.745450879408419 0.10158737122619924 -0.45649062453556216 0.4682981586934516
Ni 3.4381868815532455 1.4786345891150987 11.243711136392113 -0.9017624975371695 -2.434772730151555 0.16942464258514692
Ni 5.875361732574759 9.397278150685073 2.7961019147256505 -0.16130869834623188 -1.6052145226927774 -0.8767752314642125
Ni 1.9828191177607206 0.708032587962575 5.795615578744552 0.9335433894931922 -0.20721394551877861 0.9712828130254951
Ni 8.451781550365931 5.5679274667098655 3.0163198149737545 -1.4454729117233494 -1.01035432510566 0.9065082397522711
Ni 3.640897613904646 3.6575193827992742 1.128234739305174 1.3238905854324619 1.0942823313788832 2.948057737968342
Ni 4.645971526456209 2.2908558200600146 3.052136486563887 -0.143337715690108 0.5682559647360278 0.5412578388806292
Ni 5.079899187895926 7.970736057496192 0.7849892785450073 -0.9773907256954457 0.0058299764182157664 1.9600568408572177
Ni 2.050164208867017 4.619062699052933 8.212254649612778 -0.43192656204295293 -0.30156083313248067 -1.2103612113530382
Ni 2.967866582780809 7.921765277639147 10.825358282346631 -2.6757203204773528 0.7883804476688874 -0.46457365865401284
Ni 6.030908994372319 8.466367814338263 7.651369899100241 0.9312522794661704 1.5712163113704618 -0.25432221186049103
Ni 6.762732344798902 1.612786229666636 4.437315841836234 0.038263671466888936 0.1578672767648507 0.864631139902511
Ni 0.6292567219047447 8.090547885344016 6.65562005954476 -1.625492813325839 -0.2688836546144337 0.9378718416652171
Ni 2.9455490512336557 5.275608878653598 12.668848457349865 1.729266136459764 0.830956373357885 0.19305847995400297
Ni 4.664145025560659 5.916363921413127 5.703034790514159 0.6932833121527222 -0.3787456071445993 0.4089337006922054
Ni 4.510541990437758 5.403772666160172 8.24979465451829 1.0828100690732252 -2.5908407489241383 -0.5149315422812745
Ni 2.003402362602778 4.899396453194513 5.405758880828746 0.5253126284052825 0.583442185558163 -0.2885942456694836
Ni 1.960300774068767 1.956229764224174 2.389666348691606 -0.914646038368057 -0.19348374041687968 1.5303527403868804
Ni 4.479854243582327 0.8088503252596957 8.977005715091794 -0.3518297565903618 -0.6927912030076521 0.061948673788654596
Ni 8.317228285524793 4.401300183666254 1.06344361356775 -0.7856381090370599 0.6566273514925852 -1.636057733325879
Ni 3.7836567932083165 0.7142814967957778 1.5346849098588402 -0.011318767446928894 0.49494121520227663 -0.6223365486305152
Ni 3.6501167169159445 3.7728859599871956 6.651932418340241 0.3895987478090193 -1.3886448469907118 -0.0701684905952856
Ni 1.2888579844538066 7.017991964314704 8.897970618810676 -1.3287957360435632 -0.8236968635819943 0.12511605047575872
Ni 8.403011582653686 6.645613225256358 10.84503695975461 0.26077953745006055 1.2791402777999648 -2.023835111655444
Ni 4.013805766799284 4.7877266450358755 3.5812399768143055 -0.9698545652194006 0.018538168013503557 -1.067614849390026
Ni 1.1458067147576994 0.013396908405626391 0.8522211846242346 -0.06622441834587305 0.35432038422269946 -0.23308567107921793
P 4.872350708419784 8.553383367810252 10.934758913269023 1.3656028775695837 2.2080819068550874 0.7551623090457058
Ni 6.606838225660323 4.395485759291802 7.16442965699813 -0.24411313253797315 1.0901163729266516 -1.1722435785457102
P 1.2329500577763783 1.1856314142015556 11.995276146217543 -1.0192806810610122 -0.44448357277235706 -0.7659059207154552
Ni 6.119083781589292 6.582457805716581 2.353314786570323 0.32316684143803054 -0.0008798315017920331 -0.4334761659182599
P 0.8761725968040831 4.076075787336985 3.6791249440148617 -0.09032079717344445 -1.1559299289873513 0.06262204570659537
P 3.705723425376172 5.86863452572394 1.4835718295297635 -0.1725827285981544 0.8096753524919217 0.6447375420335347
P 6.5896961707541655 5.64503933031328 4.370451787094983 -0.34406785325675576 -0.47493417595273046 0.5132035038465742
Ni 0.21386858534250092 1.5825366183998608 4.686376755555034 -0.7060812352483389 0.17631751305023827 -0.5443135949878174
