# total energy = -340864.6852342284 ev
CRYSTAL
PRIMVEC
9.31255411508473 0.00000000000000 0.00000000000000
0.00000000000000 9.31255411508473 0.00000000000000
0.00000000000000 0.00000000000000 13.62986427482272
PRIMCOORD
 96 1
Ni 6.674186515431172 5.920344567359507 4.54024452595152 1.0128398105316752 -1.4929969254462416 1.3932566347311102
Ni 1.3348428906187406 1.8271883174010468 11.379260456548835 -1.8160084722533305 -1.4480553277385448 -0.439380704328153
Ni 4.2133999494915155 2.6000837513187967 8.100106185900696 -1.2321937338470972 0.05338947136473386 0.8942124531040535
Ni 5.243117002501785 2.524083996680532 13.480794757492628 0.29132552855771765 0.047600889707414794 0.5766485596750972
Ni 1.56057920386853 0.9579824481850582 4.9409898073382985 -0.9952313534212925 0.32488022458471144 0.5741725873307788
Ni 5.573563674917443 5.324369037695862 6.635263763993103 -0.0777460458322274 0.7391862453324238 0.4668184888241315
Ni 2.2938776574257966 3.4486250628160855 4.431150747534552 -0.8286696342062374 -0.1680727565429428 0.19702234969775748
Ni 6.717685455991807 8.716578647307854 10.020594189834567 1.0984719439801987 -0.06982936208831199 1.9755158557247656
Ni 4.440616958855443 6.909011881557686 4.954305828555951 0.3270713186987593 -0.14753786981438463 0.6754354853380238
Ni 8.568238971822876 2.637725095302115 5.227079852953623 -0.8283163646318767 -0.375293901150573 -1.2714339102946426
Ni 4.199114491384042 8.31493749820925 10.003597847206175 -0.23102261790260212 0.2050724736957436 -0.16901737984439924
Ni 5.125490130692459 3.2206537365638233 11.016678953434702 -0.0582848517838222 0.10193884102834702 0.10468915007997454
Ni 2.9014380044855943 4.757048237234758 11.325585688039025 -0.4244791046259722 -2.2932669254638633 0.3914311730320678
Ni 6.431622416783597 3.354344764328426 8.217472306193066 0.33730250950846424 -0.6731587734887052 -0.5380699280709508
Ni 2.4514646992085085 5.844810440430091 13.371197169894685 -0.018432752783890834 -0.09398770450207039 0.8126568037177488
Ni 5.236682027565498 1.316813785732124 4.105833429959572 0.6075856155735859 -1.7687441399497281 -0.4858636783810406
Ni 2.648769784556004 8.491475587742098 6.390225319700705 -0.012959645484461551 -0.9623549144082459 0.10574073127294047
Ni 3.80140324014812 6.678172288618916 8.12393049325164 1.3627432966336013 1.0102841339893567 -1.0284284089985514
Ni 2.828418267183961 4.926555348363993 9.061447672377387 -0.40843824911302556 -0.7825628125458458 -0.948860736576553
Ni 0.6185016669623215 8.657816430451163 11.928993567191311 0.6984993091360229 2.5875224831841828 -2.007837707785923
Ni 8.924658357838105 6.281522668559169 5.174918374497571 0.01969902109082414 0.6317629841507377 0.31734149300550507
Ni 4.4799159374822635 6.133173680520013 10.768546878644715 1.7140374924354673 0.9097426875291688 -0.7181366237509761
Ni 7.07012838137347 8.327472196131454 4.709172396210948 0.03112346087768188 -0.03962867013521562 -1.1098968979876884
Ni 8.606960572090722 1.1580440495689368 1.4160204253794013 0.9986961720414411 -0.344356073921136 -1.015778838555341
P 2.6076641704188512 1.7665170269380777 3.1263091814523425 0.22388600685782087 -0.15412709299612812 -0.4606342143902905
P 8.364778288164402 4.536787705841029 3.5816697993208066 -0.03475437276204982 0.3850640931634594 0.3957562827699829
P 1.1688652375225776 0.6426947514586756 13.510944151640574 0.19079745183396818 1.8676570496675577 0.5759836723975886
P 0.583103717280235 8.378793682200744 5.8009930105166045 -0.6718567668478299 -0.33317871714807784 -0.00875512048481073
P 0.3460303005754008 9.330154904365974 9.696612292528563 0.480945672254133 -0.14680459119278588 0.7912492845762501
P 6.8010048782131705 7.319472019461882 6.642528487506558 -0.4739905810925386 0.056813923665250544 -0.7445199988405112
P 3.9927296657139992 9.247794675224839 7.819439771838039 0.3437287247497822 0.06624884382590526 1.5731675215595617
P 7.3102432782725035 3.2018516896805176 0.20989565859476061 0.43720915059813087 -0.514976536586597 1.862890738627166
Ni 3.931834873950783 3.8203542878982573 6.141889299974241 -0.7308373591470961 -0.47526661959148475 1.0967552183994078
Ni 4.451093582304536 3.0193163152576994 2.5364221997096017 -1.9891756126000448 -1.4998311747592556 -0.9359427429633042
Ni 8.145765639030387 0.452494213692792 6.25130994904282 0.24941937524223495 0.3374467483958124 -0.7920064744572488
Ni 2.3817509186396997 5.84333905687013 6.26683490811125 0.2531788422846672 0.4647052991358706 0.26655526359157317
Ni 8.463938365040795 6.749851018119067 9.601190274898807 0.7490559390376519 -1.7653801085735017 2.61032739689384
Ni 6.3201045805143625 0.7280191665943416 1.9992833873360627 0.22085544756161318 -0.011611616096999356 0.05879161621691165
Ni 1.29582328861723 0.08523128959389625 2.656188165213379 -0.40032333331537506 -0.11598117805402605 -0.5773077905256508
Ni 5.827572902648517 4.6680947197363265 2.6507356647427622 0.3048443889797589 3.2974110079937535 -1.110693682857371
Ni 6.195223229001175 6.975587331368856 8.776951004781743 -0.9715892885223203 -0.9001496445240948 -0.8810039248335795
Ni 5.2392522925183425 1.0986858292449204 9.595792718497833 -1.1976717888108277 0.3275120057806037 1.0894399156849175
Ni 4.951866870617002 9.12793279041304 0.15843355295739842 2.1200607043490973 -0.48943108401732477 -0.3003444442268763
Ni 5.8071132211217105 0.03298134187316226 6.565424263942905 -1.1328087695888553 0.06850781506341105 0.36394813712045065
Ni 1.8480856889741708 6.692411183955506 11.16419446787502 -0.6881421342714148 1.4512445240998038 -0.7415966545461292
Ni 2.7332905262661966 5.224780583327329 2.132215441935242 -0.17468203432934432 0.13888739322823823 1.7652153008608629
Ni 0.7157191450373976 4.5858462412453145 10.02844560426117 -1.137134393547403 1.0555198658987048 0.5393914750958516
Ni 0.5872599102094174 0.7761091963642225 7.623401193858613 1.7210738304569586 0.7074382634968654 0.1534172114132971
Ni 8.00003347871496 1.4840393210880012 12.381736426080629 -0.1821184360027315 -0.004478347486327771 -0.2841120415284139
Ni 7.799021996805029 5.629522812966863 7.466711882298561 0.8890278235793205 -1.028705573919338 0.1207505744182114
Ni 3.383325432927162 8.795074166465547 4.239678114868094 0.7949730132847406 1.5956752157437746 -2.0582120464734164
Ni 2.0011282043185203 7.99689514795732 8.77398029999929 -0.5694497279338129 -0.4678140199681814 0.4366198537535642
Ni 3.4310522730841404 1.1411883265086185 1.0159875543871606 -1.9585005521136916 1.3815264907783757 0.8113913067417639
Ni 7.194702418598817 1.0623203051838468 8.506806845683649 1.7259733246411049 0.28999061179637803 -0.5780004457173014
Ni 5.447713817769849 5.228608043094064 12.946735606785412 0.5536778098115368 -0.20675011850848263 -0.5939901362773383
Ni 0.35727893476576467 3.1610813274937364 13.19432196590063 -0.5022032960813286 -1.1893714964752484 1.7244211496626365
P 4.511559996575612 9.020065475381179 2.3079992145797563 -0.5633927231064555 -1.3002539198501284 1.4664705970209388
P 7.125370452751265 6.792167264299225 11.223443731315166 -1.4847984487958492 -0.22145040083313475 0.02468439012055749
P 3.070749551977113 2.6755433778147966 10.473732832276404 0.8723282514364525 0.7994361912624167 -0.1952346616697154
P 3.926200778673715 4.180051692983781 0.48179430289979747 0.07157565535545737 0.9778635515668063 1.6724254733216357
P 7.389381363668408 8.223991094116947 1.3874243652681748 -0.7265454166399616 -0.6868684097653139 0.3662667579512982
P 0.6120275792984908 5.865130433644243 7.905893799795372 1.3410573270197357 -0.3146590610773355 0.23483787788363425
P 5.007779445895539 4.790023991575414 8.766046935095927 -1.1933945015917125 1.1341709400437048 -0.027676639979662014
P 1.812148542405238 2.3946953689456905 6.633777480346458 -0.07841453265416172 1.3606655881689664 -0.00525867729577804
Ni 3.422298472157787 0.5349084556481544 12.104778271091241 -0.36581861467028615 0.6711985644385408 -1.4377215499127045
Ni 1.7150372274477792 7.106745344397322 4.275089102126028 -0.06809001079970207 0.1848684879440429 -0.44992222728942516
Ni 5.769360126488268 3.439647760589485 4.529244536957681 0.7769914891056554 0.5543668654587613 2.2932656399122826
Ni 0.46094442535297603 2.7586392987359134 2.955936002784649 -2.3513185781909574 -0.10677740006757093 1.8217366329863596
Ni 0.33403386828462606 5.157041064244038 1.3004385904673372 1.5295068474468174 -0.5542683922076842 0.5247372155177866
Ni 9.028092897081729 8.009215657133453 8.039684471889668 -0.6500453273996935 0.5294906710423719 -3.0830483672453357
Ni 8.678890740553651 2.93124749040608 7.654177322902668 0.12503557494681047 -0.12884826382468131 0.5984633415573435
Ni 7.2770533351857765 8.623900108138633 12.792718067018734 -1.1534986938380394 -0.6966848816351033 -0.07625711999152673
Ni 7.158439332633691 2.912184692005819 2.4395548736715793 0.8567221694680793 -0.5243770039648905 0.13242929630772032
Ni 2.7772178443189715 3.024028467671247 12.782768534136057 0.5812662609527667 -1.0677287492600709 0.4482880341201118
Ni 2.644299758551057 0.9235790792890723 9.328320331193112 1.121540652874204 -2.4922607970656947 0.42106493673810064
Ni 8.891785041593396 6.885190367972993 12.371595985837324 -0.3464628358514936 -3.7004887641258137 -0.6311921992489323
Ni 8.538317735252265 6.86911689946354 2.842317254293091 0.04629476930148156 -0.05990798920954199 -0.23454348657166704
Ni 6.834083070649774 4.7829185127383855 9.967056315871156 0.4746683238858535 1.4367915818992674 0.7227360701962005
Ni 1.90070162007406 3.111938979101858 1.4425984550004778 1.9222613672759992 0.0506936697001256 -1.4882288146336369
Ni 1.559238196067046 2.7071874369081455 8.854151147653418 -1.2314650832111889 1.9699468462774203 -1.1803055296182383
Ni 5.8197317320315065 6.99559069774099 2.8678736967209537 0.5546455730414447 2.9321886321465693 -0.6748477311553539
Ni 4.500887809488804 6.397892345554606 1.243957949384005 -0.32562224495705855 0.6838072543414868 -2.0489843572275612
Ni 7.7211131685604855 3.836260130432524 11.92384186222061 -0.09153127254177784 1.868907120024575 0.14148446453145308
Ni 7.715264884537348 5.938364359691947 0.6542143809755894 -2.2222103758366694 0.5385808062690982 -0.34052667287271676
Ni 0.5112834369565955 4.3978537100747905 6.139163515366642 0.4610077956796254 -0.6508020030600598 0.6013357780091322
Ni 2.6902385883060576 8.302272424528569 0.026944944255649337 -1.115324496761163 -1.3028188523638273 0.8131921073959285
Ni 9.323822367525635 8.093317333905683 0.5932208761380968 1.557630345155911 0.2654797711392073 1.8021792796797218
Ni 3.7870712192697606 1.4828566267075258 5.867370102923805 -0.31139401717281856 -0.5495591596574729 1.0502123376428623
P 6.539219667744325 2.142567277158364 6.47578068617996 0.3321489903319828 0.10234687510004307 -1.1666583711484488
P 3.7515065748679066 4.99058847088485 4.459064197424606 0.5230032635458154 1.0242166849100491 -1.6268354433966628
P 8.418521038319705 3.060300866190551 10.087653892462939 -0.05200544653301367 -0.8201777946851423 -1.8631010548657592
P 4.846057630058252 7.4749823616631295 12.584072153194523 -0.8675794238975574 -2.1762601343588 -0.7360106758179195
P 5.540513420143371 1.0254425906430398 11.937757611927259 1.7067332454645703 -0.1674466929231697 -1.6006826962606948
P 7.936829173515854 0.9097545926133582 3.639105908462696 0.1669944358770995 0.6501646265863771 0.08038811144076478
P 1.697399249836595 7.345332982411332 2.0520166566185813 -0.17597298522662597 -1.6636839796835798 -0.6461863586649194
P 0.7125696392147459 4.964150129576427 12.309158103846983 0.3423912368852813 1.3108134405335294 -0.6241651171988218
