# total energy = -340869.5231061651 ev
CRYSTAL
PRIMVEC
9.21314142019767 0.00000000000000 0.00000000000000
0.00000000000000 9.21314142019767 0.00000000000000
0.00000000000000 0.00000000000000 13.48436374706680
PRIMCOORD
 96 1
Ni 3.57167693695671 4.740907493696013 2.745025064570977 -0.4172198519603975 1.0503804877896106 0.33906242962236444
Ni 1.3059904270734655 6.299798651076185 8.450866311939405 0.05586364393683928 -0.01487537444993567 -0.23620879008923193
Ni 6.949933184220924 7.672529074154816 12.437437722405365 0.7168212473736623 0.34860353634358027 -0.1395257981431855
Ni 3.290537928384427 7.049591734302078 9.75030066762175 0.3909220946061332 -2.193320689385513 0.04114459255910979
Ni 2.3699700569266553 4.0772480690361474 8.268800818971975 1.403839552453279 0.21246130996064702 1.0164097872711204
Ni 7.077111387541645 8.58639899184454 7.087516709392588 0.830504373422131 -1.9914921765483642 -1.7523433299942015
Ni 5.844614189089549 5.505524521368662 12.46830358858655 -1.520192254914111 -0.735981622352197 -1.5371209123486496
Ni 8.494230725688316 1.399402467313163 6.0018769842042055 -0.3948936776593715 0.5621647642366253 -1.278196940050089
Ni 2.105792441596436 6.445421563397782 1.8146313778537475 -0.9069124171692251 -0.8561408430433127 0.18543798729426772
Ni 6.552303216304453 1.7493544286964038 2.8182723023180594 -0.31308091795693826 0.7973924213595106 -0.18504255162806196
Ni 5.942153716658114 2.1466987892307445 0.5376982773126798 -1.9333785602350833 -1.214423811458186 -0.22176613230134065
Ni 6.841761691523983 1.9922957531939467 10.651110036120842 1.2371310232477146 0.0771472359059639 -0.4116819528613039
Ni 3.071126966917971 1.1659322521327529 8.673951474179862 -0.33209345450369904 0.1246761347248627 -0.8255763399928944
Ni 8.600449032417133 6.793733585619107 2.4709552993635153 1.87238813659464 -2.783132525915445 1.914425673281664
Ni 5.238242077400434 5.535485657068387 8.250043784479026 1.665681726839899 0.49737784966822735 1.800024181009932
Ni 8.848273321834988 2.6644681204696017 12.029009952816054 0.40683439496101553 -0.44502761820128517 -1.0969269680905818
Ni 5.3322529718284715 4.330277783321881 1.21287504998553 1.328235492664719 -1.6507865548956215 0.8952740615993484
Ni 6.5973739038330645 3.7377622362368195 6.440522936137159 0.9895057637914251 -0.27468097802250113 0.3390423750177064
Ni 0.6500599066997303 2.672271651200741 7.5193670482590855 -1.1700324298270044 -1.4683140779875807 2.015447916033013
Ni 3.1775663890394057 8.123199096875503 0.9906817198286322 0.8884711797449022 1.6665142500435233 -1.3716112885471927
Ni 2.963112097624134 2.2708090164788923 6.625946619129975 -0.7234675490455863 1.1550274717777398 -1.1681892059706787
Ni 0.21237857066707164 9.515885184137899 3.058240546099028 -0.3198341775203718 -1.1514454108534362 1.2840621405816144
Ni 8.460648825434475 5.44345558803255 12.3661049754327 -2.0859331665377687 0.9392085581987695 0.47818096502480223
Ni 2.367952378969017 2.564358126461854 10.578658813787184 -0.6790694825461854 1.7813618287137385 1.1194601161960915
P 8.632363354084982 1.913984051641779 1.9116374645376215 -0.33809003840676616 0.5643679425355312 -0.7381814582169932
P 2.560866345886763 8.154901516292092 7.888339539978145 1.1676672720289376 -1.2180752921678442 -0.6064772130007555
P -0.18242112022389173 8.256485612917293 12.613071521390024 1.5339993360005322 -0.1608343298129746 -0.14485106701084086
P 0.06764104123008309 5.09810098418749 0.9212505652324801 0.5571703963458275 0.9689055710425699 0.019129007519967055
P 5.364931984229123 7.822500589197897 5.984184988852367 -0.33473243478844283 0.48992859247903364 -0.6299429002228635
P 6.690942567475866 2.125379580125837 5.087596160409868 -0.6440885955956263 -0.6400954152758331 -2.06857282088245
P 0.8947323804586442 1.405906945112673 9.661438997899301 -1.6258059736908836 1.8576310328901233 -0.5559010427151007
P 8.486731228622027 7.867322521909815 8.652080397907547 1.893253410079423 1.7265564508380844 -1.2239978282998663
Ni 1.0824243388540646 0.270588119087866 6.878993838384291 1.5322718117864642 -0.09126413492332025 1.740865668371905
Ni 0.11345707189464495 3.709551597395321 9.910346752740985 0.031205993289159156 -0.372270798053533 0.19458520101117457
Ni 1.8983401376140636 3.94723221817683 1.2688559395115633 0.3522627303627224 -0.08800654721797102 -1.834482876908434
Ni 1.409113118305632 8.66007648329309 9.557541481478836 -0.9371133662326376 -1.4823307039816473 0.4295709173265828
Ni 4.8255578365032274 6.860307745079808 2.230488624635021 -0.7028897248942346 0.8798433288665751 -0.11120561104225365
Ni 8.238354150722627 5.879725470808998 6.591979609567324 -0.2379481413778418 0.43301259601828007 -2.0410843856541945
Ni 0.9449089909284579 0.7116138254338702 0.6861827913404056 0.3525275539883348 -0.2503190042383689 0.9192264586498878
Ni 3.139792509467184 5.4974998752449045 11.877256616234126 1.3179644497560141 1.2376095055460299 1.0624952687752733
Ni 2.1453905231577557 0.6719623076526678 4.627024774670578 -0.8771295294798377 0.005097983348197672 1.081441727970789
Ni 5.8088579874749655 5.744531834505879 6.011490897212403 0.6034039733920705 2.171917026898756 -0.8879618442086513
Ni 3.6535725504975596 9.138865013441686 10.456314745737572 -1.989576961803522 -0.6080394152815527 -0.3196464869895979
Ni 3.4903064724733284 0.6798994289335141 12.658702367913268 1.0832684967668829 0.41460889670011175 1.0132169913654356
Ni 4.136184534310173 1.7922600280056329 4.488621279917957 1.161524392355993 0.5694438143965418 1.2091731045822078
Ni 8.402237509217917 9.398970420291192 10.729265114269905 0.6514249813560393 0.6576915310910415 -0.20806292378263522
Ni 1.2177745985602881 4.852008765345142 3.2871235381967527 -1.2869070662295774 0.1786775286419826 1.4338471545589628
Ni 5.492257597811589 0.13038529782781594 11.38790890477389 3.5269138468177195 0.9088916523827831 0.32729474756347504
Ni 1.1602845964796378 4.500656406475321 12.382273117203747 1.6041675694855018 -1.7269012357720128 0.13372898895575033
Ni 4.270825382131747 4.349146296825274 10.201028733133 -0.5991446838950842 0.8466380457591999 -0.33385337461759923
Ni 7.756810891307667 3.399326701552427 0.42746764752198413 1.0436832782750929 0.3352271150366743 -0.051710026779781905
Ni 4.965791061129762 8.032468080771299 8.151971737339906 -0.64338437043975 0.7002592292499231 0.561868058931813
Ni 3.6959990664561166 9.30499637842859 6.456731615730187 0.03763863628838034 -1.240649320813618 -0.773745471364532
Ni 2.125517777246223 7.720520327494257 11.918788536166717 -1.0421465299155923 -0.3781156868700843 0.3390865979920805
Ni 0.7068533952936342 6.698994853023701 4.728279040835124 -0.4359799061767201 0.5008976898960277 0.49243258984780997
Ni 3.746643704506971 7.77727327826618 4.384764301319471 -0.6877752378502993 -0.613992290430878 0.52183675404154
P 4.193361289584614 5.81471754537934 0.46200955710544156 -2.3790947198629606 1.6198993783984617 -1.010184375186699
P 5.661871530232226 9.2768962972834 0.10021133856269768 -0.32108347654644054 -0.5339898444643062 -0.1998716462210945
P 2.3070903671509435 8.961383058300395 2.751726703595571 0.16595545308962387 -0.735263770349566 -0.4602650039763299
P 1.0805356448754537 2.8117954639426275 5.340091512496776 -0.1578809036116055 -1.8811648543460053 -1.5890345704988054
P 7.898536644834373 3.6669960974577367 8.292114673181123 0.38947996284296793 0.13953736810741127 -0.6889504891053232
P -0.1851472887520431 8.50169337018917 5.561275082360719 -1.1427237147097222 -0.4782182460206409 -1.0878892833683458
P 2.2521616183681172 2.299148639299418 13.310685057214638 -0.26729008487506867 0.8960898726324243 -0.5748914677746744
P 1.8515650189340216 4.922977593234124 10.275206498157349 0.6158864221297974 0.8754804239121889 -0.4362323885071584
Ni 4.317582074529071 4.450177604968929 4.940077183596574 -0.17201091525508438 -1.4272677015692323 0.38913826323283307
Ni 1.3292075432983437 0.6717679103699912 11.832771884495951 -0.8140333723503013 0.6706540047889805 -0.5844012070373227
Ni 6.063371017519511 5.442819881278774 3.447600798331591 0.36086075644437854 0.14484566769420215 1.3171483816126217
Ni 8.275750291499127 3.0013005685575145 3.903170369627037 1.7574626534986377 -0.5041717326616091 2.226099683588747
Ni 6.816250503100695 7.90956477504119 9.866832164787919 -1.9965076274850841 -0.1904441822596075 0.08294275954181844
Ni 8.190805128168423 5.848769315842493 8.785979587849715 -0.8684404863462721 -1.9117429842431786 0.05375636778584936
Ni 7.103129298739684 -0.02134869115725688 4.3466034698101685 0.5735570652339671 -0.2447137422364495 1.7750330582822333
Ni 3.494719567184327 6.008552826432993 6.948209405472641 -1.8813309476102245 0.8746862101456678 -1.0067812630424209
Ni 3.55107635287781 1.2927879955059058 1.7665599701844832 -0.972876125654544 0.5430123596778906 -1.3051179328106493
Ni 7.639324912696698 1.1327188775332746 8.246861565453601 2.5503345612799753 2.169893568710824 1.5240121428808335
Ni 7.77228896879092 4.437150223087192 2.361448822483643 0.37233430430161685 0.695500374408699 0.08752138005143638
Ni 4.2039011232994 3.342067028005754 12.516914886339457 -0.1256798933990287 -0.1925540295137587 0.5592555610096304
Ni 0.986073306520821 4.580488276351737 6.407620965715618 0.8827892988687763 2.343545876224074 -0.7465671111775272
Ni 6.955479495319089 6.049468387208662 0.8046269366527198 0.82428821730909 1.1987994746573676 1.5915038579749041
Ni 1.399384041030445 2.52559844076421 3.0141197334445367 0.05737082460998506 -1.0942630481051734 0.5442156359573724
Ni -0.15086795369731942 6.965051949191172 10.553860722505089 0.9803150984310923 0.08055934691130642 2.1054835778658707
Ni 5.798834089676288 3.2804126860308 8.715780057264215 0.25623177017837806 -1.070738225510356 0.2252684890276443
Ni 7.821745111606453 0.8309451962590637 13.172578225613778 -0.5042280398208413 0.6173889748172529 -0.5357261104291225
Ni 8.103298711539894 8.494663743332193 1.355920125354856 -0.9333780675599216 1.563852414806223 -2.051028127130468
Ni 4.907112563813791 0.06795336672215586 3.2107622586703015 0.7266996828296387 -1.025792256927285 -0.9792709734372942
Ni 7.066037191628032 4.8377376093799285 10.502390586988462 -0.402104593585514 -0.11665789240607652 -1.377088766721996
Ni 5.601313552079002 1.4674230899672402 6.7957825882573655 -1.0972637826047102 -0.04296416226635181 0.06231634154071848
Ni 4.515213169822665 7.617314717989858 12.477728632196888 -0.6049918867044807 -1.2820553945642308 0.1868991452208265
Ni 4.5443635490827905 2.095842248928631 10.50365831523947 0.5926948145046825 -0.31621689248275864 -0.4522349345830018
P 4.363767552162131 3.8376234754278724 7.091467304407361 -0.13956693579376608 0.4080875506418262 0.012100639918275934
P 8.154109186135212 5.361642892763933 4.406244740398163 -0.15526017815930682 -0.3343863643029338 0.2140497374936894
P 5.376991986268157 6.354322021639213 10.398453454060151 -0.5735665783156637 0.26034682078801613 0.16058647546822666
P 4.496409148308786 2.8831236043446133 2.784588136195132 1.188346911865476 0.5858016869292749 -0.7340232130742456
P 2.7185124076819567 5.8839819421168915 4.7953092507931006 -0.44489006418215643 -0.5967720698978497 -0.5789777220289062
P 6.697133798469167 7.763711534185617 2.8166001171613866 -0.9266924280096298 -0.42100862957886853 0.0005021364473991352
P 6.645180894345324 3.5348796503685502 12.075436814752722 -0.4823919177823563 -1.1597991821347702 1.136766982905655
P 5.72082642178897 0.9760494087221434 8.90120374025703 -1.9890465432213484 -1.1368019499086488 1.9900328183940181
