# total energy = -340874.9475102292 ev
CRYSTAL
PRIMVEC
9.19589795236001 0.00000000000000 0.00000000000000

0.00000000000000 9.19589795236001 0.00000000000000

0.00000000000000 0.00000000000000 13.45912618888833

PRIMCOORD
 96 1
Ni 2.3987040450447217 8.085318699720967 11.635535866089516 -1.3268602095837472 -0.21564844943937697 -0.3382347915147465
Ni 3.5059729417450223 0.6950857532280583 0.06234635007224292 0.4721499283393739 -0.5124640545773884 -0.7325484283009319
Ni 9.190757612695439 1.053436109107317 1.8376825317349808 -1.5604176780930612 0.9330219697720834 2.4449309016314795
Ni 1.763166330091068 3.3525301857189675 8.176338779720385 -0.14460192711451225 1.109778113021637 0.01727781324384121
Ni 1.2649785494539165 8.389059214616124 7.800344254118773 -0.5773162751660832 -0.12517107208341025 -0.415159369886943
Ni 1.9733109939234665 8.761465500771411 1.4217952805001055 -1.4060882392781398 -0.14146518125774346 0.9183000901808767
Ni 5.255281053369636 4.542221917266537 2.9188268014668997 1.4114726435185048 -0.6311220081326292 -0.7637307674410073
Ni 4.917092704117916 0.44934744613337724 6.377808703820028 -0.27408576764066345 1.1227459860362146 0.44657233698058574
Ni 1.4726495166921039 1.0482036430771824 9.414134254332337 -1.0336158667367619 -0.7570790664524446 1.1454004902109371
Ni 6.174898453038432 5.486898139311637 9.63672096832075 -1.493921237032724 -1.441911419624336 -0.5233354500742535
Ni 2.728606890090551 2.605372659387857 5.575281755320124 0.8235958192277557 0.37874020782796064 0.1398394727288624
Ni 7.011136644455507 1.4175384992604758 7.240471308484189 0.7755768681463159 -1.5915241696898785 -0.667256034851025
Ni 5.9897942197860985 8.622359149914038 12.657110946981355 -0.6488803605573148 1.1135501784695598 -1.0540337682714815
Ni 5.925965490936953 7.881132977870163 8.22965015988998 1.6584810953264018 -0.8567285972259826 -0.11534303024939489
Ni 3.3149189624092132 5.685437579716918 11.899092145381013 -0.0024677448142022013 0.08120572224605369 -1.0230758864373863
Ni 7.871983059241018 8.5481942315783 0.6669040038502897 -1.1861650737228087 -1.8143688797673785 0.6954756918183506
Ni 6.079748495193437 6.741145075659813 1.543223436812082 0.5180688023586755 0.3449736529004769 -0.4852057330820676
Ni 5.779042626677796 6.354816199751231 12.380027501555713 -2.424062285712586 -0.9321578219995753 0.6937391687432182
Ni 8.774523676101449 5.9520818415970265 1.4947840434663286 -0.2766229322402204 0.43496791997243806 -0.12586886948138323
Ni 4.844233603315182 5.581597498148765 7.810223407468814 0.2733072376034261 1.040184521093215 -0.9155518380117782
Ni 8.630377973074456 2.3795305974650547 10.218437850348977 0.1356061513738052 0.19728923020589892 0.22254311967668125
Ni 9.056148056018621 3.670331228839214 0.9274256367622717 0.6189046401308309 -0.9653085977199309 -1.4992375070393147
Ni 0.3041405364633656 7.375432148469181 12.417565157680508 -0.22302622996068683 0.453217095990613 0.14753684137312012
Ni 0.8290056175458955 1.1058067488992611 6.194899531448876 0.025886123738142513 -1.2115179506653007 -0.16932668355470193
P 0.09082144860003137 3.033239407103323 12.302623787902201 0.13123990398530946 -0.38882510286778843 -0.3722648845162621
P 3.817263288996489 7.510970490856093 -0.35616081253694754 1.1124970546146968 0.2103920861364441 1.0733401819095774
P 5.158558596946164 6.702448736371928 3.5560225368515432 0.41186347274449064 0.29068172432613165 0.9504157397684987
P 6.650372365319815 3.3056311053082714 9.750719758541786 -0.41444845986284745 0.6557966280611739 -0.08381770594760404
P 1.4112760926409298 5.058387678727788 10.185826436846927 -0.7479161690062538 0.258974880141154 0.2883548759651679
P 7.588105684284508 8.378024136872432 6.8844236054941135 0.3991866486077706 0.342860463212216 -0.02675078573128296
P 6.269202388256411 8.574706005857523 10.415896772725187 1.7431578068401914 -0.06873072970749453 0.1953868709768635
P 0.38986561832543465 0.2517331130789424 0.011622695633544917 1.3960406252341506 -0.4471935155043524 -1.8435886958644445
Ni 4.001346777557532 7.762266798774347 2.1004176173243856 -0.82568355499472 -0.21755775064694788 -1.1999968373995784
Ni 1.1337438873870445 5.767713280194271 7.013469643808486 -0.7534831215710701 0.07758483766401476 -0.46539589744499205
Ni 6.877143212952712 3.649805984235944 7.485912588069601 -1.060399305478193 0.9736394861831297 0.16193784728979854
Ni 3.908311876280078 8.60143848169162 8.573974931957004 -2.7308005492809486 -0.08331042729388233 -1.1928921080339974
Ni 7.773899609895824 1.8393175624206712 13.328841877754698 -0.1804546751470634 -0.8746574137902615 -1.2596996525768498
Ni 5.083694790353325 1.9633150526673044 3.9493117880469586 0.09395248038876078 0.0732440441968158 -0.15735871255954834
Ni 5.399785396423299 3.9929693143704448 11.93334594628725 -1.3113919387448187 -0.8018789963759545 -0.22857852723748376
Ni 3.9066750064147637 8.810911844961277 4.265264455645136 0.7224797312110202 1.5472235480002903 -0.5452703024741319
Ni 2.150230877849229 4.87558242000539 4.881961614531057 -0.022745264116315663 -1.5789175366694612 1.483582317000561
Ni 2.909517793800282 1.389822062327566 7.585738660108486 0.27135397053179716 -1.1929101057561262 -1.1619630225553084
Ni 6.77071908401291 2.2912499755155085 1.8206158644145471 0.6303288228073725 -0.16980696562523012 1.8386573200010978
Ni 1.0133695809995908 4.994439403203087 12.455048558006398 -0.21899911107916475 -0.20861725362420847 -0.4645006393242323
Ni 2.98875884789812 3.2929591576992636 3.2699077998825 0.5072285172100619 -2.0560438351775043 -0.0030238744279883403
Ni 6.59625450488512 4.53959189040429 0.7909171271237264 0.7703341316901378 -0.12315069921927178 -1.12309231363204
Ni 8.155198329532904 0.2795175996579381 9.074425823121425 -0.22151853506690883 -0.3457496118345529 -1.6947927852732425
Ni 1.4912896021808257 1.3236483794578857 11.965715507668751 -0.04974364708203046 -1.9832983278836613 0.9266073244949913
Ni 4.519195388374697 5.19183855224152 4.985058667531135 -0.1754248260326398 -0.17747450947281693 1.2263994957628233
Ni 2.4702573283144527 7.087214309600152 4.645673012344225 -1.0960934164456928 0.7535533126873732 0.06569194288117074
Ni 4.383077704406241 3.289713005662994 8.046929503430283 0.9278255131728086 -2.3769344789868483 -2.4828708712103627
Ni 8.223100841249098 7.077613791963139 8.567514813527884 0.9042778077598554 -0.8482632400674487 -0.3535117722784751
Ni 7.74526358315094 1.860403756809245 5.113754342127145 0.4928714771574415 -0.10141613575565761 -1.6967306257259036
Ni 7.844965510565209 7.176947883452618 3.2891548146471252 -0.5334635396471911 1.0459936715758242 0.25377790932124683
Ni 9.24068214358753 5.593110762594685 4.4343383992951315 -1.3042404153017022 -1.0258110259803623 -0.3033642048898066
Ni 2.9644356973713957 3.264488657120535 12.885309917592247 0.9627536925085611 0.15412272212075392 -0.7219729667779308
P 7.7777159076155185 6.3043766985644325 13.028003588306133 -0.09952020428452536 -0.4602950858833169 1.209219384439111
P 4.154366522270078 6.73653793070182 9.691634273942805 1.6612018366916745 -0.5917440205556389 1.167556457482686
P 7.741870296744755 4.189264955634509 2.5619174428230047 -1.2829380542795001 0.13181325999027624 1.7824720310587818
P 0.4984700947094277 8.119223976088465 10.06025276966257 0.920402224125544 -0.39480523171062326 -0.027142107632430672
P 3.5148469834305756 1.7171132723073883 9.612629554426645 0.27452002696460465 0.7489695499714327 0.7487764601240201
P 2.2665038136752766 4.382811023360769 1.1831322974187557 -0.9468935855478532 -1.104355142233853 -0.3781966766196648
P 3.2397792788727817 0.9944720103635161 2.4618357248163907 1.832880822528637 -0.0586751452437054 0.8180422363993783
P 5.332002431382663 2.591781121966875 6.046512680209057 0.7341417409299807 0.19847270899103883 -0.20814365642189958
Ni 6.739830062228689 8.900617831119384 4.964291570807316 -0.14952096168268442 -0.46375090564240135 -0.5724522622055624
Ni 5.645196329544917 0.11798061410688442 1.3423059371530353 -0.27545128052962237 1.1239186661880773 1.2578700555672788
Ni 8.363044018835367 0.1274818160442043 11.315074449643229 -0.13422958274125268 -0.007713309483857683 1.8928741723631337
Ni 3.6770534303647464 4.359747710876449 9.725241603211222 -0.9185975668166373 1.6653431125535578 2.4010619681626713
Ni 0.12572723868295707 3.473529813178564 6.072676849539354 0.12205592349319623 0.5549412499049927 0.2152761537016228
Ni 1.8050260583321445 3.1357368875459937 10.8023893356203 0.8435586355029279 0.37417624260636206 -1.2992645593536656
Ni 7.445808356779584 6.592447403063546 10.918945505108434 2.678709485012664 3.234087565344759 -0.47764437579504193
Ni 4.538984961128388 7.380259994982047 6.220418148731167 -0.5505894006942001 -0.70017309729402 -0.48860318879939074
Ni 1.980318268290712 6.498456128381639 0.6473857100911322 0.5279456951527554 0.21369801058122548 0.09147445116191343
Ni 6.7922834651037105 4.111081429820442 4.87092469760774 0.25450038930956814 -0.33915550355680296 -0.10727130898485397
Ni 8.581612125345451 4.549155624448825 8.966469657554873 0.8270341554853434 0.285268009509728 0.7350866213417534
Ni 0.7751323680011851 -0.10639562165563045 3.966592719793582 0.36485830763954585 0.6222851265672895 -0.7743455668423761
Ni 9.140667555637192 7.497884727831697 5.378549308895373 -0.5179613302465338 1.829791642080352 2.673058200264158
Ni 4.564246093263325 2.7886744966087216 1.3263124311431755 -0.7204745278555333 -0.8854994987110878 0.24994670850061468
Ni 4.233736318941593 -0.1606753298972336 10.776749332482828 0.31430064929665225 1.3771162775258219 1.0260159429023168
Ni 7.652007980318613 4.3920988804617105 11.65242689175586 1.1361720296341338 -0.7269058853031739 0.08961734334851663
Ni 2.243210603737964 6.504810493982381 8.945931538694236 -0.3169691972677509 0.5937463956976484 -0.03140293979131366
Ni 5.614960216527197 1.0663471500674382 9.044936417031028 -0.567308513221094 0.7258409343737693 0.16393610866674993
Ni 1.8908237877893594 2.171482598403958 1.2546184506322127 -0.057886845014455145 0.4611031836069091 -0.16186405662906964
Ni 0.6770903001975306 3.940442344310465 3.0338481755588504 0.6910863045014033 -0.71979601373127 0.29466487734359575
Ni 4.294006235218396 5.076549577514284 0.6182218387941749 -0.42113461363377147 1.1747038671607446 -0.14392315587993276
Ni 6.8159629027620525 6.339551008872456 5.846482584718566 -0.9046002240962808 1.4104670850721257 -0.7971749060320658
Ni 6.429431717094837 1.7138395325767595 11.228868422309496 -0.03026368398054788 -0.3865720451675536 0.29785304526359024
Ni 3.0088702770860007 5.487928079901049 2.8373722946916398 0.19057145186609115 2.4479316361310164 -0.38556648672117466
P 7.336441540441465 0.10707427893686759 2.825527977913409 -0.02507982578676326 0.6319218783261051 -0.33028776875352794
P 0.9118266347817494 2.2174069136139614 4.316705390137174 -0.17551712863612998 -0.4163199658539476 -0.19538224299117318
P 5.139311582181539 1.9059602360944587 12.90944179343808 0.5957914511521353 0.5854805561444304 0.10176683422685699
P 3.1267524950830037 4.839516107579753 6.888408188149398 -0.8308280753101368 -0.5451314629034225 -0.6206059390926537
P 9.20113978167263 2.041250289232138 7.968529874010402 -0.8512845433922758 0.16143879616619292 0.4638336951641947
P 2.707327581841463 8.764463363558448 6.18434723835647 0.31973313316613317 0.022116886503697395 0.14776207001004873
P 1.0325522244773775 7.0761516441621 2.822513562509757 0.32398162402984204 0.025746512836484693 0.2523319209033396
P 8.177893806092435 5.271208348913032 6.917843338440888 1.1981009059284464 -0.12621442574626004 -0.20764666218082303
