# total energy = -340872.3126935633 ev
CRYSTAL
PRIMVEC
9.20985325366214 0.00000000000000 0.00000000000000

0.00000000000000 9.20985325366214 0.00000000000000

0.00000000000000 0.00000000000000 13.47955118296963

PRIMCOORD
 96 1
Ni 7.540088273889231 8.849001799479145 11.85825773620333 0.27896520722015183 -0.027651700278997538 0.7688279794582565
Ni 8.968057569881132 9.41615376026856 8.867374535332392 -2.9904169196608437 -0.6432594148261116 1.3657622859655831
Ni 2.75676689432088 2.6505404492201974 9.28712740295258 0.1333510367910413 -0.42122794467852614 0.13630831964715237
Ni 2.460697748261262 2.5858136019714033 5.399436603122918 -0.701722701169327 -1.161174465215742 -0.9415210083820301
Ni 1.9589449539934303 0.2104552730744062 9.227129815245938 2.3323579779280545 0.2889115197995863 0.18404907736654108
Ni 5.293132795256601 4.974425830395398 12.569479428283707 3.2080379194455593 1.938820814296577 -1.112111132030188
Ni 3.3084555118361454 5.530673325171357 13.017525885464657 -3.5758591663681707 0.04064811253866548 1.159448483663571
Ni 6.95367851036828 6.148193972301645 2.574850192898414 -0.24325438408210365 0.43431254577662615 0.14269416856883813
Ni 8.829817675572025 3.738979302600537 1.5655423969400502 -1.559668458631862 0.1760820000006645 0.35445896668309274
Ni 6.991761252737911 6.770347175517042 0.12812287073158848 0.047772639398588695 0.2200769175243758 -0.8181671920130167
Ni 4.832815129869293 3.4201894490618674 10.680252140907902 -0.47105026751729195 -0.6719102457935848 -0.58742713834784
Ni 6.612352146411597 2.2555759010892142 1.3956998128686333 0.08576428815101358 -0.8033954330204809 0.2955927884745039
Ni 1.2683349130432167 2.2162037792923166 -0.04394757679308442 -0.13564240392837928 0.1454233945745431 0.5407551882125977
Ni 1.5647079842535474 6.888656947821826 11.970717409849541 1.0680545080306056 1.4080577042996845 0.16884640148417374
Ni 9.313095504617733 1.5153615916014358 2.020005358742261 -1.4377758001894074 -0.30044574569143095 -0.7276090820177856
Ni 4.007787283626514 6.749551327325839 8.601261357309403 -0.8305619661329439 0.0951416156008555 -0.3392058971787642
Ni 6.372103919699581 5.298971842091508 9.625113353207336 -0.1882212064663597 0.07669909262495178 0.10325190341281572
Ni 6.4845930648755585 2.739139235579532 5.613437669622308 2.034004853099594 0.25845448886130973 -1.1271070912183878
Ni 0.21253393690822137 6.358104943060683 3.7820924667071187 -0.7680458498765934 -0.40253988135071966 -0.18111519154919775
Ni 3.6691501967609867 2.0865290483214824 1.137384617424693 -0.8003674448274344 0.48332342845769016 0.758059685198159
Ni 4.264677714803324 -0.08877837849384662 1.3716252569909515 1.9645519005140941 -0.5844042923611161 -1.327270300537972
Ni 4.446609151990673 1.1234455048306335 12.478828686664409 0.5410053565501908 0.35615280944574795 0.1867363943907171
Ni 0.42404373815707075 1.6634099794108228 10.888336797806746 -0.27136682604760365 0.17424623234350636 0.8507636378917993
Ni 1.748987933969132 4.6913057377267595 8.439735270543856 0.5734115407950383 1.520613915832562 0.13237813135481072
P 2.2005286093979732 6.8509610192803745 7.346881213610434 0.5603331103445253 -0.13198629523303076 -0.8339625071740605
P 4.355385557511545 4.571015847015817 8.755884659212546 -1.1098529321236306 -0.06807381284978599 1.2063364064643611
P 1.5732270983265606 4.591111746375075 5.015363627211119 1.4753455309130656 -1.0662606493549764 -2.08823430386712
P 1.690790872534139 4.109666678086696 1.3129161277262724 0.9105122187053416 0.2229583528372289 -0.20663596152812153
P 7.900654020871346 6.964592186234789 6.148804585558986 -2.063911153740723 2.0333224823205884 -0.2902544069807259
P 6.825698392358996 0.2608138285769223 8.14515351575212 -0.7384102863983477 -0.7545640133400747 -0.08094192706170575
P 5.0776498634011595 6.498352585335106 4.2729094814611175 0.3508105712972281 -1.0701892949854215 -1.9372233879024698
P 1.2069696621583679 5.032549213005976 11.020503715013426 0.4659301726819073 -0.3953593044418804 0.34603551850608794
Ni 6.961304268695259 5.12824879606833 5.164798097904818 -0.009033828067494119 1.378404657319942 -0.38635658672263784
Ni 2.679947510014933 6.754045735615168 5.088193303174981 -1.9661051039338269 -0.39746169549686383 0.6138845612084203
Ni 7.463471506350426 2.3606787441175645 8.370747024287946 1.612003777700469 1.171981068912943 0.17081586650571873
Ni 8.559213773200927 6.197181180684733 11.791991922509562 -0.8594449677158811 0.5260037409350361 -1.1746141356604156
Ni 9.019236723290573 4.294057146038903 9.655833739047274 -1.567195620246843 -2.041009309441885 0.968713766746738
Ni 0.4274071764916268 8.120134028951314 7.240176777136358 -0.21963880154569268 -2.046147916220031 -1.5335133975030493
Ni 4.711245069584136 4.235408801804367 1.6409600416114971 0.35078408893466684 -1.1194639728508333 -0.5020757693645288
Ni 2.3455377457002307 3.18394750842743 11.620032914206817 0.15274641059851757 0.594143374025751 -0.09805338993101177
Ni 3.294097350928224 0.8159266694568863 3.620823334841721 0.11940305925138146 0.7082368481387609 0.3709518221317934
Ni 0.5334779750757319 1.4500176841981638 4.161730898374425 2.4149911766492536 -0.9302534058880109 1.4228292061819046
Ni 3.3610714023216834 5.411064963586255 10.582728085955965 -0.3656278388157187 -0.024599800826551183 -0.06886108463777173
Ni 8.45340177148758 3.885148880387335 12.363201744553647 0.9651396762422346 -0.5348017988426402 -0.3033760319643485
Ni 8.84361403544378 8.55763888832905 4.75272808970053 0.9164602087586603 -0.199414761189334 0.9122248305210742
Ni 6.789282633391761 7.983247983040838 4.1973702667293855 -1.3683655279163855 -1.1904253916610597 -0.014122041223678904
Ni 6.635542556396296 3.9049869038611402 3.102925668173898 0.0701908591927888 -1.1615907268175543 0.4975043479437626
Ni 4.740375834787314 1.4663467536591928 5.523811984647686 -1.8905113285579116 -0.38480929684017595 0.27793316641121163
Ni 7.039661698460874 8.698089147370615 1.7327288593912973 1.1141271340189522 -0.46009479694705274 -0.08384315986890077
Ni 0.2760110070978722 9.005670609745115 0.2861657910729036 -1.2605501735026032 -0.7490592814717615 -0.9249762166494714
Ni 0.42576690166308234 5.539551623513394 0.2649914179212668 0.5753509239095962 0.7110306088338141 -0.003905505701993274
Ni 4.512284614103813 9.098146744239303 7.455189085500847 -0.3544399405196993 -1.1389776174037287 -0.251580901669928
Ni 4.325186449354345 7.693506006027879 11.802317088766053 0.13609980318077206 0.023536392559043336 0.5122100295850534
Ni 6.3825755226195975 1.1849673232173648 10.30825696628837 -0.21879290860562964 1.4170953890219207 0.44103135255769854
Ni 3.319037632992785 5.4153567551084425 3.1395891721882303 -0.31295699078456424 -0.18589410099507986 -0.18613527047160847
Ni 1.6944563940487976 6.689235999688907 2.0275399395240252 0.23779773184290656 0.9310355354696739 -1.3358945518718734
P 6.779096535916353 4.624727710014532 0.7871071972868624 0.4305942163847746 -0.30043417572720515 0.32494527349469193
P 7.6748376338916655 1.6096520671468484 3.939493460290716 -1.4399542958979652 -0.8795083141246595 -0.532985828679824
P 8.704038712442147 7.063892821840438 1.6040662912708674 0.5867373113696669 0.5559524647783265 0.158687715783617
P 2.8951633561318695 7.766125697342157 0.3132271022953186 -0.49650470303465455 -0.733768416750962 -0.6908510485621457
P 0.39975735565919496 2.1181280541425713 8.773529816674692 2.1564225308075833 2.5190591482054616 -0.7570803520040252
P 4.1344135532371675 0.5925711552126754 10.447352455946 -1.2712462197638688 0.06615731255336348 -0.5743237681966625
P 4.102215906967705 3.302929600005002 12.9656698078559 -0.6272255012917005 -0.15472461737081095 -0.4815524526001964
P 3.0518229565447883 1.6409195182580687 7.426842078792386 0.7434889864728357 -0.5485111780089328 -0.6729893377903764
Ni 4.657358219377434 5.857153406008368 6.1915217259843365 -0.5901735907447255 1.5287866814513413 1.5917033755802201
Ni 3.6827623595717034 7.7410380576287645 3.0157663818465767 -0.5798380131466724 -0.43159874638988893 0.32322571970042396
Ni 2.1692887878459084 0.15826211484395047 6.161623780021934 1.1116534756674792 -0.8448207900448031 -0.7100301925937578
Ni 9.256915401001107 0.9962758538899172 6.567547132299381 -0.8423023944983236 1.9266368706358752 0.038446734011972496
Ni 6.360582393531646 2.8901716157777364 12.576057105333378 -0.013311629507241593 -1.8672428449482745 0.00791256997885734
Ni 3.4645348915067937 3.763136747155686 6.944543257126095 -0.2581639542040844 0.4825803796440786 0.6785928000200829
Ni 8.453355722222321 5.885427654877719 8.174566102458689 -1.0079560000768126 0.05231912111869054 -0.9200535825368735
Ni 5.47873896381166 8.396632237275632 9.561113163364338 -0.30445923772619826 -1.011389965459026 0.6991513408977249
Ni 5.267603082596718 1.9964382657677389 8.084508475375932 -1.8323280353489606 -0.22712482551009272 0.08890746176568559
Ni 5.694304784344568 4.100419985622582 7.206855528794562 1.7927320182238933 1.2267990451940873 0.8360738970901085
Ni 4.43200232505035 8.273901735505936 5.177063780199346 0.8030727595737396 1.5306479030297961 0.992170969328414
Ni 2.4326997949834683 3.1222783323918684 3.1263389566024533 -0.8140282301439787 0.5279837474795422 -0.4345586003491612
Ni 4.807939316776096 6.4132627529885475 1.118625067743266 -0.3242307639261706 2.19728970133559 0.35794718234200934
Ni 1.1219074593709653 7.072089591056634 9.187068796440759 0.4250491181968292 -0.5103542073232371 2.1821389617370803
Ni 5.686789544254213 0.7221114223289523 3.102048890163357 0.5424071219937239 0.3187013494675092 1.7012367411263736
Ni 4.575998377516898 4.113175632099472 4.634782106591298 0.3516343527501041 -0.6761353396185259 0.5353797828332973
Ni 2.159369776109006 0.08755531000855352 11.954784364069745 0.9230252635706878 0.5289841637195986 0.4554236167236285
Ni 0.40073820500922297 5.86847231540916 6.131834510325544 1.3975596329818383 -0.5792965388209056 0.9059572523448074
Ni 6.953936386253734 0.46117970763296556 5.898126200265686 -0.5809872962597671 -0.6145026544083934 0.42130404933210025
Ni 0.6075519021869056 3.4025433706144157 6.699350260310511 -0.0753520916787541 -0.22931797650666957 0.7317719551462236
Ni 8.746413246333965 3.4251811894160005 4.316866268107254 -0.0705317874719753 2.6368323851629043 0.3866754035146373
Ni 6.2624237797044335 7.098328462401514 7.779156718425298 0.9948462021677319 -0.14300732893388274 -1.319409923953289
Ni 2.061588766256921 0.34557579015483275 1.6107655383808235 -0.3902950025450956 -0.8762412133376135 0.4058918285420881
Ni 7.804134760887372 7.4687487521491684 9.820661558131928 1.0751198995178195 0.5434162799845287 -1.3068585696508395
P 7.000980315642869 3.3340404836143396 10.529780640760558 1.2360455034930198 0.3116603834603277 -0.17571458935891676
P 1.6178396265099924 8.786586625346379 3.980834648670111 0.553624330865782 -1.705875268339649 -0.48601280236439526
P 6.439234538594922 6.9253397925275655 11.242160932354865 -1.5503821482339302 -0.6931277604114644 1.272616360638518
P 7.794703871362221 4.008220146719953 6.869260076309207 0.7699615788420674 0.7280050319046236 0.05589501139540696
P 4.578475827987861 2.5847913082826417 3.1455479471128136 0.513752948592141 0.22574568577437898 0.02371945510412689
P 5.9037000033327 8.970673168147872 13.44733499163222 0.37976299266552016 -0.11527335335372406 -0.727929698581998
P 0.4048227748377432 8.5820449989166 10.943305805747046 -0.31816810267185847 -0.4830735172304132 -0.4292245897307575
P 8.29948670728413 1.8522948556523602 13.483999416631857 0.18343535504194214 -0.5504947840978649 -0.37851009409502556
