# total energy = -340864.76529216056 ev
CRYSTAL
PRIMVEC
9.34480328013332 0.00000000000000 0.00000000000000
0.00000000000000 9.34480328013332 0.00000000000000
0.00000000000000 0.00000000000000 13.67706418766958
PRIMCOORD
 96 1
Ni 4.9668283645982445 1.06726063945047 10.15132242889203 1.2285893043252905 1.1646680801912974 -1.2254772410588701
Ni 0.774316942336537 3.4437936340698583 10.709004403336401 -1.0507471271004096 -0.6865020275648306 -1.5828099297453322
Ni 6.729547954824773 1.8827162093299574 13.069351264169551 -0.6622945770806916 -0.0804387621730421 -0.8912525991447812
Ni 5.087095982997211 9.132629535603561 0.6271559145366083 0.35134407520319494 0.4368016307470671 1.2549467112728967
Ni 3.4072461083854484 8.408351211467563 6.23403321877675 -0.8814420408122627 0.5914056633796139 1.078998408636619
Ni 3.7942891712330313 1.7612244216994242 8.247748618608965 -0.4211610959963327 -0.09928186302147418 -0.9818888706761154
Ni 4.5210251786354565 6.749349593005614 5.17062824516555 -0.4205895397635789 -2.4579777075131086 -1.1137962330420947
Ni 2.801768268531196 0.5733961956642375 10.989220478363357 0.8284372064804572 3.6725313596809395 0.16193861862074693
Ni 0.768019479396439 5.146762552031975 3.611798245617953 0.8651749282211229 0.2829375616043385 0.9952668346449182
Ni 2.7921337763346665 8.792917901442129 8.90357719309379 0.22025869451787874 -1.0523224420073294 -1.0817638871968984
Ni 4.220421546261101 2.727140669422094 13.248247243957275 -0.0450783803958772 -0.11858030623976998 0.003870024478367528
Ni 7.399990867181716 0.6634156202795508 1.2984034144571983 -0.00427240212310877 0.9996420808944784 -0.5279973743262971
Ni 0.977214114905603 2.92833428435059 8.19756702491802 -0.19822845419071666 -1.3401792952901563 0.2675232839317973
Ni 4.9564556329414575 3.6728441076189697 10.984529387109566 -0.17766065734169403 -1.443826377258862 -0.8409883036725904
Ni 3.9133045859905473 5.9402391445630265 7.408933843934459 0.9061917369531167 0.10601352531835291 1.475438347737188
Ni 5.47037309011715 8.317005759264774 10.97298575159999 -1.4960390547066753 -2.092699795837641 0.07655973883361009
Ni 4.707435314752208 2.8555756459003683 3.52516724667719 0.4792523437121101 -0.5167549686432584 -1.7081710063523614
Ni 1.5711417778879733 1.170707611919511 4.381912829912997 -1.1886150779251983 -0.39195850629044754 0.1567987262910203
Ni 0.0888933758183378 2.9351840251653876 2.8059865127382895 1.0223477500221103 -1.0129987047070423 0.6779178854402453
Ni 8.919091435523159 4.508222798122125 1.2473321954926273 -0.08315179022883099 2.757811530652154 0.2956935757184262
Ni 6.490395748914413 6.711204105957861 6.5753988831212915 -0.6566844299827658 -0.33409454409412787 0.6040547196021919
Ni 3.1525815290063783 3.5409608987250607 6.72985446437283 -0.5430082459128326 0.10318376917904164 -0.13651992143732616
Ni 3.862085719133925 1.4616019936709814 5.086254016220386 -0.2084550170147313 -0.4568719191343809 1.7217258622186609
Ni 1.9087601761114585 2.277478079698717 12.555695461486103 -1.0520877002887041 -0.5133719111036386 0.9233697913943001
P 6.708045562444352 8.116699900649246 2.1690456546721117 -0.0550419193664923 -0.47020925967323535 0.6661823421708719
P 6.104913268216995 1.809873467650086 4.944108344348564 -1.159338183337952 -0.006427500792898608 0.7764122195634177
P 4.610408222146421 5.160396620038508 12.761562412542132 -0.924107183780957 -0.7389592169232823 2.1119815268853883
P 2.3972971475395517 8.066163204433115 11.189767432903881 -1.3702650589319434 -4.067307023705208 0.11611950340410324
P 8.401015540881458 1.6208935106273745 8.688218725331637 1.1500858115017485 0.5191424950388285 0.9473368437328588
P 4.880314175698662 9.012614226893543 7.642661391532419 1.3873826924488364 0.4602117821408913 1.4188367971930596
P 8.784507578477168 0.7849064734297545 12.694654555434536 0.28536853964333436 1.2961545529697742 0.9134250214767624
P 1.8082755062867433 7.125599408048161 7.605213961290759 -0.12492604595213969 1.352713166091109 0.5066993841794692
Ni 8.546962678733443 8.858424972535895 3.7147863882452388 -0.022429275537793628 1.2695932575414781 -0.6227996043098629
Ni 7.429567169608501 8.979402795985235 8.790687296895756 -1.3217989930107559 -0.4904106743217748 -0.3268643448942758
Ni 5.586547684673167 8.696040325689054 5.161368479581126 1.2608684760739706 2.4490873470020147 1.4054261802141086
Ni 2.952584048899566 0.07797677660981624 13.395357809819414 -0.871615541640144 1.2274611042581183 -0.21130971285470704
Ni 5.602003989322109 4.986863622861445 3.657465364837371 0.8231476759467435 0.9100095680373103 0.44085677465304723
Ni 8.452159649311724 6.553314309495628 2.8153004781818214 0.49958514173219126 0.777700342247222 -1.5160826036211117
Ni 7.555301497934693 3.48760207191402 5.193550113166391 0.024435507334545012 0.9809753577229104 -0.45185723952860885
Ni 9.180017033109479 7.1564372589196905 5.286376716691343 0.2656610339120779 -2.6636137670218063 0.8382480219232918
Ni 7.041028938233814 4.452462356864422 13.0911115731209 0.09183312005291282 0.17049345016929346 -0.32265981989462494
Ni 1.1834913028262544 6.429336804188783 1.4117736335445659 -1.2708415281262821 0.7153801440517614 -0.3503032926435064
Ni 3.8202957588013544 8.754034174934118 3.736040208858029 -1.6787670992689474 -0.3614366835525065 -0.663703027392444
Ni 7.2113192886677195 3.9125196225138175 8.470369867491527 0.7350611674204566 0.7275594597267728 0.2421197562570282
Ni 5.5985931361196535 3.352345389030831 6.897986165245729 -1.1153309245190663 1.0157402720079216 -1.3766195403950616
Ni 5.780639249097917 6.851245328127783 8.844574105092931 0.8168667280340383 1.26571860507742 0.11848003321647982
Ni 8.751445664421569 8.31542648750802 1.2175073212982106 1.6539479833427386 -2.3570158856860504 -0.34967208681741074
Ni 1.591083588118229 8.255825332096318 4.821452194227547 1.4014332570046315 0.134180217560556 -0.4558308794643763
Ni 5.214017101341793 4.357070604835156 1.2126601718294039 -0.746760715245572 -1.2622581573326455 0.07011295476700183
Ni 8.173815338384637 1.5486488363583453 6.444578178361955 -0.37989309048548126 -0.2371297592416045 0.3457987199049335
Ni 2.9068692711833464 1.2711362129244599 2.154492992501738 0.9014421380832732 0.1884091541074497 -0.15797654864920535
Ni 7.313934573643558 2.4890257366774113 10.526825594151356 0.14842207219155085 -0.20518740200705307 -0.09169325204093887
Ni 1.7070806314116533 6.604935002893909 12.581941276018764 0.9788230872665982 1.1119614938262012 0.6800357031141966
Ni 8.967123724456389 2.5266011907242056 0.41981341904039504 -0.026825090612644126 -1.4387247943662382 -2.1396995616259473
Ni 2.1779372350067363 3.2139488522407227 3.6339958913634782 2.331021518504818 1.0553067214466343 -0.39629878553701425
Ni 2.274170019332498 5.905177442602426 5.892161066093652 -1.5264379787135067 -0.5561211291457067 -1.6655439157104541
P 7.778474090211626 8.679481334251372 5.876692613200427 -0.2846478594272259 -0.20526684909473683 0.8638541525271705
P 1.2391115720345407 8.45699091261493 2.7252231157860822 0.5913323869395171 0.3230871372400307 -1.4346737642253162
P 5.066322485273754 4.833749020882652 8.964016577361 0.10753304728667287 -0.7459446471021799 -0.1053463240479992
P 1.7355635918529937 2.9897109523882293 1.0459918671524089 -0.2743613898995533 -1.1779583695423004 0.5412614384250549
P 5.30508220944575 1.9391307868182681 1.3385440170083063 -0.12186617607989336 0.8998267139670374 0.5174867046029604
P 8.596424722570719 1.6762240909335349 4.288881575195898 1.3204887588397647 -0.3498944872408619 -0.10197483647260502
P 8.140127322508315 4.428679832480166 11.132460426700954 -0.03873624022793329 -0.18309211276991047 -0.19918361901513437
P 8.472942491838477 6.316601097245106 0.08776639254103279 0.41633770646576035 0.367987854407463 -0.3545368711088797
Ni 8.935884047043201 8.071517776720809 12.212510363940144 2.982633676170999 -2.425239336739823 -0.35796106629908025
Ni 3.1932127337304426 7.68299823495271 1.5201098070972385 -0.13303581954346766 0.6393245985480795 0.8149211742718933
Ni 8.523656739317202 7.05235483982663 7.617290250588116 -0.037938426916986276 -0.36945698275382177 1.0852513315248664
Ni 3.826332501729539 6.668610492541972 10.183435845413246 -1.5093396284703233 -0.1252032108729263 0.12151599182932621
Ni 6.347756671428646 1.6602444773001055 8.053629954254662 -1.0389190241172301 -1.3158234921536114 0.8481287713721136
Ni 7.305636388318129 2.837278521049927 2.0933845203186485 -2.915012120367283 0.5308322726719309 -0.025775052081574965
Ni 2.6091812174368454 4.322775176744697 11.685191524359949 1.8043937708325375 1.1877496446011093 0.6187395753078763
Ni 2.7186742776373647 4.4367070185100586 9.319319081338815 0.5303126527230351 0.8978983865960729 -1.1942509360547366
Ni 0.7523089960978886 5.354020944298538 8.236177883169836 -0.14177139964425262 -0.5971032279850232 -0.7231407618337868
Ni 0.4190378003669596 4.723087860270332 12.663484029565724 -1.013529637509848 -0.8101978006542949 1.292848885635309
Ni 5.83578293333819 0.5888870760853693 3.036787267944443 -0.5352010911635879 0.25514650753399926 0.6505793455262925
Ni 0.8973814603615183 0.6890942052522407 0.9977240891761585 0.7207799749110941 -0.03317648675196867 -0.17255830311812217
Ni 0.17936041651145307 8.448197452714899 9.508691520099891 1.0647832934785018 -1.7585252904351973 0.6704416316678582
Ni 5.758136962764995 5.778256324257844 11.204046292337727 2.3158756640023146 1.747659294254971 -1.0169700306499647
Ni 4.021704304205622 7.502148256796128 12.988806535614435 1.0936272142933876 -2.424013177642206 -1.5059671124536644
Ni 6.964055793497817 7.9795836019104724 13.290372682728114 -1.1727886524159026 0.5969106523582429 -0.5405165898392303
Ni 6.310713871169632 6.340383621629361 0.9916135223019484 0.029061436142330595 -0.15017633587849621 0.7190797043905358
Ni 0.5186375173196949 0.9761674969366297 10.734128841473732 -1.2471899501456134 0.8993348619322834 0.272051510819454
Ni 7.363331203857773 9.293210635414582 11.262145737860019 0.22021447154350463 2.6268307938655022 -0.9484665864619279
Ni 7.082501175254374 7.0192835809677385 4.4794707073459055 -2.5563933658795457 -0.3187206327412188 -1.8476559239552826
Ni 0.8252517271730099 3.316592171626445 5.741179882706971 -0.6787858898674956 0.09469321520952724 -0.02126867957078918
Ni 0.6013465023177968 5.900009766380622 10.648606136203686 -0.6545151902455889 0.5208764470107997 -1.2255026949801668
Ni 2.7067409638304123 4.793052402535527 0.44539668701948204 0.6090267188954865 0.11990776680194189 -0.0592238186583238
Ni 0.3432701352559402 9.06831859933148 7.135761881630824 1.2911187903180796 0.4633269307311053 -0.09955414284625436
P 2.1061971801156045 1.4005710833552356 6.779952889314454 -0.3368836768034908 0.3527805505394054 -1.0513798755884023
P 7.507465449870645 7.174248453998823 10.345427076041393 0.589368835455243 1.147951795877881 -0.2638738601046681
P 3.6613967235833265 4.391197826466316 4.793400963698409 0.36862985886683614 0.533857689761816 0.2706129786007146
P 8.499061217046334 5.157742695902898 6.381034450440344 0.263187889781237 0.09234399825106032 0.4622758637587716
P 4.862699221488713 0.73873286587178 12.193389961919465 0.14558254586022668 -0.09095920208839174 1.6426736959805
P 2.890880312746623 5.749418261291318 2.5370813876188785 0.3317157594493061 -0.6341286561694369 -0.07678496747053871
P 7.776408888683562 4.6494414655071425 3.139938944629381 -0.8180183251399783 -0.4714865837237622 1.1035791832997768
P 3.0555544364005924 2.575259581478162 10.180509053021439 -0.26015964447787454 -0.4020943091728688 0.7286704334027644
