# total energy = -381168.73727337195 ev
CRYSTAL
PRIMVEC
9.25224137256739 0.00000000000000 0.00000000000000
0.00000000000000 9.25224137256739 0.00000000000000
0.00000000000000 0.00000000000000 13.54159047964059
PRIMCOORD
 96 1
Ni 8.227287176239548 1.8463402458350164 8.802872802477268 4.449545474494414 3.6477816635400853 -0.5714443897663385
Ni 2.2503671147596465 4.284083749471223 12.216870237718538 -0.5597301866532037 0.7081293760266192 -0.25892860028425085
Ni 1.6368510004793444 0.8902145649706674 2.3145693417028292 -0.20442275592688663 2.5089917366671304 -0.12699784087950386
Ni 7.643276459160871 6.1265565584826955 0.03665923010106186 0.19827499115793595 -1.4252385869543454 -0.4303355634067492
Ni 6.672836635928809 0.7321437248857142 8.945899498363461 -4.090455951017846 -2.182019148329765 0.13836083130080687
Ni 3.479434836385273 -0.19067388764189674 2.9650666640781145 -0.2976311590607713 0.23093108663006034 -0.21736620346143212
Ni 3.752810807259049 -0.024323216902902817 0.555733092284905 -0.5541670907431294 2.0855732120951886 0.3832980024019721
Ni 7.259780313469358 7.22493637309265 6.052386892089744 -0.6806234572968665 -0.7021980981438487 -0.1269872993565426
Ni 1.242418705683936 3.931360558026373 6.073850241236289 1.425076093234552 1.3869129519012695 -0.9686520602708673
Ni 0.7045119065280289 0.48644490835152654 4.591519995891674 -0.273576946325045 0.8907520053592788 -1.2928524851797347
Ni 7.742932349176151 0.8551541221497689 13.68540169053054 1.800359452862164 0.5900427215938161 -0.8351359586568714
Ni 2.967711879838524 0.37021177776987746 11.230961592416422 0.08445868196571261 -0.005842831934022195 0.17335046000211435
Ni 0.40829677824057586 6.149428098740588 1.802142289600406 -0.8654721477465676 -1.1456678849397106 -0.2538095338901306
Ni 8.242951220599018 6.861980202875458 9.849787025386359 -0.7723987275286505 0.10440864272507827 0.5224941851198808
Ni 6.447674093972462 3.245066314430299 7.794403492221735 0.13384854525275014 -0.31377100204542735 -0.32461231563530546
Ni 5.928826911698133 9.184394519895708 6.985673415540415 -1.3704712614054784 -1.6594781691323484 -0.5271152288316598
Ni 7.347408289918593 -0.03388633341202844 4.708992926794746 1.9009363805459778 0.09465979086843052 -1.7554790474097057
Ni 9.204101793661613 9.063948843893582 8.991019903046174 -0.21832985292628204 -0.6928698787643873 -0.42962619604455043
Ni 3.0324313070650466 7.259835826916587 1.3551480125213842 -0.6520492452035996 -0.5889569447288051 1.343393688462396
Ni 2.380111293172445 2.1571692891052128 13.263798338989435 -0.5122226279905436 -1.4413889714619628 -0.6686886535324935
Ni 7.238583428869507 5.4832297230410125 8.093321200165066 -0.2621285952787873 0.11746419035745576 -0.8478071263666367
Ni 3.4616427765487323 7.313239763149824 10.284526708989825 0.717550669340519 -0.19425070048989126 1.2467688034477948
Ni 3.5389545040547823 4.384026458963845 5.323903353824589 -0.058596212376653925 1.799338210686501 -0.9629853489033932
Ni 1.837772670479511 3.8501536369731655 1.3265178773377169 0.5949463295430205 0.6435612623372465 -0.04920731496258622
P 1.2659564073085638 0.12933893024803494 12.984976498942604 0.8016211147288775 0.10413224913524002 -1.2201200905120149
Ni 2.913521503102892 7.421842570409997 12.508380601353426 -1.2367618128337539 -0.08662972147510242 0.5732958411527804
P 5.733993216410625 1.1794664565275013 13.595891808220278 -2.0926763987988735 0.24791990787857304 -0.9542885924603436
Ni 6.232096873904131 0.7811176880301645 2.1072340180995996 0.019257048457399093 -0.9037856986147855 0.6001625836366373
P 0.031279051840558236 3.312015531787142 3.8513638301227333 0.9472224296421816 0.4928506512218351 0.8899847881759511
P 0.7678129651778786 2.6609353182159636 7.850005760965197 0.30668324196071056 0.13725525694145393 0.22046489699141383
P -0.20615658807375709 4.422395503239526 0.6025207508326966 0.5028152186337147 -0.19184131971745025 -1.4081705757284653
Ni 0.918449629454896 8.302581915162984 1.3332072477286785 -0.6547602163768594 -0.27097319015361077 -1.8254397928695592
Ni 2.8567497510711637 3.371951550310861 7.808893427172337 -1.0667920963784143 -0.06451617740551469 -0.47409239677772536
Ni 4.551584547180046 2.645872669534794 6.249145978771938 0.642926714077041 -2.32083300800759 -0.7430950934685266
Ni 1.9238092614415456 7.686225362832854 8.702273183859115 -0.8045593714215951 0.47202291584320644 -1.2120339710697707
Ni 5.609920661856276 3.447292550440321 9.939174778112719 -0.11676896406264406 -0.06498180418802357 1.4395447191643722
Ni 7.244088512386273 3.098381282371787 0.1476232093166631 -0.28817489874387786 0.5376732068531643 -0.3598829659121415
Ni 1.9464772523929368 1.5014999638965285 6.265991534333243 0.05096029309795095 0.6779865338946517 0.30391982028296044
Ni 7.943234119015605 6.792690168493838 3.3745643832270535 -1.0758881451424116 0.7878983658261463 -0.10296496830001622
Ni 4.544506582658489 5.240941282614859 12.03954363323847 -0.42379159164064434 0.6636886292147408 -1.2669769029645535
Ni 4.151832213691964 2.4112080758612717 1.34835409180481 0.21364273186325786 -0.2129361927145365 0.9870215639169904
Ni 5.789728717427434 5.9086477736307925 10.02190091717173 1.0786556805852199 0.1107042459258029 0.767877185509213
Ni 8.38143876695021 5.0155566868695995 4.900227500253645 -0.04050901585763991 -0.08893780078298875 -0.6589981657176069
Ni 4.533588938037003 7.2911361589119155 6.026265039496657 -1.0739037677225312 -0.4127535886589279 0.16487456132061928
Ni 7.0251804854842685 1.6105098697697076 6.168708844186957 0.23479776867431823 1.5362968737854574 -0.3945764035292688
Ni 3.7762744909540396 4.730273081565439 9.42303757728723 -0.2398875244923998 2.216465502933093 0.5267827851929057
Ni 7.474913425959867 8.983833687302523 10.781448855281495 0.18541021938012583 0.10066845895635568 0.5922312446047027
Ni 7.805347968342715 3.7793184783103695 9.947692391365717 0.49547214800508216 0.5926107394313084 -1.4255954560731319
Ni 4.7424305265083495 4.74002494379514 7.316507654743305 0.9977641471454751 1.584966828187335 0.02209580345777485
Ni 8.864535289209774 8.978180567926483 6.457185397930841 -0.14051181620553865 0.5389016799436267 1.3418911357749408
Ni 4.758335129139142 2.940972902757087 12.592568594522772 0.3669594131429487 -1.1961322122378495 -0.6024678347310464
Ni 7.328376429760629 2.475548161198404 3.509519423886311 0.3497533336773074 0.2543114132272136 1.1001914977744665
Ni 1.895987772139165 8.292496972249916 5.945096977856509 1.2607887718759705 -0.158809586073462 -0.258347016749168
Ni 4.442371092000364 1.986715249391957 8.463398820437476 1.1649550153040968 -0.9336536898188114 0.9737191903811295
Ni 0.9290915572884837 7.365006052689836 3.6639883664702944 1.4374315294761115 0.9246406876869238 0.9447359157749019
Ni 6.219930176720017 4.187906702148892 5.336686250272932 -0.03097279423243053 -0.9735183872242332 0.4426516617699409
P 6.711511004164244 7.136447938211383 11.753870508579592 -0.8008150738878144 -0.6135780857115949 -0.0947196975720885
Ni 4.715478747879206 7.092869882137483 8.427418704840836 0.1576983552871542 0.09512747453346843 -1.7435807533102228
P 8.87346370197226 9.20573018811363 2.8287700484441833 -1.1169471199662504 -0.29187420197233604 -0.15238542771467303
Ni 3.8785025040242114 5.356742333532251 2.616587475673838 -0.006951748727484802 -0.5911015018756336 0.04985291896638511
P 4.655949827968491 9.134164102395667 9.141020013128314 -0.4846819993681137 -0.45189143520065395 0.7420499400334639
P 1.9474024765134017 5.69139589790442 10.289509966102647 0.27766294346896053 0.4518119881129702 -0.5491434122762929
P 2.6155068139011353 6.337951765526525 5.070296646732787 -0.3366494493054976 0.19873624706507062 0.09587026623676391
Ni 8.487210388401762 3.315281572932383 6.5949984558982155 -2.4143756545524417 0.27680419501309106 0.3023997840940082
Ni 9.276852166253772 5.14154445535331 10.945748304145418 0.9212848838408134 1.121102794005837 1.6801174426492547
Ni 2.412364606011853 5.62355846539193 7.748999043734039 1.956684067730243 1.3039840763165218 -1.8186572227300872
Ni 7.3752112747385645 4.6827165617735425 2.051821420300834 -0.016032370872514322 0.31661284236959664 1.2153576361263652
Ni 8.53955956913767 8.090909140883014 12.625582441589202 1.5324785284806317 0.3639319391705345 -0.6383599206419651
Ni 6.915976282545792 4.666247572429266 11.880402308846138 -0.36067743678897884 -0.1087142120789676 -0.14260572262008991
Ni 8.890284276482314 2.639738433616112 1.8416835928367161 1.152194373204319 -1.0513186833331636 -0.6555806553956258
Ni 5.735547592933007 6.232716774064842 4.343031628634285 -0.03329630015928459 -0.30408411377496664 -0.5642453009147379
Ni 5.211056543523841 1.2128207860702624 10.801110793065494 -0.51059177725534 -0.30491046633100394 0.30543240027274493
Ni 5.1554413216426935 2.0963820643906663 3.8658528398492145 -1.7635726230511175 -0.8215165681012239 1.0127606205543074
Ni 5.2651358933650165 8.764981173847746 4.24523451387702 0.162806623047997 -0.3704147186814008 1.2169329510332847
Ni 3.313801214339639 9.220746575588777 7.476745369718387 1.2916098710218853 -0.1996821559181077 -0.48459741007410734
Ni 3.383960959394496 2.9491981451880207 10.603133186216649 -0.7951969563700886 -1.7930986575346926 0.6840445671632734
Ni 0.7633043480388529 1.0768868582915532 10.813555982709868 -1.2250751205244448 -0.0032637583529363146 1.7535656324370767
Ni 1.5434033643123855 4.9835809412663306 3.4794440886264777 -0.09656986340694981 1.1138322284863529 1.1628084012747393
Ni 5.433323133983134 4.6423490333976565 0.5581636560493665 -0.2641289135382677 -0.9619077995684983 1.455145658926423
Ni 2.091876222924002 1.368767311574628 8.919534311826693 0.09233705627252485 -0.9836498192312801 0.19270752437248745
Ni 5.277228572619494 6.8568082000420585 0.27667624531147433 0.2944447909129897 0.941786603338591 1.2095520851881814
Ni 2.161008969205142 2.886319913961223 4.096209590017852 0.23010447696370692 -2.441536017017318 -0.607225918241322
Ni 0.9460601676578108 8.022016952873194 10.872312340479995 0.6700719070332652 -1.365167589804378 1.0114473010595226
Ni 0.8804478991550395 6.350460795635211 13.058006289219144 0.01847337621383915 -0.9230646014490556 -0.1512284312920944
Ni 0.4756493933139416 6.535958979547226 6.091399892353269 0.03583706430326731 -1.07180189088818 0.38695385398700455
Ni 4.858277838631764 8.505705618569857 12.306651210696094 2.7469097961379854 0.8920684101778573 -2.2478558443189156
Ni -0.03205624010174878 3.035188474944032 12.020273990481545 0.3415574281300763 0.5212042626638638 2.5720094751502476
Ni 7.311019225260707 2.0839933134176407 11.456280497249129 -1.067127625340962 -0.8344489598921758 -0.25174210983814066
P 3.695391398342995 0.8340904698232641 5.090351804767985 -0.7524616222850912 -0.08771189879568765 0.16303699389124826
Ni 7.537310540644023 8.08681965027056 1.0381995369184323 -1.0019463035476228 -0.11820415384727383 3.8494553959669253
P 3.238996844200049 5.500614684264549 0.22447324998660148 -0.03412702359069607 -0.7632967652273822 0.32831778951135066
Ni 0.48061044504787465 5.0504283839699236 8.476805317943015 -2.1141188849433656 -0.16296577433368065 0.22964167839467547
P 8.618453429889714 7.317782613581305 7.831074750236363 0.008070692823276424 -0.8050900471140844 -0.5625684274329472
P 5.822333615432618 7.50847130480913 2.5958957634437603 0.1973223974366795 -0.013668241515711943 -1.4570148509246779
P 5.435395636012975 3.815429975732116 2.7349810045767726 0.3833332265152818 0.6204820119202799 -0.43609637714992633
Ni 0.9537950413048977 3.195983174839634 10.031000496396501 1.0205832019225198 0.6629214120314132 -1.2058815783151298
