# total energy = -340897.7083163423 ev
CRYSTAL
PRIMVEC
9.02758901387697 0.00000000000000 0.00000000000000

0.00000000000000 9.02758901387697 0.00000000000000

0.00000000000000 0.00000000000000 13.21278904449828

PRIMCOORD
 96 1
Ni 6.346981913162426 1.9407962373339935 11.400509821565839 0.6996375365055241 0.2676441257803778 -0.6219094883954257
Ni 4.609198098951752 0.290763297211082 6.034109147547247 0.33161600064664826 -0.05045121467201634 -1.220532238348769
Ni 2.6342324369680887 1.646298226522497 4.807882695872415 1.1162153840065487 -0.6224982710193602 -0.28691968618053815
Ni 3.36962887062376 4.164255316201883 4.875796345726312 -0.029092289380266027 0.39603190502887275 -0.17434496270489974
Ni 5.199069796715039 4.718215264623986 2.627125016089176 -0.9645184977184679 -0.955221131576942 -0.08288696660321852
Ni 7.281517934228151 6.113898590829582 2.555260893255968 0.20817270988762215 -0.14136182291065977 0.4982646231485548
Ni 5.054411709373876 4.650011829160776 11.57727001565845 0.3786340212673995 0.08649602411071555 -0.48221296900233085
Ni 5.586037402423911 7.8972897850482155 12.372838941536024 0.24077326953146277 0.23595759331037425 0.32959871310630334
Ni 1.798097136822151 6.542248664859215 0.49285400348982256 0.9048020556944417 -0.31782023241413654 -1.1410506978826735
Ni 2.7255735832310624 1.6179425692372629 0.4361435916782617 0.0319536700884611 -0.36199435582818945 -0.2828797117832096
Ni 0.6270364764681119 0.17965534190902901 4.850097507905912 -0.20323670603858546 -0.4791613266602006 -0.2524684464812039
Ni 8.758603031124913 2.307560098692545 1.3999741392930432 -0.5897850970570553 0.8319207941536835 0.07623655116623644
Ni 6.900436316596317 0.7989262862546455 4.806072664262836 -1.1958481053385275 -1.163537309020964 -0.13254293906744916
Ni 0.8551121951409366 7.250129007013647 2.4732488575433162 -0.9519085222639412 0.5540452204532845 1.103953793030376
Ni 7.433027961677398 3.8032510566733153 3.716810085760366 0.7035777521001948 -0.03248228889842148 -0.5217511363062692
Ni 7.603198015745105 3.8740092998448104 12.528656934491961 0.19853570101849033 0.14833774000786065 0.03372490305627095
Ni 7.99767657556455 8.857057917579153 6.843102098379658 -0.06351884648925189 -0.2013454025531436 0.22864743280220623
Ni 6.949004745820946 0.6381313834415449 0.4590673486169421 -0.05551937322354309 -0.13837908613325198 -0.3705967527852198
Ni 1.8606222187570547 6.391885141222519 9.130434078231382 0.23026002870496476 -0.016698286591287373 0.9141963524251481
Ni 0.011465038125516533 4.906323138184134 1.348972774812645 0.1613025276986448 -0.6324561535630205 -0.2846332041392066
Ni 6.3173714209957375 2.098345721874556 6.920740267185372 0.03924583287450015 -0.7288005312227255 0.2680472747560674
Ni 3.4151188919737425 4.160120680405437 0.35365219098571643 0.1393681895193987 0.6808173184752274 0.30662770613242674
Ni 6.089812983176922 5.673939037249229 4.695878300975194 -0.40035110122951695 0.7292005948746216 0.5420883052017244
Ni 5.090169989700782 2.74632801051497 9.272511177855943 1.5923806041529027 -0.16563817895952118 -0.0750049927519805
P 0.20965582592376644 5.638252977634924 12.395433191473458 -0.4305793039864391 -1.498873953052309 0.45466694106326216
P 3.894104713126228 6.230860034888001 12.811054364907045 0.2779187682335085 -0.7219043183235245 -0.8119926877711886
P 2.3699768495585456 8.48658371711069 1.3713160577737895 0.12150390764446815 0.6742908302106194 0.05769992581462966
P 6.324367802529024 7.764168956545171 5.746743834864073 0.8300642005609188 -0.3391092236998999 0.10553015792403116
P 4.624012372624171 1.0500440232830357 12.554382855079586 0.359286212868407 -0.15073580792639202 -0.16478482982029038
P 3.960078334087861 6.126121946437416 8.237619060076739 -0.16683091371604172 1.078076153932666 0.14752655696047495
P 4.651582629659862 0.9290743296752235 3.7703093841378745 -0.42050109381483064 0.8290005351830949 -0.2677757662622356
P 0.18925798840832975 5.463794818756494 3.572922954526226 0.05353088203860458 0.8171426074032443 0.17296453741760534
Ni 1.4572514836985273 1.114835030075817 2.586813219832734 -0.14052184350786767 0.28601028699239134 -0.1838593299532382
Ni 1.8856196129063107 6.4578045966497015 5.028166702414426 0.8290864100286818 0.5192646224389896 -1.195907240711237
Ni 6.003951583482601 5.7817103956290845 9.112610006361287 -0.2983428404158152 -0.42258857247147863 1.602062864437673
Ni 8.615262971788733 2.1723629247022016 9.984640806188073 0.05953569347178779 0.6519733976603416 0.7176653405415123
Ni 2.323394489930463 5.147332683725011 7.047371161902248 0.22476969501435484 -0.20568619602034255 -0.45192820197586037
Ni 0.6663687793098938 9.01096025613333 9.23137967651147 -0.3773975777571371 0.5269851310116989 -0.4402849613099773
Ni 1.5296617756707858 1.1741643454780963 11.52406230840807 -0.13122679135918688 0.17189598694377495 -1.1009312041539687
Ni 4.182373687475829 6.814430475476792 1.7578431171357902 -0.7149880508196654 0.26334729817723673 -0.3208849873823893
Ni 5.639110598597069 7.861838442749867 7.9176713729033175 -0.7082805568925027 0.28606736548257183 0.22604804750614618
Ni 5.364698973477915 2.8348344938083274 4.658420125625426 -0.8489414970813959 -0.09211825539349941 -0.02429024000593236
Ni 0.9505780468523735 7.456842741657802 7.11285368201819 -0.47810794569502185 0.16819719793594903 -0.47165936185620067
Ni 5.05453809562093 4.668518386764956 7.036603053653337 -0.37705767791921513 -0.8510274330761473 -0.002838755000375756
Ni 8.312288054835614 7.041086154388086 9.098340096310102 -0.6527349584167146 0.7779391977309054 0.5834804949952661
Ni 4.697785830546786 0.2856509735177907 10.43803702334797 -0.1493759514643879 -0.573898764844102 -0.4362768685918486
Ni 8.332482771596858 7.172293134007187 4.8591223887043995 -0.3689993263911129 -0.2856127944436565 -0.04240391888750762
Ni 7.092525356938632 6.069952287211461 7.084631633051269 1.399268902363461 -0.11454958781382207 -1.5883450006309485
Ni 2.278581537761121 5.190610945751568 2.601056047116693 0.38131413920272395 -0.04735149270077006 0.303029190147891
Ni 2.3193501300247688 5.229682351269076 11.493990506439637 -0.14993310951943856 -0.16486684801113544 -0.30836037255281734
Ni 0.8621844084224559 3.328625561044157 3.6902391828353007 0.4336116630548597 -0.22686591542175122 0.06488153116473343
Ni 3.675095402161636 2.72655759044026 2.6671470267363038 0.075389886895225 -0.2773197011969289 -0.13930211216815364
Ni 1.154755028966395 3.386925731291862 8.273584072193467 -0.6564041797381857 -0.22598814080248822 -0.7134173638984359
Ni 3.8187062891700747 2.612683581845563 6.942104959490764 -0.9239290063318797 0.005963673782602632 -0.05071860940079007
Ni 4.205267653370561 6.8134916062129705 6.059055084438775 0.033727988380064494 0.02796948862973248 -0.28016128441078203
Ni 0.786134192535073 7.2716327241907965 11.273389631521086 -0.23158671793618824 1.2829478244715131 -0.339341394315364
P 0.15621249859852404 5.524234527615024 7.898724268952266 0.09053548428741182 -0.8098995526875858 0.07941494889421807
P 8.456837811107874 1.7476509690698783 7.849519394697836 0.027157534251398392 -0.5938353558670288 0.16638379887629412
P 1.7714928318175074 3.2347115518947485 10.372541864607323 0.2996510177042775 -0.4264927926218913 0.3138594479941756
P 3.9348281674444996 6.061746208742094 3.8886556603604308 -0.21588653359211207 0.4859978899660597 0.16925726376934722
P 6.752916483518312 3.9656754393144915 10.31274040629641 0.2047307740856087 0.02891359771055665 0.5983548410039372
P 6.491594862558212 7.730622435541692 10.303940312465894 -0.8348343682560525 0.23171038799824611 -0.9444929465261604
P 2.6267756483919658 8.432824424167816 5.9538674220522445 -1.910985023031231 0.0593711428694655 -0.8425579621525553
P 6.886488691475118 4.019904166889277 1.5102750281317725 0.5439104460121278 -0.8212874828095533 0.023935170659358778
Ni 5.461790693981797 2.840512847336634 0.22771280959200121 -0.2807755209560132 0.4308592971207031 0.9643192372234682
Ni 1.4721379780835482 1.0572480393650532 7.000320270401161 -0.3077926729748054 0.7820521914580145 0.43516460936427637
Ni 6.896229460087269 0.573375584246157 9.03754740871873 -0.219741388561828 0.30303356102326523 0.3382859564676561
Ni 2.9579978915614156 1.5512106307933116 9.193340124425259 -1.2036272350633141 0.5861289883617067 0.3854114492005491
Ni 6.272314723921365 1.8688192696373451 2.5097564277634654 0.7769063855910169 0.492442617150139 -0.015732837354224517
Ni 4.078186281958832 6.70850074526828 10.515477487952934 0.03455254116388888 0.7784953273446915 -0.3300694820951348
Ni 8.088051769796476 7.225285081878669 0.36962109330085524 0.17599946758918722 -0.10945957488542439 -0.16807352787389118
Ni 7.356690668457423 3.811059921223372 8.232175423864387 1.1025566555725332 0.20305055816970838 -0.1735998570087591
Ni 3.1362115274951337 8.348615073274258 12.367923419284573 -0.354295444522035 0.05760659476987499 0.549271453213725
Ni 0.009649589962491828 4.7041593084338835 10.17252660105697 -0.15809353384304384 0.2133529685369809 0.3179770697069749
Ni 8.409479078819324 2.4286020130129584 5.653752445318152 1.134327777336543 0.2195729813047638 0.45723675867296737
Ni 3.712135600137222 2.782763360022517 11.413220666983735 -0.8417650339376149 -0.8616684577297611 0.049472652808830925
Ni 1.0492857058007181 3.3852736824910985 12.537747716690696 0.10378360754656965 0.6865485645320499 0.42422610807490163
Ni 3.0169209654553106 8.404847925623741 8.201957374952936 1.2862236670093072 -0.8135302074616377 -0.6113911053626051
Ni 5.546063237998881 7.93060158873574 3.6123238670449798 -0.724414743450204 -0.05839772321260265 0.4864581174319299
Ni 2.71085861303847 8.45104209892159 3.6159574716477514 1.5924176280384252 -0.700667006211303 0.2713331445961908
Ni 3.43093522803351 4.29637408231758 9.243139014040839 -0.3891300357027169 0.12745703990410953 0.3773476983558082
Ni 7.1933003337852 6.0529352818046895 11.46744578352289 0.6747993944159217 0.07638953180433296 -0.8704593165485138
Ni 0.5063899705491922 9.073088124148924 0.26492182348329374 0.374670151523645 0.14214652359548421 0.2609574577888215
Ni 4.592397755682787 0.35350955507832815 1.5293403934997083 -0.36351182091398043 -0.6433334625971565 -0.08387915531315876
Ni 6.083457560467974 5.6816395707303835 0.327520931648614 -1.0044664988663152 0.2875038408187823 0.669189504428312
Ni 8.005693074663336 9.039595768679897 11.240555387295641 0.46853032930891564 -0.3154494181891148 0.5854931545499207
Ni 0.21417684253263156 4.884169434593569 5.65537741135169 -0.8200466684239167 -0.8752521099514667 1.1228830258347113
Ni 7.828869687447201 8.543421417928212 2.743212589525115 0.4086637348602704 0.7189665758514393 -0.3118077076714694
P 8.44267352384887 1.4788454767664292 3.490263640676882 0.2647536916064602 0.9050815346080736 -0.10234147578340438
P 1.8264527941073851 3.298130365148098 1.5765501705685183 -0.4466715815626114 -0.518379648730875 0.06831729631915975
P 4.76592607288647 0.9272146463257303 8.061373438561414 0.4753062145801686 0.45283091629578787 1.4249053719846427
P 8.513964394775801 1.8660387722021805 12.435057988201278 -0.6392050422510798 -1.8816983582519724 -0.421245685290339
P 6.214664540087075 7.725223937274716 1.461744514781259 0.417764411609958 0.2898782545882298 -0.5884620073702576
P 1.7548730403300463 3.167067826954201 6.009123489263788 -0.4542841038025467 0.28128459938194783 0.31135056552939283
P 6.762016293306124 3.983143824175022 5.860876032506322 1.0137546090364604 0.3944704740790239 0.679886579130842
P 2.4216959073704234 8.466885517748583 10.283619209457598 0.32256597462923803 0.10302538922430643 0.4616785964944049
