# total energy = -381166.54400236235 ev
CRYSTAL
PRIMVEC
9.23197640038412 0.00000000000000 0.00000000000000
0.00000000000000 9.23197640038412 0.00000000000000
0.00000000000000 0.00000000000000 13.51193064443562
PRIMCOORD
 96 1
Ni 1.4207273065248944 7.262454222004997 10.519024652237563 0.4446692064206019 -0.407069393789957 0.43941412866924967
Ni 5.224929342661277 3.168682015252469 11.94876236769319 -0.3248462860229825 -0.34121290030646395 -0.06113569096905599
Ni 7.011999935240813 6.551942857120735 1.3678123876024764 -1.4801545222659347 -0.4313357225364894 0.6533569082714296
Ni 2.2881176457533563 1.7713577688089341 8.746246082266293 0.2120023680463575 0.16070628887554259 -0.03537606550644875
Ni 3.681675245840601 6.549957982202591 1.4894335210170029 -0.5514337509723665 0.8287822485247016 -0.8282279186831285
Ni -0.23792649483897524 3.593832990742322 8.535459751540603 2.4128075387343735 1.0661488063674607 -4.031382799004773
Ni 6.557371259222446 4.100123806490585 7.658251205449607 -1.071056013861091 3.3259919049552393 2.3727073282793785
Ni 4.361462593387284 8.825778635439825 8.154828135668241 -1.2935880777941786 0.27901740061432595 -0.3102089957257819
Ni 3.821050392999689 8.073021746716389 10.34188333617085 -0.6326695551254072 0.6456068320123657 2.088097006958307
Ni 4.53503298099661 1.7816975823360044 7.753577823785739 -1.0659420896732932 1.0132581290160163 -0.3560988162793609
Ni 0.03681158255164248 2.0173437790132063 10.686950609498272 2.5605323277485836 0.11449199510300928 -0.09454409122617265
Ni 0.5436156961857138 5.1325911150739945 6.089097722138892 0.2096503228744131 -0.2718908168718737 0.9099463188995425
Ni 6.0350352685544975 7.409048774680307 10.491703541387551 0.6737550123118073 0.16488921660863862 -0.2447880471178107
Ni 3.751192027857421 4.399793759248351 7.651873756177732 -0.5425215360844011 0.4482862343478989 0.3782218734306454
Ni 3.4677980494284273 6.76518304716383 8.661147570543232 -1.4941366954776396 -0.8785562346240352 -1.8620350754950898
Ni 7.435119875930705 3.1204172428243235 9.781880881940003 -3.355038428699235 -1.0650429748977916 1.3353304518382874
Ni 2.7551356340514794 1.725705645691647 12.758464856219325 -0.4247063901454298 2.097604175117794 0.7031226668406472
Ni 6.354997105359137 5.388556891727162 4.2540688587464786 0.07299130475606139 0.0714175325110383 -1.248230732705302
Ni 3.3826330674755503 8.772565523680868 5.251776853123841 0.6434010826102983 0.7731044953464233 0.7022587761784551
Ni 7.41159680015662 2.506250783269083 4.5368064436560305 -0.474423554864899 4.403818918991576 -1.7863770225401425
Ni 8.131247821640704 0.3342510898199973 11.660174479362116 -1.0055021392196812 -0.9789675832642624 -0.26101016540362787
Ni 6.900569980533905 4.190264823703365 2.1177110564437855 -0.2020051476243295 0.4231927817143809 -0.8277278391182582
Ni 0.4142997104722473 1.0096643269656747 5.961221001540489 1.7175899856734158 2.1406112748069392 2.123747152061749
Ni 5.088536123867585 1.1796619397223442 5.5569841453044075 -0.29334101632584964 0.9458687438277644 0.10954030752468877
P 5.500208413866793 5.824260016200444 9.037238900440045 1.9281000854449633 -0.8103374115559528 -1.8568193356221052
Ni 9.142269249131807 0.5133440456899433 3.1668586999206862 0.7172277387834615 2.5478732442236764 -0.8479153698097268
P 6.221558119001752 1.5446111973461036 10.811369031750925 0.16370599493381485 1.5932113275843143 1.9608993913631714
Ni 7.919410892004854 8.007908617424938 2.8347623533839195 -0.906791832430961 -1.1388822294764451 1.7889324419721448
P 5.330524688306481 8.248900128416581 0.740876258341304 -0.49086010315436757 -2.4824872626186987 0.96711376924947
P 3.133185066134983 4.780188113328171 5.459873909134855 -0.2097086869161743 -0.27229036630313747 0.5395832793916836
P 2.0777670643120225 5.199005953032693 11.339820283562029 -1.0691791085533522 0.7167929652388881 0.22029211885897543
Ni 2.9977796688121807 8.80172010503666 13.225193883657274 0.8473996065155728 -0.9483300608840636 0.19972123668615926
Ni 7.092595088893779 5.84481962756186 6.311341858729265 0.5120467645343117 0.5266984530092155 -0.29936742502558766
Ni 1.9748674557649475 3.057584411694646 6.179519391433121 0.9405761279702575 -0.5420032016870858 0.7574955851645728
Ni 6.789010778157908 2.055601089063366 7.459247646156595 1.3606846143323597 -2.9380396916107077 -0.6321702468914854
Ni 4.022870628281189 5.454824018064046 10.362137369114635 -0.7359646530713325 -1.6242676826694866 3.0004622197119875
Ni 3.0310147837206207 3.3812851989264856 3.5728653260256418 -0.5314413670108395 0.2185100872578882 0.1907689125888779
Ni 6.557352795269719 5.069850603707952 11.095983477455169 0.10274488186941014 0.7535638542103344 -1.2107363353042695
Ni 1.121288153176215 3.8781409348312974 12.947442489181624 0.44421489249200274 -0.7765811410411142 -1.13822839794253
Ni 1.5045998117868877 4.956934300806528 1.4726922550795125 0.8992867823031674 -1.0689353679736624 1.0721497611459019
Ni 5.43025772896089 3.096958790884783 3.52881587400505 -1.0741917312765952 0.0010243274994563003 -0.027747345316597373
Ni 4.054767106616929 1.0981158925039418 3.041265047076965 1.8701026829945726 -0.370063248879253 1.2542165179750915
Ni 5.165059975944267 1.0375448955833102 0.8127721206669863 -1.6603654568333082 0.17300721773008268 0.9595295291443089
Ni 6.846193639753151 7.5700636744353345 12.809201951917604 1.6261939531579217 -0.5837196075892658 0.16948146396501135
Ni 7.068628878254248 1.8279128560114628 2.059529295006016 0.3347344916709719 -0.8015565800395292 0.1340794303166336
Ni 0.055283844057280596 4.613504780085982 10.498958951611591 1.08191121140804 1.0786327977670842 1.570970771018559
Ni 4.114562617523029 7.171131511817695 6.553556606589066 1.9221472102956378 -1.7723015182836832 0.3421230708255592
Ni 0.36718339590371574 1.6707107624945423 13.691098495605964 0.08722107520219817 -0.19234988392275262 -0.8461958160154588
Ni 5.121152696359673 3.877900903445848 5.836451764186024 0.017040500422054523 -0.4099222898577198 -1.1520406212352738
Ni 6.235304531806937 0.2489753241507588 9.275170011267202 0.8496562637602334 0.28458949538546474 -0.7538921840840306
Ni 1.6451012600623167 5.6908856536776025 3.99084305588109 0.06094028712879827 -0.2868366395484286 -0.00480667736002398
Ni 8.348679328952807 7.079531842339489 11.127614998069275 0.21942231465951242 -0.7400521928771447 -0.08424348063111298
Ni 1.6955447789122378 8.673524881253718 8.563402174399874 1.4502057984226444 0.12926606808839028 -0.6032005991320127
Ni 0.5211432193217905 8.217714512260828 12.747209230637 -0.20645804118936056 0.7852987234197701 -1.6877579899136481
Ni 8.625638619856472 5.105338320849074 3.1428887964906105 1.049791705165676 0.8576768200718647 0.46487550616514783
Ni 2.0438857110581408 1.1437680156212293 4.292172917989005 0.032575619943176155 1.5635443966475007 -0.4001438703147173
P 5.106658493469048 5.397945811688796 2.3830454427105874 1.020016273675456 -0.5835077486887758 1.028543337309861
Ni 5.394474588576137 -0.0003646630663564924 12.34060806525424 -0.1997240648996367 -0.006435985433330851 -2.15787648964529
P 1.7938560952066755 0.4879053348204416 10.735769300508224 -0.1829005655843947 -0.157102116464052 -0.29232388791524494
Ni 8.119781706997292 6.0102012521368025 9.006255464566653 -1.2445710244655277 -1.0457663860563668 -0.29922807123424594
P 7.640328246537594 9.220888759842992 7.327952324710805 0.6694936659322922 0.01814787455362036 0.3657733632546475
P 3.0790118288342256 3.273317235355874 1.301548954056138 -1.8872018045687045 -0.820477071093116 0.09660380196867878
P 6.18391011939158 0.7948547009407919 3.8083379615472106 -0.9186276487236243 -1.3991040946508226 -1.8295887820409265
Ni 9.19987678163977 1.317476882876008 8.390233377762357 -0.8290419299439915 -0.6697636317642272 -0.08472993334922826
Ni 3.397801204640708 4.6181669281495275 13.059888884486147 0.9543929792486917 -0.17624269394824485 -0.06810260920519239
Ni 7.706503053110843 0.6816254340406466 5.285083977447917 -1.458194730165392 -5.22524652692342 1.1037733015884539
Ni 5.414581833095743 7.678373221131394 2.9752462609042585 0.07988803187589467 0.8252276984042239 -1.269199621647485
Ni 8.262729629009037 9.129667601395688 0.6960171619936373 -1.0771922086658157 -0.5999255279251667 0.9959638607119428
Ni 0.7989315417028938 8.484934068101047 4.7541456312045 -0.12575188428754472 -2.608687033076939 0.2030024785405923
Ni 0.8623746064701965 2.647536949535406 2.541891751217839 -0.4508969324978686 1.1325807127384493 -0.8151813699118154
Ni 4.075455965647432 6.403898884156361 4.394809415209721 0.530664379635499 -1.7203680626391857 0.0007769873753405973
Ni 7.958249816565911 3.445641306156134 12.050979733187004 -0.2567817291445771 -1.2954780957280398 -0.837294656871087
Ni 3.957231276337021 1.100128463351175 10.923180267081644 -0.1576387056938124 0.9939257472359915 -1.5966314090094567
Ni 2.0233260996967255 6.650097229816994 13.219289111575208 0.3025409376575628 -1.8150723335923065 -0.43766937806400114
Ni 1.2532869512209017 5.638743451176806 8.349683767981151 0.4149130582040919 0.002586015559621353 1.0103921203221309
Ni 5.121872790516023 3.2386603960874614 0.8941695330659373 0.07282881103626812 0.7759247384040379 0.2570002729132864
Ni 1.8538270136636825 7.230382336118352 6.561772142354905 1.8257874060169652 -0.05602690898758093 -0.6574079384123518
Ni 2.602521832787197 3.2551948657544107 10.493878595018783 -0.34823561148120025 0.4869414848262517 1.0112215582019617
Ni 8.799005903985803 8.23051926347694 9.001472377612746 -1.3869731157152434 0.7031059546700988 1.1855125277404746
Ni 8.46268500506512 5.096383303776522 -0.2943948014636872 -0.3229441839042632 2.707475501401763 1.7535196096904897
Ni 5.907892490076988 8.103265701283071 5.2186451363506725 0.5080289016241702 -0.38770024523472585 0.4184277562255697
Ni 4.757855962504973 3.2438579987800873 9.527883362647524 1.0987758483738626 -0.04519510847939959 0.15000587173890292
Ni 6.382619178638596 7.57582442768613 7.950554964266971 0.09592117407935738 -1.024575096690732 -0.7189650331895424
Ni 0.0009832054827080112 6.634587509526388 1.362542775494216 1.402989802858474 1.757895113050366 -0.26715690173131407
Ni 7.002241736224639 1.798102804333865 13.102505533775131 -0.052009817408387844 -0.49364743609151757 0.7459757574504313
Ni 9.036184608739338 7.047616900051024 7.0896288548882005 -2.2707291493726633 1.4219468035769511 -0.3944285650974949
Ni 6.031010126860031 5.095460106140177 13.355530002758902 0.05265644985345124 -0.6181297096380194 0.15058488417082455
Ni 4.722414405245667 6.691650355428906 12.408452013154001 -1.5795063192933958 0.9393340280330404 0.23341065851880446
P 8.838426443057758 6.697688067970606 4.749362544250594 -0.5831637350857957 -0.6094612353297439 -0.27120998875476515
Ni 2.6529099597789365 7.762024158960664 3.4683501216149617 -1.4851303782139715 1.4364136297345587 -3.1600313096592934
P 8.531463228972862 3.2590630638506988 1.108706815788098 0.5779492807643918 0.6433928550801823 -0.7844816268351135
Ni 2.2346552706325853 1.0038666458094245 1.8050314025946383 0.044296765034846294 0.11479847059983454 -1.0687106535573658
P 8.102554839103085 3.6586783927192337 6.179533239397666 -0.008450958980830607 0.5780994331890108 1.3725142599774363
P 2.4663132535207746 0.787368491307666 6.726820492583126 0.5213644423908118 0.46165879900006296 0.8563933253737509
P 1.343400272504591 8.443103983198231 1.2059481460220112 -0.38634707364094106 -0.7657601391662102 0.49471084435902535
Ni 0.32406268070528776 3.4304270091091595 4.582611817580951 0.6705012812612001 -0.8752364262221829 -0.3399175785338081
