# total energy = -381166.605146614 ev
CRYSTAL
PRIMVEC
9.31487925884633 0.00000000000000 0.00000000000000
0.00000000000000 9.31487925884633 0.00000000000000
0.00000000000000 0.00000000000000 13.63326735774655
PRIMCOORD
 96 1
Ni 5.804520512262713 6.765853323963941 2.6790189253833936 -1.29499858498846 -0.13692255619238355 2.274227135223593
Ni 3.7574081003217494 3.935769410721105 2.4423995648675407 0.3934039804877225 0.3616320873927643 0.3486873543066382
Ni 1.3241566784949026 1.8581600836847008 8.548590829295623 0.5178641425470372 -0.24791296590003753 0.06472495098221111
Ni 6.207100284257164 7.1324590317865555 11.958884606900808 -1.2794392970976223 0.6615882950422864 0.03346702140919398
Ni 7.0167682298667735 6.198651688658031 10.07655241122079 -0.2435138083910774 -0.7544112898122942 -0.8467069513239225
Ni 8.452675516303032 3.723939738703571 9.061896572499451 0.6197219938258036 -0.13751725235358897 -1.3623555742768794
Ni 8.742526618021056 4.209766587731605 11.525495871351632 -0.6384740776223262 0.8547743017130892 -1.4965663879650548
Ni 0.9462427071029944 5.289612609805246 0.7838936743606523 -0.7967553019961439 -1.1606903264904718 -1.0127606205543074
Ni 8.520431948924971 0.33733090490204426 8.496811277789046 0.006004811433183208 0.7579349866948366 0.9058405242612851
Ni 8.949195846861171 7.550529448192649 0.5858239421656545 1.9408890096795155 -0.1993880217164566 0.3429401674102158
Ni 2.743856074807133 1.7117581244437008 2.5471034665566967 0.10819304946817494 -0.607917802102024 1.177245659745992
Ni 1.4879588324207782 0.3646300219057727 0.41024684921346666 0.17012166865217151 0.5455942614724539 0.4026941475403968
Ni 3.1294455068094997 5.259683902352085 13.547378000999528 -0.6060820344448659 0.5612695061158657 -1.199374116213915
Ni 4.420869699157372 7.641843210770719 13.596908009135442 -0.5387746674474592 0.6802169658870673 0.4331792035031314
Ni 4.701610848840168 5.419136007606742 9.201214565970727 0.888814936237566 1.5774854322086251 -0.3406778537386004
Ni 8.83248040820941 1.3013445388893028 6.264391449893849 -0.26774208481082273 -0.22875464780403185 1.571986870987899
Ni 0.9062436835503586 6.279765658313221 11.997943759123839 0.9002992827280818 -0.5079553680737575 0.3638396365670443
Ni 2.490882580560961 6.326563612326506 9.99772524445379 -0.03520662980812002 0.23430977329430613 -0.12285707923825291
Ni 3.1716325955288793 3.06793935825263 0.4081388920094049 1.18537600216261 -0.5275715996427882 -1.560233844217029
Ni 2.3875433087012135 3.7204466589354617 11.504392080624623 1.785309757617893 0.009007859925565131 2.5402640644178507
Ni 1.0244411195117364 7.948489040013815 8.779238420639917 0.9460281522237642 0.6137806886407042 0.9508134894275495
Ni 0.9559953858155559 9.018647587530566 2.8434768468177363 -0.047263560972654085 -0.4990691213277211 -0.6255987643215548
Ni 7.891798684097245 5.674913280546783 13.271167608647955 0.04198405774126963 -1.6449714908757411 -0.8287205420488308
Ni 7.865046350513218 5.849278507691422 2.1431637221725284 1.249024946471823 0.6312351366717258 0.22916113921383113
P 3.3540551933386236 6.3698125972953905 7.82019241182688 -0.40073419560054857 -2.2449322429142176 0.7790727971147163
Ni 3.9387967465201332 8.265781776390106 10.22099731430371 0.6669773272683416 -0.21664115236994946 0.4071275007214021
P 0.6515963054793087 8.753480916173848 4.922263574607977 0.3270479216599916 1.2959038704115489 0.8712589296316737
Ni 2.6252310858821386 7.961772058012011 6.843232026987099 -0.3143291885417425 1.3129227735670483 -0.36075945497982387
P 3.9291279017220067 2.102284442518329 5.630689027706642 2.0784168035560655 -0.7544390577264362 -0.1407172473481254
P 1.4072547174583792 2.458727616935591 1.2070006460483902 -2.8773714271963735 0.6458289753255007 0.19517578340732192
P 3.3539340999066622 5.406952145375577 3.8835865249373036 0.5655609344023679 0.5496990276694468 1.3463316880447975
Ni 0.25716984740759397 1.765849629012797 10.513948407879942 -1.1555447777337904 1.886072833170584 1.1069005343635259
Ni 4.9358986950468005 2.026256397005506 3.5494077752180018 -0.19263707614586822 -0.12861506476795267 0.3003686125965924
Ni 2.8926053836523025 1.4782899876226516 12.040588208420857 -0.9437897498115487 0.09440113789040516 3.5537638771310283
Ni 7.777467854567179 8.42629577789427 2.1829447775476343 -1.1469282397093732 0.5300272602721323 2.035587624205681
Ni 8.319742872647861 3.5378005040205585 1.1452122566462573 0.024010761092300582 0.673044616508344 -1.7832148227620774
Ni 1.5179806886677556 4.229765633763954 9.74308252382243 -1.6072760332074962 -0.2111832145791718 -3.0060643963901135
Ni 6.195764076049728 1.9267269108128424 1.1134876404483187 -0.03175775202757111 0.8961749761470629 0.853128281469234
Ni 4.233566104551657 0.925678247892181 0.5768015499966125 -1.084082765138062 -0.7809139640885131 -0.3110731434982901
Ni 5.618260184147741 1.452618180046893 9.685823028775642 0.874330883688778 -0.7853118360458927 0.16297888695980317
Ni 6.6964108981739265 5.06436019659879 4.432761074175954 0.8979991738399953 1.0778195578371697 0.5544252295005225
Ni 3.2156826601245845 1.1649374452247865 10.08141943569769 -0.05824397124355775 -0.20924640256777513 -2.5527663106499197
Ni 0.5629931728012916 3.8899308892841282 2.678950926763908 1.1870868142061297 -0.16063146977354917 1.7518131685223441
Ni 4.893804755121237 4.093656616239649 5.517560749104745 -0.6580946800667311 0.05467810826917034 0.24070436396674025
Ni 1.0208548909498107 3.306307121628414 6.7278262603763945 0.16678694785198372 -2.025304240001802 -0.4705489024008412
Ni 5.124469113248417 0.18035190012320884 12.130268141155389 -0.006455525817356624 -1.0148465565490585 -1.0293645476595756
Ni -0.016322463140421496 5.90515846910179 4.709176393873924 0.8832094171253305 -2.546546040771821 -0.28026284298565285
Ni 7.633413244930349 7.4911191474966445 8.092625620589203 -0.3328293042284591 0.39707937245678065 0.6571400294629457
Ni 5.13572148754142 2.421300431580222 12.320328940058065 -0.9191030456981463 0.8425409928716908 -0.1757377292873683
Ni 2.002456880185454 7.342444357686528 0.377999668282219 0.283654385165705 1.0904714422732253 -0.3901659331663991
Ni 8.110707664444814 7.67068207733623 4.56129616327506 -2.0566017645635033 0.996404033573155 -0.31738648731082764
Ni 6.408460031849752 1.7021172242837188 5.62910829267558 -0.9992217055276081 -0.5662882994866958 -0.40983435812960384
Ni 6.500612133572169 5.7191496427301205 6.993402786425905 -0.8684656831572527 -0.42481463358852 0.44956227284684513
Ni 3.4225288716729487 8.734292264647701 2.386680750870475 0.45800449007692734 -0.45183204271762833 -1.0236479568907726
Ni 7.356398047000202 0.6838192677241641 11.286654912103263 0.3171203781336345 -1.3505477830086738 -1.8769803839510126
Ni 7.203876212005475 3.6569284964321604 6.494220263340498 1.919530084387765 0.9096863803699365 0.09559207287471279
P 3.324415247146293 6.918458992873102 11.984010562544803 -1.0666848813765888 -0.1590273585112229 -0.9868392727028553
Ni 5.6288325722458845 3.4642036420263396 8.134562139053218 0.017656793849814754 0.29862206221913085 -0.8379443746399439
P 9.246526796722641 4.941673920263408 6.974929517636267 -1.9795712567410617 2.248218112754341 0.24065448456541133
Ni 7.685166714774658 2.2160936388030232 12.769095609978367 1.2542095759965561 -0.613782488412917 1.373755588583705
P 6.6534599893452535 3.865432756510455 12.374562030793763 -0.34651451502503544 3.7119381436133363 1.102264064032779
P 7.085726281928943 1.9095130137155996 7.750785382578514 0.5809387024100189 -0.9282492309737884 0.85936269241472
P 0.11096908956123684 0.43790365758544947 12.409463952348773 -0.8584239826505345 0.2888680681561606 -0.2789438670639131
Ni 3.5511953005713353 6.424882164199557 1.825344695111174 0.10358126172777644 -0.962193449129717 2.2390685850445893
Ni 4.82532176190753 9.097516671254786 6.296837969243864 0.26101942137500855 1.5284192708095934 0.380350489737874
Ni 3.2918783734662767 9.237416844687411 4.609925422574771 -0.5721972087719629 1.2924380233501354 -0.34008007225360143
Ni 8.441059861714145 1.3029932725398505 1.6059308483011208 1.2281876980114976 -0.16960127737232727 0.4519737105018152
Ni 6.508036092439324 7.118011653865656 0.6432548309930635 0.2549701298571351 0.2055185600942267 -0.8748700440216997
Ni 4.696198903919444 5.174191939387531 11.740206635561904 0.2909069529630603 -0.5637331371650097 -0.6788707362718179
Ni 6.516810708816815 4.191062309933302 2.3216638242746703 -2.1829066931410406 -0.45591649719964705 0.8284613748501731
Ni 4.498173883145478 6.717779231475374 5.688631303412102 -0.06582152648049953 -0.7469067539051331 -0.770048482128919
Ni 5.822647267539355 9.072478275476977 4.163600182540395 0.27594544655722153 -0.9528418327114879 -1.0470475667616355
Ni 2.3705715984678926 1.1252840036972087 6.548044430871341 -1.4549921640676942 -0.961093531197319 0.17500882154114378
Ni 5.3155172893655465 4.920324216720723 0.6724718816614684 0.09117414631267523 0.11017537000552637 -1.8148972414670226
Ni 0.6768359026517597 2.9444706320491907 12.826355105025153 0.9860026357341729 -1.5333766148148689 1.4343806584649297
Ni 4.191472164626093 3.446719613427029 9.879402057620759 -2.155874628723913 -1.9091955352309766 1.3210628861756797
Ni 3.992953455244901 1.6370062174061601 8.03318458079124 0.6274998379990097 0.05352856804575943 -0.7177579002553187
Ni 7.158997123144806 0.0200037034720397 13.618966574999067 -0.12861455054732043 -0.33556058711669307 -0.0824431941975806
Ni 3.200154756195415 3.886409864877874 7.549257967157057 0.3298270270670255 0.4490125709909622 0.4807731512320107
Ni 9.276474133934565 6.222572298910044 9.777793490350119 0.2913435262798466 -0.8515131144633142 0.07587325428954675
Ni 1.0662462981764693 1.6650626341036145 4.662345837782804 0.009510510593596524 -0.7102451368180414 -1.7177565931582675
Ni 8.077621212881281 0.7240232186231956 4.069148237098656 0.5096726078751803 0.4447188287116147 -0.578133885971372
Ni 5.064155269252395 7.650235917093564 8.037247731177505 0.8483018066148681 0.051666575136356176 1.0499547131061016
Ni 2.0183108048929794 5.331436418228743 5.958732997865207 0.261946046954336 1.045391004994819 1.2579034799083755
Ni 1.3087405531183134 9.16850536702215 10.705277893354396 0.9620101294743174 -1.4950638352775993 0.3352379136699517
Ni 6.468950858554025 3.8158775982002098 10.283573742501531 0.04520205045793505 -0.05694659258837289 0.5613708075804202
Ni 0.23326414096259154 7.757999756659583 6.790457646362565 -0.8723441922760525 -0.47677045783052086 -2.130588857573931
Ni 8.477117759800416 3.2045979536604503 4.664431439276351 0.7081396604392644 0.5069297550227204 -0.7445071433247048
P 6.5662634034538625 8.39201702176989 10.047868171653015 -0.6850925488118137 -0.08742573501383653 -0.4821044684489246
Ni 8.410125147287768 7.788757488377708 12.087241781803725 0.3410452643803481 0.441918126038026 -2.043715909739771
P 5.568649136561206 8.861272700378013 1.7155418284485169 0.178412447906054 0.5594275678111204 0.5744942323362557
Ni 2.5209696409636098 3.4241496606853516 4.785154139038087 0.28751875321711773 0.49668699424878976 -1.308159290740134
P 6.532636688886196 7.6564023672441985 6.114806596368148 -0.10208076592285001 0.5229888653681122 -0.3179207625477428
P 7.051382321648892 2.486439383095926 3.2271306468846013 0.6564332332039081 -1.942957205062454 0.23565960245398127
P 0.5047053150707731 6.44914742498869 2.45648273100462 1.2294922757555342 1.1808117798306952 1.1373873900984732
Ni 2.155341995476065 7.17174919301825 4.6050453572667385 -0.16088420921430355 0.2587139131702834 -1.837995260937067
