# total energy = -340875.2019114978 ev
CRYSTAL
PRIMVEC
9.20132923372267 0.00000000000000 0.00000000000000
0.00000000000000 9.20132923372267 0.00000000000000
0.00000000000000 0.00000000000000 13.46707541816400
PRIMCOORD
 96 1
Ni 5.338528311803049 4.690653530976797 12.772550742575653 0.7299827244562848 0.5126610010795429 1.4518250791936222
Ni 1.045243377846073 1.205778966050695 11.617884239350536 0.5459809553879112 0.5392194682943617 -0.6989829336406607
Ni 3.4343040603824777 8.02260200683539 9.060163195044732 0.41607134017825115 -0.6896215470304188 1.5954080781253168
Ni 6.239412037941533 1.233106913375033 0.929414287171674 0.1631634921667835 0.23767868976653908 -0.538138319415041
Ni 2.2230042968925225 3.043744446871078 7.2514680621144 -0.9254063622083547 0.6233066258532685 0.5399087810519024
Ni 8.15128259381548 1.5357570289952787 9.43876292103688 0.4977344616766976 0.1984356851055163 0.8995264091177991
Ni 0.7104668217938658 9.034435358844872 13.639857898821463 -0.30869153063999094 0.5296611351819652 -0.4476869102010032
Ni 2.349421356922516 3.910592456796523 9.59247664387239 0.2904492966003514 0.10495217393337408 0.26267521181087666
Ni 3.986549428231678 6.979935001127638 11.88222922207138 0.09892550812331996 0.641046980555825 -0.04238026473842378
Ni 2.3862634785005126 1.0474424954927117 1.4280757152083212 0.585215732518818 0.502710060514418 -0.6287707342916332
Ni 4.13743282224666 2.2829601570828886 13.174745436690293 -0.2620458057569939 -0.029636849029826377 -0.31534914516582463
Ni 1.1364193475554558 5.666601699631088 11.536704593537841 -0.0946523346692628 -2.7982159026111297 -0.4113394819202206
Ni -0.008666731846732011 3.484239673220586 11.973657308197158 0.6319015666111311 -1.0850276455498347 0.5098523279861542
Ni 4.08524288378752 4.7639329156539105 3.670626395434544 1.1250448093727206 -0.580341178035336 1.311252070732845
Ni 8.790802567850319 7.677846609411719 2.0158464944462544 0.20296956842012787 -1.8404848601281398 2.3158810633189537
Ni 5.5269347257468695 3.7083196399510934 1.5726718410728924 0.7319251928946363 -0.6896428871866574 0.031591144542719794
Ni 1.3584106125881095 0.03662036954751962 3.4487161020976664 1.638738365481836 0.5921299431401479 -0.7435882310548613
Ni 8.256536596994977 5.984903275991637 7.965855570223046 -1.3510455485806991 -0.21250296183185982 -0.44217729323668364
Ni 8.82521553855504 7.149303865235075 12.794906291673032 -0.7739719855530413 -0.5796060996415243 0.08897533888914354
Ni 4.8272380596240945 1.4406704944330866 5.81952686856569 -0.897494723399751 0.2891195220453343 0.2740119769799345
Ni 5.956627591773558 3.583687637759794 6.201062738662618 -0.5740183211411017 0.13839656963474875 -0.08660606732601858
Ni 6.802505772758879 7.985309020133187 6.624225421451569 -0.985209450408916 -0.2890120499331926 -1.225880647144876
Ni 7.500454186359223 1.2439184750269179 5.899157930696673 -0.8550470957585016 0.38593004070818054 0.12034999654568307
Ni 4.833642184653637 5.121045698012458 10.503725667203083 0.7654786033700495 0.07361505438298935 -1.7232379279878127
P 6.414412115437017 3.834948330549592 3.940344954329603 0.512295390210008 0.7410739492734398 0.3453040396567021
P 5.875490272074565 5.872260605572597 7.54072748354572 -0.29430055202564154 -0.3500202141854488 -1.4392477567492439
P 5.40707821334053 8.35845051772372 10.343090704644556 -0.6927438947094844 0.324327437405035 0.6658169884116534
P 2.7234277794452004 8.491188890821666 13.181344629896024 1.367534804484974 0.22834044308474868 -0.24007084414779944
P 2.5976364097916558 7.160106225557895 4.216137310540754 -1.0350502851904433 0.05278449079088329 -1.6658889577546987
P 5.516205976056574 8.8969122946329 4.786063952322092 0.46524625924100516 -0.5996432207980575 0.7958240484311262
P 0.7722877913857952 4.675802585865187 7.079223782674013 -1.0745591419183431 0.23870635970010504 -0.5112862322192033
P 4.320824511849819 5.861265017339403 0.9559214759433753 1.11349104309685 1.3174720835006277 -0.0022252897860929417
Ni 2.201887246687352 6.119757954774633 -0.07883330690100984 1.2188126845545009 0.002912031440472404 1.3960923044076925
Ni 3.797222881381314 0.23935601324494019 3.3250879649074054 -0.13722748902731205 0.1304433762259431 1.3817591756144718
Ni 5.861761889108937 1.3099840177167317 10.197700504081638 -0.025465748371272273 -1.0320017281721066 -0.20827581112438967
Ni 1.1384528412789165 3.891729732212384 4.944395822215542 0.15021078866085744 -0.6377875930782628 -0.033209911093065383
Ni 6.554318323876936 4.190036820513745 8.961893920758806 -1.128605015920153 -0.4661644001799004 -1.9283463971278145
Ni 5.841288931938347 -0.22610609939071563 12.483911490723344 -0.6644938987248556 0.08805154152329352 -0.20927879846760733
Ni 2.5452072367768146 5.603130931737727 5.82475230334195 0.45122937613662295 -0.13581209673702416 0.35204598636622597
Ni 3.3608130451368585 4.023952830882666 1.4405324744971053 -2.6658760806934216 -0.36716304451332255 -0.7476410609679963
Ni 9.350850662747009 2.090247521136445 0.5451658652662557 0.25762376542989823 -0.07175151881168934 -0.8036702839484224
Ni 2.1820859865385387 1.4352141062972845 5.6201064637305445 0.49315301295360225 -0.7805210995254686 -1.2105087926744957
Ni 8.235879613243076 0.7396746006462719 2.779456512390439 0.7958253339827068 0.84980127397853 0.8264723694446023
Ni 7.7527362266752835 1.2963200440545628 12.203917807660916 -0.23967206604748403 -0.08455149878983503 0.004476033493482614
Ni 9.117164508472188 8.94281772534035 4.984501655213048 -1.9497009515441908 -0.7046571012073025 1.5128340147768267
Ni 1.372911907195233 6.487645493468803 8.121723324192773 0.6990706082584605 -0.08344438176858532 -0.3807490107278733
Ni 0.7443599174063907 0.7405882926224696 7.385761459824404 -0.34889175700796043 0.45611704324622737 -0.32591020851112257
Ni 6.291436352477495 8.492900338027837 2.786270096563393 1.327812289084371 -0.22735802456682133 0.01760820000006645
Ni 4.46552461273283 2.8024395921300793 8.036975402968503 1.2340804093468487 0.7035440706487819 0.40135280302115395
Ni 6.090939392141694 6.157961873054314 5.0659361778408565 -0.24617824259711796 -1.2501418336850856 1.2001228214544815
Ni 8.807677805356324 5.037948495222526 3.2104697691380175 -0.6658696960264597 0.8259108405141777 0.5118068806093636
Ni 1.759395331930645 7.880312654167523 11.180446614649473 0.9419390697560551 0.7620502944147908 1.9020039025785438
Ni 7.52308945586019 8.45285615393507 8.860109738769886 1.0430880678932553 1.5860083820779716 0.43497100529623156
Ni 3.2631317357782144 4.43263906265297 11.85696513285642 -1.5379583206482803 -0.44396241016156446 0.6592251941267485
Ni 0.9833460372229006 8.585879768234044 9.205284716798941 -0.6650240601967128 1.171587175908634 -0.2936793735018749
Ni 6.41003228280187 6.762019924870971 11.898281860758937 0.8619667056964703 -0.9499688820390673 -0.8543631823175996
P 8.866529506058837 7.954972238204452 7.181910615044253 1.4462799810056768 1.7457510214886647 0.63968121055655
P 4.578654953592337 1.7658270609473832 2.085241998124849 -2.802634600504115 0.715205051926478 -1.2457899844742932
P 7.093212563252192 3.177724999392859 13.379687559097604 -0.6299855805353408 -2.479868851159245 -0.3778305515294977
P 8.103297662739243 5.182041308387219 11.444778715509626 -1.1559378994071512 1.858102316099587 -0.8520139653591325
P 2.9821783540942612 -0.015508840139788517 7.333536556314815 0.4233874142236902 1.3601282276082576 -0.9811165112864653
P 0.47447021379071536 5.867089458637823 1.260556318243035 0.4779153700682414 -0.7974219890458654 0.01924290739001202
P 7.694114559199407 6.907722970622115 3.9412200007237255 1.1030078841773392 0.8087888361219103 -0.5356865154404387
P 7.819409057083417 -0.20365945713559008 0.8805607506316602 -1.8284567253190123 0.9690706358655246 -2.5032196100700435
Ni 6.561384944599189 3.3687905974365897 11.167127690827257 1.037385103971207 0.18198011065265432 0.49440205486935496
Ni 1.957757583923265 7.7023129433967075 1.7109917403819308 0.801646054429542 -0.4141023893773384 1.2095299737009944
Ni 2.9978206135054988 1.3102692589177602 9.029888982153642 -1.3892122894584074 0.30219049629667954 0.34004870479503374
Ni 5.230633527181774 9.47884115004719 7.993180757148665 -0.21306346232102016 -0.24772219004547016 0.30647395416338186
Ni 8.658054993423308 2.88380694505571 7.416789261565953 0.44550558627896825 -0.27291745836417514 1.2249717621773613
Ni 1.9243475580866751 7.91568256309505 5.991164780420664 -1.1927452980434876 1.1940185083289565 0.8720058351000273
Ni 1.0062573465958304 3.5034612496382773 2.1518504192295236 -0.3012525578634425 0.21066050930648236 -1.9309015594495003
Ni -0.4982390870325437 4.28741448601323 9.576692683993546 1.9832391925109523 -0.8224215964139965 0.3574992961713134
Ni 8.973044091320299 6.869629468291219 10.244336520316882 -2.251682674264174 -0.1779203387609839 -1.0122435717085727
Ni 5.972619501689283 1.6997707195866347 3.6381171797134604 0.9375733365881918 0.0043708753741860205 0.6868735519716364
Ni 6.3579251563043195 6.682069576621418 9.446951183772208 -0.4714151070558785 -1.4138930800345393 0.515816515989389
Ni 6.62991644347854 6.990286496326251 0.7894013433145953 -1.2789626145715198 2.0119147060687737 -0.6943364360075848
Ni 1.9435231278590388 5.39093908215976 3.005366623472061 0.47377872219204853 1.5653385124334462 0.18930338378694492
Ni 2.7535529308054305 2.6182749908854235 3.3838853777684337 0.8490793082108409 -0.6414228758380051 0.9426808330180863
Ni 4.538960420004057 7.1549902865975135 3.6015133725582587 0.6252699202272264 -0.22902332808438622 -0.4767984828549789
Ni 4.428369645966608 8.371341579744392 1.2980793381718738 -0.4324603230592358 -0.7489183850185231 -1.6683965546679007
Ni 6.604244735385979 5.567641405532349 2.5008623514788635 -1.0766638469661716 -0.03759621308621912 1.3268324416696051
Ni 7.755045760270708 5.096340129471768 0.10804752668376189 1.3279146189901903 0.05730654703095292 1.2317682162739043
Ni 3.707059057869129 5.421947561110271 8.255249331058723 0.647689168462691 0.11544998814090439 -0.610165203375304
Ni -0.11872106839966498 6.517982275397538 5.653868900470341 0.28471342255783866 -0.8664041726425338 -1.0591309802887308
Ni 7.677285328338727 2.9347455027619507 2.0283299375893282 0.9269693358201004 1.3178091551250724 1.158456809174263
Ni 4.238481818043253 7.431839875518284 6.766841421301258 0.7995930285552552 -0.38903824731985903 -0.8113990200512479
Ni 8.076438983197242 4.30925844121457 5.768190813443822 0.015676273084676225 0.6937990754468761 -1.5187295543256554
Ni 3.435693461071358 0.5328121608630044 11.246448668168734 1.2184568438769787 -0.22305374076451262 0.7416169662611034
P 3.697590890260798 3.7262254263124275 5.822678323770601 0.5260536203363649 -0.9791835559298105 -0.657974352438783
P 6.660253225407275 1.935416756952392 7.901253958987543 -0.5662440765123217 0.5932609714207977 -0.5871031793495178
P 0.41562495401854715 2.259165520119677 3.7163063935798903 -0.07324430130713191 -1.5358844688383873 0.5831254256486925
P 4.4589824677673064 2.831322564066476 10.668146056539133 -1.4486477099069053 0.3899630731269736 0.09423633017776674
P 2.024936487429996 3.2270901298289103 13.044020314391863 -1.0003648179931157 -1.227961955153937 1.2557296121855084
P 8.852994351003586 8.779181289240677 11.260629756524382 -0.2958496416803163 0.36609449403949207 -0.5233485627003762
P 0.9636643943519378 2.2895207047065425 9.522609112012738 -0.12668802294856893 -0.5183865907094105 -0.10300122085459035
P 2.516618707370512 6.154134120163093 9.99592271873993 1.2266157255386876 -0.30701517137883255 0.3084066524097205
