# total energy = -340866.3963045496 ev
CRYSTAL
PRIMVEC
9.29457702114808 0.00000000000000 0.00000000000000

0.00000000000000 9.29457702114808 0.00000000000000

0.00000000000000 0.00000000000000 13.60355298069273

PRIMCOORD
 96 1
Ni 2.8555635875626053 0.48949982552214594 4.102464548410829 0.262187987761813 -0.6878289739063703 1.4819895185921446
Ni 1.3187052857633716 0.2048366756125918 9.815670920403972 2.3751025679844324 1.3716148880916186 0.36645753380586565
Ni 6.282743658709443 5.4638170711380685 8.823046348981043 -0.2613888888992853 -1.5446753276571397 0.812391208761188
Ni 0.920177991239232 8.556029882904546 5.252005744968052 0.6698289377845238 0.05488945294902805 -0.29698966882203043
Ni 1.3789620282524218 2.728218588512401 1.0435337578544064 -1.7113702300159492 1.2308372198192028 1.0819749747664398
Ni 2.626721808012567 1.3255553889894136 8.05184741414471 -0.3789114432985023 0.6656251841158214 0.6230351173594366
Ni 5.01301149899494 8.541121381446512 6.619230581424211 0.27723485479260646 -0.34739306097524686 1.402667643632365
Ni 2.3428096599220956 0.08155247724007764 13.351601259917134 -0.7906041947930835 0.3555689119178199 -0.7394850075197652
Ni 2.71029864411646 4.973416601107641 5.117656352714123 0.8107367038769004 -0.780345750289869 -0.41078952295402155
Ni 4.614450743993712 5.617549374202836 3.092033426430979 -1.6451522394279796 -0.5387057618827368 -1.708578526203425
Ni 8.843027830548676 8.367907645055036 10.10914068199151 -3.2461043872999773 -1.2616472632215239 -1.296675972690883
Ni 0.048617143750960094 3.8242165155251744 4.279283651208521 2.5546216186911037 -0.6813001716489169 -0.3310174478307009
Ni 3.9930803898952285 6.422478328859125 7.9786061476301775 -0.41606799774414155 -0.4338345776989431 1.7814119652253835
Ni 3.220886935323228 4.66672344486652 11.20751802070831 0.010508098620175451 1.6242615120218995 -0.3113364244620057
Ni 7.106382596804025 5.086113346854939 1.0411004376039616 0.5647662064152145 1.7217284333218217 -1.2040108436549781
Ni 8.839077635336915 4.095144139590163 8.28853567557185 -1.5383455287843701 2.1679338738812923 -0.949320706932107
Ni 6.236438076250637 1.385905077248152 0.9834814960586711 -0.7287161990390354 -0.06670264353387222 1.0212146648589315
Ni 5.177116549956943 5.758854827860252 12.587911413813934 0.410858428518744 -0.1256516112642546 0.3333234702560582
Ni 8.78806899693187 5.66024866079773 11.03176035860046 0.9319603612767885 1.857096243432576 -0.030204291497522177
Ni 6.531829026897636 6.668412835454877 6.937675800784745 -0.5294752444234042 -0.16912922283191517 -1.4720102958922454
Ni 2.2346207840046897 8.129408800034362 8.078837006746854 0.03397250029070278 -0.23645201644828953 -1.1074443226821378
Ni 8.580028480638115 1.4278050302237248 0.7695286993550319 0.4424225764782703 0.25485545865614173 -0.09349893779110993
Ni 7.578593579706416 8.513813914312033 12.168038193823135 3.2136786626711045 -0.633474824635522 -0.46970043835761693
Ni 0.2956242445289181 0.29762071966182696 7.319840922012922 0.2630667908223405 -0.6034086013777608 1.0556147396053561
P 7.994739674332705 5.172673742165832 3.361642150024088 -0.9028837556258064 0.2760493191249375 -0.021914797795220323
P 4.7433758211286206 3.316295767908466 11.788771121693845 0.6709728215809799 -0.6461719604872161 -0.6195073067118362
P 4.636134992062037 6.348716566034336 10.23242952765251 -1.9727483202819573 -0.9224156550111469 -0.2407835539441079
P 4.253393607061791 6.331809730528 5.992433123833616 0.7251847888470091 0.5850591523362957 -2.119269318796053
P 4.322842686173034 6.548624327480347 0.9935995725469604 0.35567561269901327 0.23315097709951463 0.48595340988136954
P 8.806267778636878 3.2955223883830875 10.790188726433882 -2.2999957595472647 -1.0126678037301848 -4.081014860209604
P 6.540538045517449 3.1945553987704773 7.4971080234205125 1.8100936494307922 0.714015402493751 -0.855919471061126
P 3.3616161252085757 1.8535338337048988 1.3566587613579708 1.70368160312244 0.29366471821385554 -0.009871750587757192
Ni 6.672158549973323 6.832341289454472 2.7146568712571533 -0.13860071522575484 0.3870741816149528 -0.8162468350618525
Ni 6.483701707352934 6.944406003967889 10.768640179189305 2.267866226002572 -0.8415004674223185 0.4257857392525377
Ni 2.4193505012605696 2.2467687961029754 10.644480431666324 -0.6107799541411674 -0.6609406341559585 0.5555729699517206
Ni 4.970488809362454 3.5260929592493326 0.353952362296932 -0.36236176646993723 -0.011065513785542233 -0.6512745718211042
Ni 2.2114494036213483 2.705958076672007 3.7174153199492177 0.07003762144437616 0.8046809846011239 -0.8181864752867264
Ni 3.2409911053068488 3.596452906903522 9.004817602387739 0.9367109885878965 0.28332579818169273 -1.4013108724941543
Ni 5.964320746333636 3.657648401666426 2.3353628448546537 -2.0420860874458313 -0.6232145803600945 2.525750187072392
Ni 5.372600092765781 8.313181175862452 4.349845291182934 2.368713633738953 0.718644159515014 -0.38270382046139895
Ni 7.225641313891331 1.1768979249496379 3.512859340561085 -0.5416265350739574 -1.5196410103963311 0.029248869562788334
Ni 8.442636043884585 2.2019317568052466 6.469944803981341 -3.1996944325768704 2.154466949743109 1.7333395351981893
Ni 0.7682720725488433 6.215850588264636 4.837028908124443 0.4717665768580262 0.26817017348717687 -1.774508553237331
Ni 7.817631510191282 7.119395004560415 4.733709461081018 -0.08964973924834882 0.7108858557258337 -1.807621533741216
Ni 8.42376805263782 5.042689083256476 5.990024898940988 -1.0793771321322765 -0.22409503754483343 1.444084516016255
Ni 4.796921879046161 4.342519305616087 7.03090133724 -0.03638650904883411 -0.11522270262144671 -0.8543063609377353
Ni 3.982921417268276 8.824847637997607 1.5631703197403493 0.09912245462547445 -0.18193305946480282 -0.0584691998804864
Ni 3.483598153347754 7.5915688091549285 3.6624434739246556 -2.545696548287332 -1.4634186975684926 -0.5554238459683661
Ni 3.4122994534197106 2.5169621485874254 5.852615731948913 0.21275030195597552 0.706073521938855 -0.20398026907282935
Ni 4.4673082959998585 8.340553705035713 9.229112474884618 -0.9934092126108892 1.271768925036558 0.8521890574844163
Ni 5.834010777230368 1.586258978388668 5.783060694660226 0.5053873502362651 -1.0170355937805773 -1.7157099950418837
Ni 1.2363832175502734 4.564854881287932 9.864344761074442 0.4068325951888026 -0.007853948826780022 -0.04860850503632273
Ni 6.9734050841106985 4.422601380779693 11.346125258671668 -1.9835646941711709 -1.4324405040194235 1.0031277254502335
Ni 6.736774449060764 8.207222998417569 8.788398954414264 0.7007657365726964 -0.4448841506448854 -1.314523028174633
Ni 5.205372063942244 8.655509740202142 11.676922970823803 -1.2162744915136796 0.6545511856898468 0.07532586642650899
Ni 5.131266401769609 1.7321466584917269 7.876784056936432 -1.4432267960016498 -0.8266227789795377 0.7994091946792232
P -0.047241546359570404 1.6681627906381682 3.423918604088469 1.6642370239735724 0.11701913240023717 -0.5308590121448084
P 1.1988145374421846 7.846314574717151 3.2268847258412263 0.9307748256091196 -0.050093574222281466 0.2039627855713326
P 7.430912046248368 6.299780618293345 12.782306561659722 -0.23347879275257852 -0.022902101409154108 -0.3805294385178995
P 1.6588403299384122 5.426787476494173 12.725090075297182 0.8446834931359904 2.2327840375874577 0.3196241183920947
P 6.802468519076592 0.32785783745688757 10.391957928915051 -0.3199812446211973 0.600483971531798 -0.5852576415003469
P 6.14481213649172 8.834969432316683 2.138247174330085 0.26563300888762 1.3008514442248114 2.7770546951524815
P 5.009433086861932 3.5966480930198674 4.409536923392279 -1.7719371929657288 -0.9736019480769748 0.12029728893087671
P 0.17022831826908139 8.942981711271681 13.549410305883578 0.24805309102232767 -0.6148443540185282 0.1662138489573331
Ni 8.099424494732855 3.1803346960081385 2.2659165541165023 1.9304747563247266 0.01912437953427674 -0.23411256968183553
Ni 7.098788927420475 3.2947323493407357 4.662971224144195 0.230556476899461 -0.1778923137365259 -0.06363788856561943
Ni 8.784081623412234 7.326394528233657 6.6637144267971244 0.802859872231985 0.7297937483739303 2.891726667476781
Ni 1.7008797015685178 0.8550518198762018 2.131744688282678 -1.5366856245834437 -2.9631133467498842 0.7462158984856955
Ni 7.038513595777489 2.729705720827417 9.520255803856854 -0.5373716164523455 1.403283937060125 2.188372087130986
Ni 0.36527780433347484 2.193324978532092 8.908272972496906 1.002854674294505 -0.8220480151246616 0.8016370555684775
Ni 0.6566646512222946 3.666701319634085 12.268404753763557 0.9379849702043137 1.1963258163058945 2.250294535667395
Ni 0.13765733219714277 1.442732120835697 12.145632686582026 0.32422022240320936 -1.23569814745593 -1.180731047191431
Ni 8.815255634565753 8.764377120238272 2.1274598883000384 -0.6667603261615291 -0.5845045653844063 0.46362415025654996
Ni 6.301686006571959 8.043749978689448 0.258396675395586 -1.8256740203675526 -1.4434630803821722 0.6807142172384599
Ni 4.854455310483339 1.479492172747496 3.2011740670299957 -0.8027315741842368 0.5909580343192339 -0.36245561173532415
Ni 2.90746450535666 4.782347982359005 0.991874499061542 0.24652405597231092 0.9722089243841902 0.528133128573213
Ni 4.329971626708141 1.2898549188520634 13.098248751442542 0.8876193732675681 -0.06489644356306887 -1.3043435165384696
Ni 4.810268891573429 1.6640267038870302 10.107739059784606 -0.0760311200236497 -0.2660240736784515 1.901770703521815
Ni 1.034514300363835 7.817575742729469 11.77539901380876 0.5203599123856975 -0.3298241988535481 1.9373282889114505
Ni 1.3056092268142632 5.666903577907426 7.17992779598544 0.37039260719421374 0.48554049071366695 1.0465215190548363
Ni 0.39992519890025446 4.851917890970843 0.8514603953354386 -0.48370395172556047 0.7679918567102064 0.7697317222194486
Ni 1.4422673919872544 7.2819664503225585 1.0659095224492143 0.17250842371679323 0.448112427774196 -0.16698929367077694
Ni 6.913966264394907 1.3467749082092966 12.328981229700336 -0.4789366122439041 2.050379180692559 -0.45856344790419085
Ni 7.607137225577751 1.0569421145896685 8.329495946815873 -0.17915626805061402 -2.0752654024112775 -0.948502839016502
Ni 0.8212344310327405 1.6216248437551395 5.469104755975646 3.6663051762655696 -0.30027142489709574 -2.0484202571939756
Ni 6.110691744439074 5.476708649393863 4.756169806326241 -0.28774398185404637 0.4319692423554302 1.153818024850671
Ni 2.6549494382669616 3.0424496466752586 12.945208894361954 2.696531086575117 -0.42588626938614393 -0.9132632990879176
Ni 3.259933453169364 7.211429905705961 12.770566581490366 -0.5355037100056713 -0.5759787873015823 -0.13141885276533496
P 8.265918251975853 6.353103606363633 8.632774275478639 -0.04153282913646396 0.3051819748248357 0.33815508731674665
P 1.867215451003045 4.721840286291796 2.907908786135771 -0.27199391810864126 0.3542291100604738 0.3403544089609106
P 1.3538294921286533 7.203399391204875 9.811929853174009 0.4814832899251578 -1.7228023831122912 -1.2986053285031118
P 7.343459371548465 8.95720241403402 5.802160120873515 -0.6709458249977864 0.8718747088388017 0.5498574076241821
P 3.196265600932746 0.15802918599746668 11.101030052376203 -0.11090504908269933 0.25621171557372 0.6238668692321127
P 3.3003648629838582 0.4055809489857993 6.295669626900023 -0.6821725469515413 -0.2639219397337842 -0.6563756404930954
P 7.296224331392772 3.1905680252508417 0.10941204224650658 0.18822712000363068 -0.755572657110247 -0.12284448083276263
P 1.1570354139672068 3.6566259981998526 6.572692634541182 -0.3210461955506019 -0.7700376834956416 -0.5300144047563259
