# total energy = -381170.03962748294 ev
CRYSTAL
PRIMVEC
9.21830673337715 0.00000000000000 0.00000000000000
0.00000000000000 9.21830673337715 0.00000000000000
0.00000000000000 0.00000000000000 13.49192370502121
PRIMCOORD
 96 1
Ni 4.350349369486661 8.382916053558663 4.479736599905007 -0.6058966579069373 0.5701876345411018 -0.3255281425813555
Ni 2.7429901107910823 3.1036194855512407 0.11284313545957542 0.8115723124043184 -0.9966901973550061 -1.1854166255925584
Ni 6.201615804041217 7.433043298924676 9.856214400360386 -0.8039559335096411 -0.1389691543087671 -0.5357006565078257
Ni 0.9016351995550029 3.050217835082551 3.4286219487402976 -1.4849468014482556 0.431406942094057 0.8703801265711462
Ni 5.111781499421712 6.88363222211924 2.3916998025059506 -0.017489929254647298 -0.2610109367345763 -0.5964000312704116
Ni 5.018888623230967 0.06296379996483498 9.178407061102321 -1.4280716855277664 1.4260659679516472 -0.34202485468479804
Ni 0.7123833638701778 0.5498683048156626 9.957484873641748 1.4387535907216447 1.0053208764468107 1.212942341816653
Ni 3.1738814188970634 3.608441613052852 4.94597734855169 -2.073765163716667 -0.42152670686586763 -0.901855314361292
Ni 1.7109545889160402 7.424728386319331 11.44893590991403 0.32049366548124164 0.730867183943767 -0.8287501097351856
Ni 2.2387026450756236 8.216497963465232 3.013744682960263 0.22610101223126866 -0.7917673618632493 0.6385064735221584
Ni 4.309088228886307 5.036329659427542 0.4501889112634389 0.5834025905694791 -1.9164990108709252 1.3423642187566172
Ni 6.0914662577870535 4.430622383862865 11.736111973563434 1.835120510492433 -0.1517843037955644 -0.3354322890689449
Ni 3.426933154960587 0.22107711759024615 1.3439774881913145 0.36896127406432583 0.7112856622674136 0.43194893064045614
Ni 1.4512103622189474 8.52275776555763 0.3063151119323458 -0.9469408938460208 0.3468330747067188 -0.8186423318772224
Ni 3.483782452119297 7.69581113020553 13.24224224135761 1.330702980368605 0.18134376262023608 0.25673827750115136
Ni 1.0407468216666718 5.349945670232873 10.233030199780993 -0.35375217042405527 0.6673843328987732 1.3226934798005672
Ni 3.6056115929089048 4.161705942041252 11.644852581312453 0.3907146065810174 -2.525941220037275 1.7116862185944712
Ni 6.605405290573239 2.368948099843812 3.955036115926496 -0.15687148851048466 0.37226745561942337 -1.8222120299608813
Ni 3.3806756921516996 5.712215903578121 10.339629776141233 -0.5714888698510288 2.5468741135352007 -1.9613333935767965
Ni 5.368585086294963 1.04828739651276 -0.18216019237297254 -0.14460372688672515 -2.0213732803785125 0.7093177399077655
Ni 7.037448887011446 2.0598398409941496 6.242240881482183 0.5782297881192879 0.9083208674809776 0.5243788037371033
Ni 8.283247721974428 4.640947268567443 1.2594658964138503 0.9449524026610823 -1.34313374993279 -0.9462652079352348
Ni 2.824092772766489 1.4355484592073293 9.138727781924446 -0.17334583201642403 1.1627729200511137 -0.7279518100691851
Ni 8.714821184773086 2.105120163297309 8.052371544406931 0.0549267339448667 -0.5295904298450299 0.26623644679957376
P 1.1966376055568853 1.347817834744958 12.684296856248375 -0.7362644436999384 -0.4499757062351799 0.5396285308073222
Ni 5.284597094335663 5.0206585381092665 9.041099461603585 -0.11200265302225228 0.5990480104162199 0.004270859461211999
P 8.546089299708544 5.553255423570857 11.923797618947097 0.584454171762445 -0.13076167879731027 0.4622941185912168
Ni 2.8999963097868906 6.213369145029924 1.8044641698221924 -0.5053899213394264 2.091721748195088 0.3792045490588889
P 6.183833690498304 4.340319851842965 2.82399413688525 0.035898770779138174 -0.4437652065490938 -0.4673656195768532
P 4.0185364213388155 7.812690040319894 10.609725239384382 -0.19351150833102157 0.2372097205499205 0.5686809680885884
P 4.014277563662907 1.156132366102471 3.6245920863173344 0.3416343041145987 -0.014817010408174482 -2.1298311534722996
Ni 8.059003194216558 4.235194282717307 4.6091247521540195 -0.009458574309738548 -1.0485110386810395 -0.30673157870014267
Ni 1.4653696812453423 0.36832297349676596 6.609140548430983 -0.2613400379392209 -0.5784215924151199 0.7451128952295039
Ni 0.6325104240029231 7.85987855210122 4.962059606346903 0.6486253071237151 1.3093039458675386 -2.058515436646448
Ni 2.7655104339561105 7.436334234401513 5.993274698929401 0.2595616058825594 0.364288808289321 1.685504417992781
Ni 4.095536936851496 4.638817839729489 6.950755322048078 0.48835893399906866 0.1581089604620116 -0.6782639559257545
Ni 5.840276619668408 0.0852536654634179 2.1392389598991928 -0.31756260787737567 0.24560205837867383 0.7593979443936083
Ni 4.667938470461508 1.619656479777097 5.576778698500256 0.0034722748193166007 2.2177176301726385 -1.2028368779515348
Ni 0.40027270254206726 2.2932381472632235 5.808907643942549 0.55286071322688 0.8354720018400514 -0.007013198093039534
Ni 8.27865700525884 2.2000410669527715 12.596477736042088 -0.09823182449040502 -0.23989883734630943 -1.639236131053861
Ni 2.45748993529207 5.738239183273117 8.062840775278206 -1.1162958595354968 1.3294827348082587 1.2351124501557889
Ni 0.7873908814834406 4.01435131011617 12.681490803701738 -1.7264644053449105 1.2675350894608686 -0.9144845730895284
Ni 2.265242149943457 5.702545899894079 13.012676906996854 -0.3449605402743543 0.5548715730093219 -0.36026657450380534
Ni 7.238647648124792 6.891827296738032 7.682881533287286 -0.5940531283047897 0.6548412061264399 0.3300895366997928
Ni 1.368356221978557 3.680722355556735 8.421429216944324 0.3921012025158989 -2.253149231507371 0.8848716353191018
Ni 2.6358457325073648 2.3900303671702217 2.2038924754744045 -0.5253319116789921 -1.03722749534742 1.6856052052367037
Ni 4.400847253358141 2.009415703575933 10.67865512741815 1.0707929900076913 1.2577116756125435 0.31728827117006647
Ni 6.029786567939651 0.2273160675362515 11.076275723134765 1.7888211132052614 0.41447417089446037 1.9564670666234305
Ni 1.976331200981055 1.081547046934136 4.426888969666452 0.8743640509195586 -0.1807416102598629 -0.2397294016479807
Ni 8.878695022228964 3.3292283226944654 10.106152192434903 0.532424042639083 1.076668989172494 0.7295204401078855
Ni 0.641553582834234 6.884830601984755 6.939530190030864 0.20617959071699327 1.325308291715595 1.5125931024106143
Ni 0.7986307627913075 0.5306933051367535 2.1284719777228713 0.37773362094031715 1.267375423954553 0.29991686977115445
Ni 7.5264339636749416 5.7112387630723935 10.029248469142127 0.6701909491096328 -1.440685517637035 0.37065023173097456
Ni 8.805077625259699 8.578519302530719 11.945385049478354 0.5374842307708098 0.7459086516579218 -0.41077692454853126
Ni 5.25338390799232 2.4332365704753736 7.90369039815379 -0.8452180254832218 -0.29722723875413326 0.0420395935695534
Ni 6.427510408690835 7.306752497712687 4.2749970872043965 -0.620724209838073 -0.17373895368978468 1.2502539337829177
P 0.48449115216781313 6.8861396015301635 2.621926089454073 0.11414618172781632 0.42967273301176967 -0.7703292465941315
Ni 6.629843021523091 4.749585012529725 6.972653409513704 -0.39520915201726126 -0.737185155741995 0.22529471427988942
P 8.524039110183066 3.9092441776038283 6.7026261617398255 0.8649237314422652 -0.7300076641569493 -0.060554621654605394
Ni 2.296833286859769 8.527191771060036 8.59675680042253 0.22801802674832342 -1.6006832104813271 -0.07115039489258068
P 5.386505474437745 6.444545839394467 6.189662425798036 -0.09997837486786652 0.1422416544124518 -0.24849892031049461
P 5.9306068066082815 8.316470499169172 0.1075057359047038 0.4113086286822852 -2.3789929041777738 0.5522241080841458
P 0.41286306577530324 7.521861683572667 9.115629470931973 0.04604048719883038 -0.32511728029618203 0.5043036302537831
Ni 6.858475463250078 2.770552847697932 0.9060314100001122 1.1630698824662422 0.3364563594580851 0.17107323393216345
Ni 1.1286341573422258 5.53098399468559 4.14872564443639 -0.9138063160755812 -0.6578468257219832 -0.8322627508741344
Ni 8.992983588172484 5.237639040220781 8.296358919533832 -1.2101200418765095 0.42898084915106766 -0.5044769226068537
Ni 3.2663686895948643 6.2105483431926345 4.214998816491379 1.119611039951659 0.23405086320596463 0.2730087325264008
Ni 4.009106093627876 4.497667128185112 3.0285723292193496 0.4190437925430138 -0.6145998421078899 -2.1946813171784654
Ni 4.841122797641772 2.4972208369872284 1.7878417192568306 -0.3167169720476288 0.019900595578668953 0.6729497428016926
Ni 7.957030285967872 0.2183660136021844 0.5302499045865128 -0.4705519877246348 0.3958771246185634 -0.3925069225947498
Ni 3.125807949676588 0.6180247769208416 12.110674818836872 -0.13738124099635696 -0.6448200744450121 -0.29875395981130487
Ni 6.550261380146224 3.299729741389476 9.593027136126603 1.11858954066568 -0.9619363388135884 0.7100700446927577
Ni 6.904023116446314 7.118800443266613 11.999973096013903 1.1574211688208969 0.5358053004064901 0.09651175647550475
Ni -0.28968252122966043 6.759351011758655 0.3268470463512845 0.12656049623176915 0.12985845025675055 -0.06785141242633476
Ni 5.296802132350602 4.217246239654553 4.96131753266095 1.9419017672147463 0.4374567478325627 0.08960191672954891
Ni 2.831052594293135 2.4876706712897376 6.8790599420169665 -0.4201187707747474 -0.7076845751797167 0.4925716865288356
Ni 1.7842954366855714 2.6822045966894876 11.079270750967888 0.6947871503917582 -0.5420150287616279 -0.9860743695123728
Ni 7.592188145065095 5.983695034650605 2.8391997337173067 0.2156649044996092 0.7528076927706002 0.5197585313562726
Ni 1.4973664236545985 4.69906869204493 6.287856750147687 -0.6479557918605163 -0.6940294462901273 -0.8123603555232525
Ni 4.116315000058199 0.18961042781381407 7.076945643717496 -1.6222560515560964 -1.5158270359668797 0.08816261317986107
Ni 1.547569321713028 4.50310592911322 1.5706215411722118 -0.8736143172377276 0.2904708938669062 0.39011553954443784
Ni 8.052024936076597 9.120491205863301 9.09168123206565 -2.648755104742419 -0.9668818557443218 -0.5208178258587225
Ni 4.301593745573508 7.120588794758229 8.403700569580026 0.23199012402219402 0.02968261466609727 -1.3701344468913499
Ni 8.096189843274162 8.477643372774311 2.6258788993489413 -0.30653951729399465 -1.7337208297970077 0.8361026934455149
Ni 8.787756427049674 0.7196068289672372 4.32707591066769 -0.7174637660536677 0.6899593899858117 0.4443917843894991
Ni 8.11913420854545 8.8157616426761 6.5612846312476325 0.445551094804923 0.4927681188103578 -0.3179567579920008
Ni 8.221457412447133 6.361885283593891 5.375857408417309 -0.6289807934199103 -0.17297842137467628 0.4929766352767382
Ni 6.543255467086288 5.974596565979348 0.4708056541036294 -0.5011486295645692 0.25642151759168097 0.8462426100929943
P 5.170326965005459 2.9115099748024944 12.861621124948662 -1.6970939226025934 3.4300976717279186 -0.7183878205298337
Ni 4.815154827786723 6.22689240089693 12.180548661472399 -0.42348203082002545 1.451504976850042 -1.6718688294872173
P 6.250906089740524 0.306730857562613 7.444492435793674 1.0631899808494527 0.4700889320452872 -0.46634669139403556
Ni 0.34795973408966513 2.5981705131968984 0.9156903517161649 0.1743421344914223 -1.4480129045363834 1.7539196733423859
P 7.758938094198208 1.6663195480789277 10.593346152114785 -0.9597665848557793 -1.9973221529665797 -0.7066592192389958
P 3.455943166012713 3.737811328688548 8.935188492750683 0.6573729714093581 -0.7199225120068052 0.6524477661935989
P 8.030205204217562 1.612401672437401 2.40494927466522 0.4048798423378059 -0.5046543287249825 0.059634938053813424
Ni 6.38447935321218 0.2709020650757055 4.882645738151209 0.9115774267450624 -0.9262381140810305 -0.16282102122570022
