# total energy = -340861.3908786528 ev
CRYSTAL
PRIMVEC
9.35868798517533 0.00000000000000 0.00000000000000
0.00000000000000 9.35868798517533 0.00000000000000
0.00000000000000 0.00000000000000 13.69738585698586
PRIMCOORD
 96 1
Ni 0.7699355056149327 1.2059605158350137 3.5300624283645705 -0.8521906001463129 -1.7207316166261915 0.5473233283484187
Ni 3.756680246949004 0.09782449231662449 10.640950679707963 1.351167418870544 -1.0189361532374 0.4635909830257693
Ni 7.236305898905149 5.296455799562841 13.515484753768545 1.998300971940081 0.8323337133213858 -2.059182380806486
Ni 6.400986856522952 3.531669315067728 0.8590058813204128 -1.3255337774628397 -1.2271471725621252 0.1650817922354189
Ni 8.60618383236278 8.099279863872265 2.896804943527698 -0.7476752566400413 0.8594413681714552 -0.7370378315308532
Ni 4.16679666573623 3.0940009192618905 2.0578126161659474 -1.8463261494002654 4.750899848043043 0.9793434785464424
Ni 3.962852140196291 5.195073134127169 10.245274716267106 1.3007856239838824 -0.5766130784514716 0.7741949001971247
Ni 7.067306713782159 1.0756782223309067 7.268750597929648 1.8087515335806008 -3.2690630529786797 0.5499646226260076
Ni 5.3771183301074785 7.249529724831541 11.801461663887682 -0.04220208728934668 0.8096175026707927 0.18067296180545658
Ni 7.158151496703239 2.1133227372556864 5.350322535066823 -1.319337675954457 1.9196254723150488 0.3658273564210345
Ni 5.313572839633166 6.21957805131617 0.34001423160801036 -1.0337567631900002 1.393592163693658 1.6726167633968356
Ni 3.607287512863374 3.182047454517018 11.990033608771789 -0.1249890379795912 0.5972384680113069 -0.008135741733256955
Ni 1.2463806886418693 6.613288690309366 12.000211181804309 -1.101186257587568 -0.2595801178253207 -0.3887441131182079
Ni 5.440018071120416 0.14339568691391624 8.749972584166228 2.4405278874677774 -1.2995047003889297 1.2077787953378425
Ni 4.665801901684724 1.3927692839289352 1.1203968404654283 2.584896358415245 -5.004976262441315 -1.266066475335142
Ni 4.0143249233492675 6.884278855578019 6.939533484489562 1.0836243374444048 3.754777607376366 -0.3775446448579627
Ni 2.7226949789720085 4.313905879987438 3.4378653150497436 -0.685403138073697 0.014242883072259342 -0.3554686388945298
Ni 9.173732098095346 3.6622510865829065 9.54299597269723 -0.6138135987611687 -0.9814924065686452 -1.792451767979313
Ni 2.4995277085963936 7.795028921998942 8.820691508874495 -0.5076144397945709 1.379587364774134 1.0836346218570498
Ni 2.4136991823607663 1.0844473128426049 12.449854954577884 -0.30476211367859773 -0.5539048382206783 0.10715792333544127
Ni 9.081839142135514 0.9627469360932759 12.774058618938868 -0.5925004391056892 0.7758815438709283 1.0228737977289093
Ni 2.8463793975446885 5.674041419397385 8.126097183894965 -0.1574425305226063 -3.108537512655375 2.3375017269125227
Ni 1.6808764892679144 4.108576268646291 13.401522140130286 0.5707026265043074 -1.2484575040041275 0.5343878512336733
Ni 5.657607563539817 2.1184606568831383 12.63516726848523 1.3511401651770343 0.8269395388890082 0.3711801360925156
P 2.9964365984673846 2.386596422358763 0.35019180464053073 -1.7659673485355392 1.0077287145573548 0.05867128858896347
P 7.421299081556948 6.936135344932682 1.2077892034401212 0.4466201594993856 0.40491095268605753 -0.08193462999227824
P 2.2147615548184345 4.118683651519966 6.395459615481107 -1.1292580761231197 -0.9715985444937009 0.28875313984485107
P 3.125801740562584 7.185563093404161 11.006780851739151 0.7301161647103555 0.15745512892809657 -1.2844740313080523
P 9.191841159077349 6.191155716327882 5.628433725917494 -3.2575424539335893 -0.6140979627708069 -1.4713868033756339
P 5.426204647859726 8.975842643591765 2.964895012820025 0.4285884988086554 0.7585839331327452 -0.256489651825455
P 5.495964307063778 4.841642287623138 8.740370570436236 1.0724145847715143 0.5070493113197203 -0.32826508189654435
P 5.384062476489206 3.8947208926774417 5.081031907511003 0.7563326752047232 0.2061417955005224 0.25844780399309036
Ni 1.7423537097282606 6.434013665931471 2.57376643580354 0.9840064312397505 1.638900859201629 -0.20183802591884592
Ni 1.0717007799963585 8.138511483322679 4.1723061252711675 0.24866629912629434 0.04663749735288097 1.4629019058330743
Ni 8.262411151715817 5.5889335121259 3.3621189032306074 0.07243054715658492 0.5192119148241833 1.2420485151539897
Ni 4.368588693071591 6.587889211495334 3.4739168523700883 -2.0370169004530405 -0.20158297248524637 -0.28865080993903197
Ni 1.72209215054168 4.604811332992369 10.172349948833538 1.004603795775128 1.1448559305613766 0.12643451217686613
Ni 9.217118974949383 0.21288394417043474 8.973280234859532 -1.2137201005229419 0.026236565099025784 -0.4484548987152792
Ni 5.3066848453785145 9.253411966416154 5.206116385785443 1.251699922200825 -2.7510251038579394 -0.29946075607034234
Ni 3.5958792723791047 5.326815382935251 5.369279493167673 0.7710391281769624 -0.17700374048398548 -0.7386203455266248
Ni 6.055248851428331 4.775981733695632 3.054873181246567 -1.2128307559394533 -0.8219243450626038 0.3686332013009458
Ni 7.833652226739367 5.007730920826026 8.051542133038625 -2.573119677495291 -0.28769924465904 -0.032112564263828566
Ni 0.9338014504543956 2.79888405672626 1.8624200595796787 0.9429214882739826 -0.1811162199904623 -1.3708435571432327
Ni 1.789970713488687 2.81589815123028 8.256591919613177 0.9016791937947439 1.4298927978969052 -0.17839162197044764
Ni 4.652718456076022 1.743907251910696 5.9006143162801585 -0.5058997710963093 2.190452623809098 1.859941426190855
Ni 3.7579062350568297 1.1128134957038178 8.179284478661328 -2.5843538556482137 2.2817699805678573 -0.6939512847540242
Ni 6.4835117659489425 7.079650823051026 3.1633834233457487 0.1885503076710043 1.0579349030981007 -0.6566211808449982
Ni 4.324453121189875 3.787872753539708 7.178074271389795 -1.6895976142255482 1.0615778991673266 -0.9829450798547715
Ni 3.8880575069310925 8.220091165276223 1.6731078424869534 0.2565269328212937 -0.9625595742198843 -1.0709742527805621
Ni 0.35382484726234636 3.567672187211274 4.149663715896566 -0.06302339491007211 -0.47925362926369075 2.1504827682843803
Ni 8.415378904558619 7.815767774265669 13.042760585029177 0.39686262846028425 -0.557946869500536 0.18808673777102444
Ni 4.972139830947704 7.188539156139187 9.425185066616699 -0.19701412216764136 -0.05964342269424566 -0.8955905643985027
Ni 2.277764241397678 1.76998055624964 5.633872059424803 -0.6057863575813179 0.6959343766223242 1.0231697317027733
Ni 1.565240542242791 6.681429296516061 6.463576824968188 0.9261560958901855 1.937906272902108 0.3540231646972548
Ni 7.790480599705789 3.0970612101875306 2.661183131366632 0.780243677494366 0.9860419736125404 -0.25432658273586517
Ni 8.666116869328535 0.314390144285674 5.456175845686527 0.6091524458400734 -0.15101065885433348 -0.30224423235275044
P 2.704052472782785 2.0898324307622373 3.605288497139469 0.252726585238597 1.8860576636619326 -1.4450394237303565
P 1.0366057005738745 1.0521972745253034 7.32044424611579 -0.3200475790827585 -0.7035253015957045 -0.05139198131873085
P 6.08287569794971 8.2237691295997 7.1253530392781625 -0.043303290773325426 -0.019410543316127862 -0.4343842795548261
P 2.9220724648431022 7.512218733980797 5.0050243883009635 1.149895035647181 -0.2745701634762497 -1.4372255841128925
P 7.79641400780015 1.649085026655067 0.9304248358795603 0.2947378966733763 0.97446429607727 -0.8225833188028414
P 0.5619966921023222 4.771620585159398 2.5017588197788787 0.7589821970124284 -0.3632356844344583 -2.122803814311873
P 7.877965613690157 7.843993576809193 10.974865854446739 0.25384887176849835 -0.12183455151100951 3.0007956917920064
P 1.0803762836295965 8.52657883354474 13.456366858514174 -1.5866241612850995 0.44263314982717955 0.9638752077075142
Ni 0.7908212892808415 8.88517567573976 11.333408416252249 -0.5321275944445868 -0.6755835808801139 -1.3632253784763424
Ni 6.780285116233315 9.197035230831876 0.4210726346485334 -1.2993679177007493 -0.07141239030471572 0.05102379934603471
Ni 0.6623573888252114 5.045998595428302 7.716887621960017 0.05148685502538229 -0.704394077353903 0.13208065471904995
Ni 2.0582655766576936 0.42530650503006195 1.282472468319952 -0.17411047809659044 0.40098899192383197 0.050280750532423084
Ni 3.385130980775126 0.11800182331259135 3.6209586840688046 -0.5954484659904197 -0.6745741657789931 0.9003813009189269
Ni 3.233726128802607 5.529019192535835 12.538997392179779 1.371882282820392 0.9495418218039776 1.0860738274261619
Ni 8.861020902409244 2.864984468982528 6.852062508536964 1.0755652145853543 -1.1568686387515366 1.131394148629516
Ni 7.726504609590562 4.386145591470679 5.6554728468421445 -0.8306301003667179 1.896370101331534 -1.0497976187029467
Ni 5.539669379304579 2.82214039602356 10.336567780336011 0.6087603526079773 0.4036128026999242 0.7118178806218
Ni 3.0321680686633963 8.12691606908149 13.066634597724311 2.2142774941428383 -0.7544475423668684 -0.811917354448563
Ni 7.35924162245015 7.956494363405908 9.113130850817384 -0.54590202252086 -0.23490061280076965 -3.133236558063952
Ni 8.947354797788554 5.981333934820657 9.94247998622262 0.8840915626199677 0.553970144240975 1.1268782630370333
Ni 5.9891858739234465 6.075379388985068 6.649847468510964 1.1991897681172508 -2.1860272410478934 0.49707677348804064
Ni 6.821837690269535 0.5048815560469947 11.174820771357927 0.1170183610692888 -0.40368016560275 -0.39108973053224905
Ni 5.973528789157096 2.678007244507379 8.08156667538615 -0.16355044319255702 1.1432027112286698 -0.10876743391440623
Ni 0.34247275890515344 5.731101339194422 0.3692517083076857 -1.4061412040032621 0.9361258055083878 1.1479389403620746
Ni 8.141693437190318 2.8326782785381504 11.3565159524128 -1.984660241228195 -0.8788200298083834 1.026746136200122
Ni 8.631639463303888 3.4820963455474883 13.642103120980945 0.8907671748679304 -1.1944201146427493 0.40808497953866496
Ni 2.959366835909395 8.961907557389077 6.565773696246461 -0.5809821540534447 0.902093398514027 -0.04639555654540396
Ni 1.1486011180269058 2.849505199285251 11.499147034529697 -0.3990457521545321 -0.9546570315433558 0.2890413605092313
Ni 5.332318291388696 2.1768682277299978 3.687432507970128 0.992021331124427 -1.1940591317589049 0.09836629318574028
Ni 6.8149029025756525 5.465258452241065 10.571559752805042 -1.5529599362634352 -0.4722378600674899 0.3880799971716478
Ni 7.304090874973697 7.399016045795632 5.316832470609928 1.2802409670633115 0.33804504410144365 0.06046977525028295
Ni 1.799254531831915 1.015174305406544 9.81654667496055 0.33542920374515134 0.5347511481103628 0.1492319696873559
P 0.27358720114591706 7.39518834246662 8.590274063024586 1.0573646324169272 0.4023953853530553 -1.3400633385375824
P 5.316773510876498 4.751855036428655 12.390299072732319 0.7135693160952679 -0.4743585059549186 -0.7279500102969721
P 7.588763441873196 2.1538739316923863 9.359711686446111 0.26406412173860333 -1.0784456214569427 0.24107228882912027
P 3.487159395672172 2.468410071508458 9.951766612172204 -1.6442438686810972 -0.26563917953520705 -0.6251218246851363
P 7.688789097571199 1.3057802804004046 3.608712841022319 1.2893871523389535 -3.044581835739021 -0.5647482086930854
P 3.4275445540931795 5.957965291269205 1.2265215530326665 -1.0556070262958723 0.2865972698441129 0.3401638902166594
P 4.798629758282942 0.2474315403539281 12.873843756359229 -0.011091224817155092 -1.7700325197438485 -0.6486731296425151
P 9.116148091778934 4.760128116484515 11.830500736405021 0.5018942494813421 0.1328717831617776 0.4010231875958771
