# total energy = -340872.22229272017 ev
CRYSTAL
PRIMVEC
9.19910681782868 0.00000000000000 0.00000000000000

0.00000000000000 9.19910681782868 0.00000000000000

0.00000000000000 0.00000000000000 13.46382268786247

PRIMCOORD
 96 1
Ni 8.041849721690348 1.653429007900009 0.34019307816961925 -0.590282605518764 -0.18123140541208788 0.9376381283878561
Ni 1.5393508879311208 3.6216882373801504 10.70177321210467 -0.07226342545110134 -0.5842605676944003 -1.3877539597453261
Ni 7.01200974664664 3.209172703651834 6.561122899797267 0.3562024317367607 -1.1067982044577067 0.008340144434579184
Ni 4.948107406666012 4.704726645435719 7.366541472150789 0.17945323046574255 -0.16115031839149666 0.21155139655186794
Ni 3.6127743031611477 6.594802668592533 3.343107095046643 -0.5600281775095968 -2.7344911107586585 0.17410173634584208
Ni 0.3406502737637208 5.85749428092167 0.7157824784113526 -1.5780382193883018 1.0717625530098123 -0.5732541892815676
Ni 4.177029098955975 8.63877974384833 12.822997944550593 -1.436838890197435 0.036562886725698324 0.7197600182870121
Ni 1.3223715624165522 8.854066433763007 13.303091034693992 -0.22149205270434755 0.19315309655033833 -0.5289517678197665
Ni 2.3303176639399026 4.161326224124357 13.142911592394317 0.011684378316463748 0.7434969568926356 0.9875640666840217
Ni 5.79914434825796 6.523656778757892 9.305803278054935 1.9666149536907098 0.5986975690553367 -0.6210674521101045
Ni 3.2897844740967472 6.238254498938946 6.644409770418533 -0.6626925838500588 0.2738353421927542 -0.7290494140087379
Ni 5.070621107314803 9.086518656446163 8.755941404323112 -0.2641008885138097 0.5669454734547204 -0.3005655590987469
Ni 1.8219382411545926 3.130833112517647 4.173825050154655 1.5790211521268611 -0.3645415477300754 -0.0862337715882644
Ni 7.171522253723531 8.359789241274633 10.098109443973197 -0.8078400990553958 0.9417516363355974 0.5825839513229257
Ni 3.766555766875356 2.0953264878569056 7.22449806835758 1.974605428095354 -2.0317325121256498 1.004566000558657
Ni 4.993716576797917 0.6497255343042168 5.339981065271501 0.42357819007825764 0.13898200982457354 0.78572244122075
Ni 6.7562745853584305 4.319854426803484 10.638950673850372 0.024402854324396685 -0.8370642860278359 1.0421460156949598
Ni 5.684551078323887 4.511333829041401 13.234129012747474 -0.8583985287292378 -0.8812777473202564 -0.03413705089302507
Ni 2.4975942169206515 7.324641381768216 1.2353516943690002 -0.3886777786566467 -0.750771636177178 -0.023073851100328002
Ni 4.630775028112125 1.5697907314096344 2.994084714438016 -1.043091667437681 1.0091762456371587 -0.9570309310921711
Ni 6.244841059208096 2.944312028694635 1.6637108492587078 -0.18943039628311245 0.24841741634028183 0.07614090612863661
Ni 8.1634343125805 6.242614875429974 10.23072744322483 -0.25681001127935127 -0.3529456153623599 -1.1153630633085823
Ni 4.481832294428045 4.002338066119173 3.490441824910824 -0.5157632941539505 -0.17971059789218727 -1.119801044475278
Ni 5.4219717817839355 7.4192265950187695 6.893153610750662 -0.023007259528450702 0.31615775711004906 -0.22963987862246255
P 5.995490077845569 1.3648254390116992 7.237922324503906 -1.0154643926387157 0.045273784236134935 0.46264687394494514
P 2.8076501022163027 0.7623860719581942 8.845421113454421 2.230899676080551 0.4942997249635358 1.0289434009617568
P 0.6018221070059353 7.16254392575888 8.366890031598315 0.4613536090548183 -0.01744210673584738 0.7195083072875221
P 8.884359091537181 0.4366355910267941 12.097136925034658 -0.33716341282743867 -0.9414346193158109 -0.331391543340668
P 2.999727446378095 2.560166539477572 11.826191041113713 0.8898436346123966 -1.1119560945095626 -0.18474404655103668
P 3.4197494510276765 6.326032373363842 12.617809113864192 -3.7401428881823264 -1.1493769583601818 -2.496324168501791
P 7.148837257042354 6.2658426193959 0.5539941123811274 0.4642823526658391 -1.182012999227648 -1.0515305422336536
P 1.326943518357568 5.247078368603667 4.74356067361479 0.6988122123907513 0.14524033202945955 0.4214593439630419
Ni 5.666263254559824 6.308416084375823 11.601681327000923 0.3777665310607817 1.386528571978657 0.930009665308321
Ni 1.5909762737278628 4.838334468549027 2.2148256412987126 1.5191352744045061 -0.4822600201901824 1.356457977845522
Ni 0.6122161774641924 2.411950535208664 12.471431091078212 0.9192544836743459 -0.07622678097422356 0.17125655358756312
Ni 6.052312958826766 7.987786572665499 4.243109960740067 1.4206712792986371 0.06948483426469969 -0.4504493034374888
Ni 8.902030575164327 3.716209056885055 4.857558761356944 -0.9230244922397394 0.2543499797746329 0.3119861422308627
Ni 6.4433761761477415 9.32881392310696 12.621431722012225 0.7880276923151589 -2.1939770920225894 0.18218631312618946
Ni 3.7224368519998796 3.646709807117702 9.023251801346895 -2.659003264832988 0.16216050482356587 0.7994333630489393
Ni 9.126442778747993 4.852832260426373 7.086871155605177 0.8855228957498555 0.132504629630346 0.3450510431056315
Ni 0.3489901837358032 8.041086195849092 10.405689849704006 1.3586722118880212 0.6180870293255419 -0.28750178393625325
Ni 4.71203993512004 6.535817997578864 0.5050051905133492 2.2111749439581145 0.3256464133267747 3.1719085207128535
Ni 8.478954467149721 8.678335901889314 1.3568709716028535 -0.16721452230770556 -0.09382932454733518 -1.6606577912627465
Ni 6.988101268798149 5.434059407752738 6.538395587226092 -0.08201407707996199 1.6581424810400605 -1.8862368695522742
Ni 4.488115284181997 2.2536707084056093 0.1783393984830938 -0.7183091447730984 -0.809026148943697 -0.8377150322379574
Ni 6.424665193483705 2.290375143425032 4.128923291314228 1.0127472508178685 2.2453531325017204 0.6775157649058203
Ni 1.1485912411253447 6.5625689993423935 12.142886841496336 0.7763823947667468 -1.1259187273372415 -0.42340361217360634
Ni 0.17075841479900694 1.2020932446524033 10.050945624839215 2.4043666070558722 0.15398491099130898 0.2861226442005395
Ni 0.3976083816107786 2.473713336391723 6.8199783980174535 -0.0009551648244177099 -1.3147408006123937 -0.4157594653647872
Ni 2.2662090905939483 0.46677002416880553 11.132426624160752 0.27446371980537254 1.2808230648190264 -0.5406361461362302
Ni 8.746712860661084 2.1178183033011386 2.8269985829622555 0.17464963842951212 0.49569866219359143 -0.9983354462679129
Ni 0.4943903414985843 9.278586801501435 5.927515120028772 0.08335362182699194 -1.8962253482235538 1.1370076381615515
Ni 7.96619626966034 4.471225724609149 2.1268932218842616 1.272908180847324 0.5010853804268015 0.9133484026025561
Ni 2.8863392593982935 9.125338885965453 6.616620189528764 0.5237995341948657 -2.0757680530793086 1.2900371272181266
Ni 3.013259332070719 7.426677871300908 10.856216091577748 0.33597042096060203 0.07034229716898853 0.21139610192092625
Ni 1.496749825631635 0.12236191539119144 2.3026909072355592 -1.3988228159649778 0.32950615339249706 1.8095809714604318
P 0.4436940654604791 7.246697352214439 2.4699518217352217 1.848972328773861 -0.08074292367702222 -0.8921956797843408
P 7.777467400272249 7.67639681692428 5.616325904809714 0.21584128217647344 0.6475824676814976 0.4584690884181717
P 0.43533851700731074 3.1688990153022014 1.1846140223515498 0.11099349503144755 1.0065400935658921 -1.3344125680097083
P 4.197506310072074 7.656848715566817 5.114434611853778 -2.1378871910075565 0.3485593133692062 0.6250500909069363
P 7.174741941005936 4.646983853802406 4.133689348402841 -2.5575758162234212 0.14469731504179598 0.5183205133581654
P 0.9847551539835097 3.6871214820651512 8.521023821092284 3.6385655442584564 0.5750177089398936 0.2906760678991768
P 3.877506190627051 4.106186779636532 1.316248637116069 0.9057765037925691 0.21498124816902328 0.8001154767176285
P 8.915516465324346 4.570833650020255 11.195222485006138 -0.008766176228404258 -0.46952046113632684 2.1592944530387395
Ni 2.788929920445745 0.8062050959610813 4.70378833657056 -1.439810057010617 1.5063242386827669 -2.850599044198536
Ni 7.973022006699039 6.66710764584884 3.659264747697779 -0.057821281883842356 -1.014225120914976 0.20273482670150247
Ni 4.842768437892225 1.2456786113496527 10.976233154716697 -0.7381968848359609 2.0060937285116225 -0.06711761958410377
Ni 4.189466290972582 8.616287928404098 2.841270076819181 -0.42779325660086964 0.001889246602912875 -0.6772555692658981
Ni 7.375999993475845 0.9254209169220364 5.714517167816561 1.290521780164029 -1.5789756436009066 -0.036807398636336607
Ni 1.0172371991097207 0.3140896935051795 8.102905111581931 -2.089206437972402 -1.4423685617664126 0.09640171326020174
Ni 8.604283094393987 8.996238625047512 3.6366459845835544 -0.9853688588049159 0.19034468056726572 1.2028744160576896
Ni 7.6075507037199275 7.274589043186592 7.795916208400432 1.7045565495282256 0.9324781814534716 0.6923733987439431
Ni 2.5794478667459204 3.852475421782978 6.735156196517806 -1.6700112074531883 1.7360309659874231 -0.7068211987381569
Ni 3.999495542204135 4.595542450136087 11.182363973910864 -0.20936595886477494 0.10356943465323452 0.5542205696888842
Ni 7.371860395541324 1.6312407629709742 10.683381438436916 -1.7939643479690977 0.0906180166988891 -0.6644838714225266
Ni 8.33198954136769 2.9596193419458428 8.875688013730338 -1.4998645991003523 0.319292703194605 0.33630569281283373
Ni 7.715842585687008 0.6804937858855359 8.304445576622038 0.11605239761159367 -0.39468438986204285 -0.16373659106143415
Ni 2.0702681216932697 5.535415163402863 9.67551996869356 -2.422795503185021 0.886109364380945 -0.7162165239101279
Ni 2.4356198362876054 2.3698094282352367 1.7515761151955545 0.053377901400508077 0.7200958043598761 -0.003997036974535051
Ni 8.122673071585249 7.465166932985435 12.336119593437186 -0.29832972778969263 0.17731818640061076 1.1205021843073606
Ni 0.8926067840504116 6.903993837875196 6.207548801281971 -0.5155930871246732 -0.39329188038989044 0.6778415236763552
Ni 5.2046980848606905 5.573324681376558 4.988130879318269 0.5082978390148408 0.6250444344799816 0.12825228211189527
Ni 1.602107192618465 7.8501587400024455 4.269189427727551 0.8029773716464559 -0.6816009907187874 -0.7666224871665055
Ni 7.924211547497772 4.092461712706964 13.33338461237882 1.2786458546620496 -0.19424375851135578 -1.819566107697602
Ni 6.31744040787308 7.879651075509279 1.6364336586021684 -0.2911830894425824 3.238706037953377 0.3350738772882616
Ni 5.9536157449612555 5.810155678763787 2.3429471172828014 -0.72206732626395 -1.9604299079259206 1.7828535827679166
Ni 2.879697504490017 7.690811816842935 8.550994510138219 -0.8300942824679058 0.4103259530540417 -0.3150331565873026
Ni 5.805712510314068 2.870949154188395 8.903019479115352 0.8891882604165847 -1.1785150133767186 -0.5026087590498634
P 0.2795985635147473 1.5520456549303197 4.6670047892350555 1.1454298007869756 1.7669857624977245 -0.047290814666163715
P 3.960997281413086 5.8796365303180975 9.067816872888649 -0.6367686648954453 -1.6740342125696526 -1.3125707895442686
P 7.164880498815254 4.813460084515813 8.573115601589649 -0.6329006972996069 0.1161452144357161 -0.5917818157721098
P 6.926347666721611 1.0219747389681173 2.469763240051538 -1.0526178617605613 -2.1614788622845675 -1.1666619706928747
P 3.1336296409000792 0.33882701085122713 1.1425308697492054 2.0880180740912557 0.7311849722945021 -1.085338234811718
P 5.0010850611213655 8.375593306277983 10.864779539838295 1.4402273470536937 -1.0514729495228408 -0.6339612773536372
P 4.052031639546472 2.751250380135079 5.194800766154575 -0.9529649885529135 -0.19321788835000273 -1.0979361260813865
P 6.37611230926503 2.13100982205248 12.376188141711395 -1.1552452442155008 4.101587027934001 1.9862913490737144
