# total energy = -340887.3519209267 ev
CRYSTAL
PRIMVEC
9.10823364126392 0.00000000000000 0.00000000000000
0.00000000000000 9.10823364126392 0.00000000000000
0.00000000000000 0.00000000000000 13.33082060835845
PRIMCOORD
 96 1
Ni 6.26210184887957 2.4094647825987203 11.226603757030489 1.8417696403778347 -0.41221057167126424 0.8583977573982893
Ni 4.747593879915937 0.41505764944273343 6.165397911472677 -1.2595135047079729 0.4822047414722146 -1.2912576298887892
Ni 2.826175576433511 1.504242989735817 4.673119497347915 1.0561778111976778 0.17502141994663403 -0.1500503518235932
Ni 3.660216523985516 4.3669152580645 4.79897524710312 0.2755548959870222 -0.24216012257666036 0.21654036512602706
Ni 3.858038248784926 2.5602060481003655 2.6029364150474605 -0.2077073402154294 0.13606252218493342 0.3649804350397069
Ni 5.305090639965769 4.417538820219071 2.656045614141935 -0.7022068398945971 0.9921992514631879 0.7603009158238518
Ni 5.263156332632259 4.809875981033777 11.65272335613798 -0.25375091273805334 -1.386393846173006 -1.377388557350602
Ni 5.707091636592997 7.933672197438996 12.424804634040347 0.1759318475760454 0.41178839653218113 0.2862951652226618
Ni 1.9422215089450092 6.565424243063002 0.035109507923214094 -0.06330313093402001 -0.06935756465821605 2.1080919620229954
Ni 3.2006697076942756 1.9272840058983205 13.07296201852666 -0.9330782769313156 0.21598526395350542 0.5480080131202691
Ni 8.563697821367354 8.843411674150166 6.441065886905891 -1.4873304711890838 2.233964431048804 1.7531015483164647
Ni 8.641964872391863 2.360790382427071 0.7708106793200431 -0.2572563547881505 0.033938561728973804 0.17112851265013107
Ni 7.265947594784879 1.0042829411164316 4.759716027967667 -2.3025460367729442 -2.1604889875674727 -0.8080388453297631
Ni 0.9470468013936316 7.23327636098703 2.62306561122623 -0.38448945160691206 0.7649304441760633 -0.6245692946157759
Ni 7.672001755348556 4.009398874168996 3.5863505714196404 0.956098906196205 -0.530226520767132 1.3749321253903095
Ni 7.31404817624193 4.449581585900931 12.683009393259283 2.1322827003365856 -1.3239111542577522 -0.009125102229719769
Ni 8.206582199748713 7.678541467048265 9.163992349292663 -0.6889628304004973 -2.0057990800893393 -0.6893659793761869
Ni 6.8508762829917975 0.7573077230598503 0.22747448999380046 0.4914319164974375 -0.07846466916580681 -0.5055084491951616
Ni 1.9752297473847653 6.688303422089147 9.279063950506842 -0.07599615302065621 -0.35953432432347115 -0.5005493054176734
Ni 0.1175836520314226 4.8141568508093515 1.5661316151636469 0.4917787583138949 -0.12422336345816025 -1.0838724488994689
Ni 6.541087042977177 1.8695195886287472 6.890194705645423 -0.19329142190041548 1.1914939421348898 -0.5643219197889442
Ni 3.619129282373557 4.340264566653151 0.44120192306786477 0.06215436204155747 0.8333194742734228 -0.7614471136131531
Ni 6.424774900351436 5.848005118077949 4.834395345790902 -0.8814340703924626 0.05873479483704724 -0.3424629706634812
Ni 5.737977656612095 3.1395716769398927 8.951205796745867 -0.9167972803831049 0.052286982329174475 -0.04510949074412877
P -0.06892200338676448 5.850500774074774 12.600425039524938 1.776865740615598 -0.11792827447806786 0.15185603757376429
P 4.186135038265306 6.248995100779457 12.578175446572223 -2.103953000153957 1.1763357463372128 1.3393804535379448
P 2.332308936069147 8.418157357231353 1.3904975473287082 -0.35404759017728704 0.062326883063679756 -1.7470555992327008
P 6.255452838377081 8.067535906144595 5.5199593347055345 2.2010939055730283 -0.9342105907635458 0.30763789256449603
P 4.949095331075629 0.9828330510707293 12.479687206209936 1.0625970844604604 0.49815406571261944 -0.17480313328824088
P 4.182528177773544 6.248949559611631 7.990027570976055 -0.21148686186251967 1.0814065038574794 1.211654733353481
P 4.941735878355065 0.8734950828857502 3.6222370116659532 -0.44344870374993955 0.5141049326149211 0.9226154297267787
P 0.3049482138747943 5.475979318113314 3.7001688796952696 -0.35010608903103574 0.3774088906110468 0.09919161730051303
Ni 0.6673174646137592 0.31567680219107147 4.32342526443808 0.9869783693838808 -1.204140684364623 0.9523091001364694
Ni 1.9717595103964798 6.3197478591127965 4.76235559405482 0.5493282745935895 0.5833588818157371 -0.2812123513831157
Ni 6.388606104864606 6.02649006301875 9.147182193425 -2.1733905261204893 0.665070597163932 -0.38607890758121893
Ni 8.550254068625334 2.578222134092043 9.82832049165037 0.005425027670313238 0.07996130831599131 0.6681962872771072
Ni 2.420503961679566 5.215993899232409 6.9252814429847245 0.7765238054406175 -0.374969942152251 0.6880413470274925
Ni 0.5900149755237883 9.095445605128779 8.700439731879511 1.506650254563618 1.1651504191443545 0.1500809479512125
Ni 1.332889791676454 1.2468534174209527 10.951642580521922 -0.6884524664229821 0.4845354464879204 0.3264120878482056
Ni 3.920712003946064 6.493942826044457 1.5274589662697835 -0.42319201038343246 1.7012305704787865 0.5816614395086563
Ni 5.836993263697798 8.118970101086456 7.756364947098157 -0.23049477042359015 -0.3788271111148121 0.5825811231094483
Ni 5.624024546479703 2.8341634972700636 4.804973929729064 -0.9579490720310663 -0.12397062401740584 -0.5712122191508743
Ni 0.9035349480066551 7.234797435992393 6.732171407408517 1.20360692334834 -0.12181012603097732 0.9568933770730423
Ni 5.253729310892428 4.691423403520247 7.03612682382472 1.0616144088322168 0.820943212096257 -0.25343106750478933
Ni 1.137645696975954 7.739830770707514 11.572218412126535 -2.0034750599418527 -0.2357868720604649 -0.917393262095891
Ni 4.748249672732621 0.5233490815910878 10.295059169164578 -0.6346732158189973 -1.2851175784293223 -0.3865298790757085
Ni 8.4517940637871 7.531397953804816 4.687342914883103 -0.9284847440233622 -1.8207626991088641 -1.4295516125074026
Ni 7.637955178282384 6.5012840622978905 6.910217335491482 -0.825359853106714 0.6389870127030027 0.4021454741257784
Ni 2.52813595771781 4.917170972430114 2.682200817647344 0.5341785634363446 1.3037506201494773 -1.3792582635694892
Ni 2.33454956152615 5.406164707837174 11.385920424433632 0.5231750132369893 -0.813135028905748 -0.4985219905749995
Ni 1.343837888421649 3.4742537192878062 3.802736697871344 -1.5682842253253313 -1.6874581992850421 0.8879196781168063
Ni 1.3582288974544345 1.2397216705395155 2.2578008530369345 0.6565898133864304 0.24887532981330687 -0.12156201457591323
Ni 1.04605330024577 3.6205865997439655 8.376661155932323 1.2684043794396993 -2.2346151772589256 -0.2208726739527938
Ni 3.9326073569820243 2.9222583323112667 6.883129448869011 -0.729653366141324 -1.7344412529028002 0.37072145128854217
Ni 4.192346853556673 6.889595383876843 5.849697427874336 0.09005211689309008 0.9069550974817024 0.26202755092454877
Ni 1.1194292298458457 0.5570978194196828 -0.1406438777714266 -0.24668680680242033 -0.005142720543204046 1.0570686984430633
P 0.4250165920227636 5.540265230615466 8.072598262360053 -0.23956613659723905 2.8643924984382023 0.8161092810427235
P 8.531609514517667 1.7030028625924278 7.661675750955855 1.2877596440378596 -0.4480795176537315 1.360554516512399
P 2.062905603681976 3.298683409087823 10.44369825435941 -0.9599648169095144 1.1552272464933717 -0.3687730693129197
P 4.156597036813835 6.261163700822369 3.772875354128314 -1.5017088513979426 -2.4157020866733494 -0.5440557133407403
P 7.031337714616215 4.336247835650963 10.337691167189169 0.23934476461505227 -0.09470967026975946 0.3489763463019667
P 6.260835804414027 8.132340987959957 10.045679377446822 0.6119775739936943 -1.2600511223789979 0.3060224684482601
P 2.4258049536144273 8.593663909796382 5.659586733611101 0.38823374914069264 -0.8748710724629642 -0.13892107467965106
P 7.0773707270539985 4.209807337300881 1.5458284517237846 0.3087694350657779 -0.518761714660642 -1.1794172134760141
Ni 5.5247174759199185 3.0038772132877165 0.43709502055338184 0.26359412408072025 -0.4129369083143275 -0.5884614931496253
Ni 1.550858929121764 1.0956658484746196 6.755713458704112 -0.2070635359838434 1.0511050246604607 0.32670467938795994
Ni 6.984038657712889 0.9303696257360176 8.99195876618599 -0.5087272132427755 -0.9600913151850496 1.207316253879127
Ni 2.6274885694454206 1.4302568084868825 8.905654609863676 0.8550501810822951 0.6773188184036658 0.39946638463171846
Ni 6.490326857319131 2.008520341065038 2.4941030430019855 0.9466909826187438 0.17034509751688728 -0.008011557450566847
Ni 4.215017246900093 7.138878628318809 10.61782490953933 0.0530508570783925 -0.5303350213205382 -1.8870400821798599
Ni 8.594556516685756 7.872018564437145 0.19747196863051222 -0.45732828994550917 -0.8118353362577179 0.1956061860765212
Ni 7.667128850391252 4.315189599648558 8.16099457993226 0.6407639020977675 -0.6796088999894232 -1.039628905700061
Ni 3.242449175057179 8.587716233278401 12.28552425883361 0.40318548535451854 0.4237440262321605 1.3397697185565636
Ni 0.07807031317950483 5.193551211728116 10.22501958551938 0.3327609128843689 -0.6834267310736165 0.11020570902282956
Ni 8.852711180620085 2.4231271329463016 5.612515382546902 0.9279093311358665 1.6394276782393764 0.8741133683613334
Ni 3.9786039364855474 2.5769105484586747 10.858486300088616 -0.2808814504062582 1.0146598944595493 0.08353359904828195
Ni 1.2718373020898963 3.589336250382265 12.734613001345453 -0.48919582807806716 0.23477642851807953 -0.5638352099605128
Ni 3.176460022878362 8.278446162576989 7.88256772055219 0.10733764344641515 0.3986359183106231 -0.3625060053572854
Ni 5.546495262373963 7.694726798093366 3.3080430298992725 1.0562544300718844 1.8014462581684396 0.3387040178416812
Ni 3.0587907534514276 8.36859035017033 3.416689683156664 0.6755704682539913 0.23967180893716786 0.5346950980614469
Ni 3.8064947550402852 4.703400730658294 9.43996727219702 -0.25375091273805334 -0.15353753904124526 -0.19067660998538774
Ni 7.490975613243105 6.497649877105434 11.25121238247655 -0.7925312366124674 -0.22042041690672362 0.8759013134996916
Ni 8.17862903093756 9.15277282718723 2.3460915150997868 0.13967415079559173 -0.35181381575076187 0.10909319268494115
Ni 4.687324698415973 0.5520199792071652 1.438115392406811 -0.44811294199482826 -1.352277106994955 -0.12143988717575213
Ni 5.946419581748359 5.917883485989044 0.5746985699607934 0.5772417131744059 0.24186290305121574 0.018006978100381894
Ni 7.973894156862275 -0.24867299279310742 11.212833018703481 0.5159255307634275 1.325090519277834 0.6511352180297625
Ni 0.08077363690161289 4.95102627659142 6.101183043192333 -0.1728670926077926 -1.5609141581135053 -2.4179042365309904
Ni 7.552720328580608 6.339959029393652 2.5299494070206126 0.09851747405162388 -0.1490224247797111 0.29392748495693893
P 8.692479135743655 1.9229393784877897 3.5010337476157782 -0.29616485892788996 0.5271586804750857 -2.188751581957592
P 2.187733944691043 3.05153149130008 1.3536510992646384 -1.8583753672553158 0.532799937921263 0.3585308227596212
P 4.7458906402392715 1.2990253792815827 8.221943235656177 0.20194241270719415 -0.16734744834114404 -0.5806075443228452
P 8.39459435699856 1.8004154205706817 11.925472142713595 0.286731481429132 -0.3746210434532645 1.1321063442051922
P 6.566025386478295 7.9018753540633915 1.3939504786732204 0.2778331504982376 0.7881721883128233 -1.4798503607619544
P 2.008502124597908 3.211171500994783 5.948318648446673 -0.5963792053348053 0.14348169746714 0.09348119717929708
P 7.000624751034851 4.015273684818456 5.96320969950218 1.0653749043159135 0.3248036057105051 -0.013742546397073107
P 2.4475463071342114 8.636080953508838 10.188679555241528 0.5956598106702774 0.34084471833376784 -1.339958951749234
