# total energy = -340887.48710708175 ev
CRYSTAL
PRIMVEC
9.09141849630557 0.00000000000000 0.00000000000000

0.00000000000000 9.09141849630557 0.00000000000000

0.00000000000000 0.00000000000000 13.30620994400770

PRIMCOORD
 96 1
Ni 6.432778572899027 2.128646528382416 10.848313222290484 0.7210183161741454 -0.5985245338125821 2.485527077886287
Ni 4.616258622058168 0.5919631642449938 5.828172882185162 -0.19416354009272366 -0.8919694227061477 -0.43930408545394667
Ni 3.161449844876531 2.431099836714366 4.120134463477564 0.1386361964493806 -0.8206711893817931 2.33111099289483
Ni 3.679315221490832 4.75823021226232 4.991332362525924 -0.33620387712764677 -1.2139805532731804 0.41674934008188225
Ni 4.083428770707953 2.6671857905067218 2.107583530163603 0.03693158291902671 -0.8261067585750677 -1.5213747052579862
Ni 5.152615943759255 4.588347967477818 2.6693186372704187 0.6171701739382274 0.7198502640079731 0.02748792100762363
Ni 5.171226077285631 4.742083853130495 11.264491992906168 1.1796103033234266 -0.6701276999718653 0.5529830977373573
Ni 5.3087610552959035 8.169303132973598 12.175887598543131 1.3132431330209449 -0.4332511943916474 0.8281955227832962
Ni 2.0384778403928676 6.328818203151045 0.39275927673979266 -0.3502143324741259 1.2943612085147773 -0.05281328714628969
Ni 2.4521373789615746 1.679312263894069 0.1546077526801225 0.6692123872464475 -1.127269327827865 1.0405920409442788
Ni 8.147665557110004 8.8122300615121 6.717453612490953 0.31869903547466405 0.48775498186648253 -0.2786600172749072
Ni 8.761536312345966 2.188158953425729 1.2373275020646002 0.45698041968778724 0.7463542238357727 0.6716518499258756
Ni 7.16735609063118 1.0227027506182949 4.790621117845015 -1.108430340744491 -0.843111263552864 -1.0012618758860885
Ni 0.9547898549455863 7.603816906622531 2.322731947311481 -0.5924644436614313 0.018365389881065144 0.5046365881131696
Ni 7.838002753963 4.235355464093045 3.906064288555494 0.02360504101344967 -0.6259301795190446 -1.008365319700089
Ni 7.942726802859108 3.841678863233657 12.828384154121135 -2.594209408286055 1.2967615904261538 -0.894817433677904
Ni 8.015985452568705 7.208276564984976 8.734608440097908 1.3825348774382318 1.7133124413439846 2.158101718282219
Ni 6.666191649672938 0.8456673778130043 0.1557669085299579 1.2850928958389738 -0.014767645227477793 -1.877656584082431
Ni 2.0141492046739695 6.349355717384599 9.362568166474967 -0.4262660213230659 1.431859948925605 -1.9695467826255244
Ni 0.1800591785751356 5.005134953986473 1.3115916626525637 -0.06121539516705587 -0.7070361429624403 1.0889431785541568
Ni 6.507319112607265 2.08226211155214 6.899749279999889 0.928977881609697 0.3331998001940003 0.25161458312134083
Ni 3.5068510138721862 4.38998230875187 0.4932576343495993 0.5673216258472165 -0.23652246467490884 -1.0236343300440176
Ni 5.960706670917046 5.664026413288197 4.905906667531349 1.5576617126144787 0.8038985979091444 -1.619869296491475
Ni 5.45002351486251 3.231471949625018 9.210611471409056 0.46638268683829354 -0.2585799586955805 -1.8723608829011305
P 0.3769829383380723 5.635843016154945 12.415731944714482 0.30044574569143095 -0.10248597178106866 0.2581521271295425
P 4.120130826910192 6.28472482376515 12.579783862859774 0.24477956247737845 -0.5669657851696945 0.28800392038365236
P 2.238570868620531 8.694168901779062 1.037334479439668 1.5979352154225448 0.12919279164829364 0.29402647242864843
P 6.4110500828511325 7.836020824745241 5.956072774943234 -1.3206347974993253 0.1603933856208141 -0.8000697110813577
P 4.73817454320556 1.247778996691822 12.24998993188304 0.07610053980900443 0.2154273345675064 1.0927252713044084
P 4.181252433015629 6.176218744802128 8.175867137080116 -0.1329867114730871 -0.009262142028216307 0.10142796283019952
P 4.946940784615522 1.1884847656908306 3.5710673388112237 0.03164205238531325 -0.6073567873922314 0.3031749716971359
P 0.22348706613194874 5.953142610783218 3.4682633974875485 0.457490012334354 -0.8944366532997177 0.7010395590593734
Ni 0.5260158332368688 8.934091434148911 4.549126679228603 1.022079326852072 0.5820890139643782 0.19160323556471517
Ni 2.091298981471641 6.500782382756036 4.694004795904853 -0.29792246504894493 0.9712815274739144 -0.38769098926334516
Ni 6.1503082022763955 5.902512501546095 9.132117982967417 0.47564251487366466 -0.8823198154315256 0.3880486297130801
Ni 8.741426094778625 2.5350874807176376 10.089274334130355 0.978707130514024 -0.5459418746198598 0.3916546018967835
Ni 2.5198957205209718 5.017408368867083 7.409403287488139 0.5004878560521188 1.133565445249222 -1.7649684749573797
Ni 0.4614667623832904 0.1645828569816079 9.150320820948128 1.1527736427465567 -0.7403951780388603 -0.31039771469782024
Ni 1.2717167014182265 1.02775757926542 11.306273424585292 0.8640338726381442 0.9347438375591967 -0.10316577145691265
Ni 4.152041705599778 6.950998514832101 1.4853059403053455 0.545064614221229 0.21720628084480012 -0.3416404747621858
Ni 5.774178038987065 8.295792037591323 7.982062642980541 0.3198244073283588 -0.8989713079452777 -0.012428455571339885
Ni 5.458760367973818 3.103964806143126 4.804287338029113 0.18719662185658728 -0.645055844604902 -0.3193922048869467
Ni 1.0293394860722542 7.564396516309698 6.833830132388896 0.08408998577238422 -0.42247698659427885 0.38152445544131713
Ni 5.45900583627143 4.788140978897288 6.942076196784819 -0.8906622738589499 -0.838750415481007 1.6116731338339276
Ni 0.8826985433624122 7.51110262147256 11.22723445103785 -0.12187594627190622 0.21301409714032346 -0.1067249495630807
Ni 4.697399531546645 0.41896529036450253 10.196801267328457 -0.33813349005019183 -0.08438591974624822 -0.876899929967535
Ni 7.871677367828021 7.356630330927046 4.548701200846075 0.7946770793108766 0.1888318434671651 -0.2767751415473685
Ni 7.5614599881567806 6.157208588864828 6.8693312122165215 -0.8244306564242252 -1.0801523197354042 -1.5078902976183064
Ni 2.617983033963121 5.280041264475276 2.566913809215824 0.3065976242254397 1.0494734025943089 -0.027980801483642136
Ni 2.4743477141862633 5.590013175848905 11.431152238999049 -0.7901311118114069 -1.7380209998342582 0.9729211199598663
Ni 1.32791075873456 3.85323405605829 3.7618389357225244 -1.6952188170670675 -0.07013943712956308 0.582324784124268
Ni 1.668720761423024 1.2955362177050398 2.6775418252404277 -1.0444705500630787 -0.14894014947854994 -0.972012749212984
Ni 1.14602784162235 3.2867386822614835 7.86370419386484 -0.36808555632759193 -0.8281096479377094 0.6603443953328563
Ni 3.8949182095602137 2.804157100574329 7.012864708106962 -0.14966494345971645 1.1076605524580019 -0.7481488538423503
Ni 4.315696328759675 6.895186297089831 6.004786413175296 -0.47304930022519176 1.5223982614264944 0.5496144383754406
Ni 0.3258091622788297 9.035988051913264 13.394829525116577 1.1107183654477193 1.4992030542569537 -0.5273301730559435
P 0.3659577752079125 5.748503873340514 7.871767372870479 0.9612071739570479 -0.984167125187331 1.032172706532332
P 8.904535232832718 1.5975440465339161 7.676419155921475 -0.15506914519442327 0.6514630336828264 -0.564209562580796
P 1.8033101198619501 3.38118033691317 10.308906638847949 -0.3795989562838301 -0.5308366435473051 0.10570627849057923
P 4.2717302292318005 6.376484509979963 3.6839709368688767 -0.48954472677705363 0.7734901608206163 -0.9447310306788956
P 7.263897862940215 4.249274425709499 10.4329863175817 -2.465163683738587 -0.26924489460859435 0.36409237600779876
P 6.40855903420129 8.067733806272727 10.191864627120923 -0.2398265893474773 -1.129504644916287 -0.6937890481445471
P 2.651684922083433 8.40606185172978 5.700141163859853 0.0003599544425800252 0.33275011425109147 -0.8759288243035173
P 7.074196325978135 4.182743425638163 1.6851653190793554 0.16568651569895335 0.06449098059453409 -1.1300443194698409
Ni 5.773368902746787 2.9335370762528186 0.27880380156977946 -1.3762313038177074 1.4515350587570293 -0.9692686108089434
Ni 1.8428759728696646 1.00653820864961 6.728405135131829 -0.28179419202851475 0.6795672481182102 -0.0320328600658287
Ni 7.363630723118208 0.6812190738241616 8.765638360341619 -1.9502316272366804 1.0599884431930195 1.6413156392907087
Ni 2.8398318264939686 1.6378372130160375 8.954240744815502 -0.1320875966975854 0.5019546704056324 0.7586628659997966
Ni 6.516374165363626 2.106672570036909 2.3561174540704264 0.7059372534713068 -0.001680215915900332 1.1345005554689815
Ni 4.272184800153305 6.776925126151331 10.270504487399284 -0.04475879227292937 1.757535415718102 0.528858950995644
Ni 8.31677503132795 7.165419618505572 0.2842968365852347 -0.5337581880694743 -0.6958850114416273 1.3468837038935255
Ni 7.954409275541763 3.9530032819100045 8.359520153360664 -1.1285895893011855 0.677005400928305 -1.8046405967360208
Ni 2.9351917144070936 8.284691415688192 12.188873780628658 -0.014648860261426385 0.43714461590878256 0.0287233360766215
Ni 0.12184409894179489 4.998643681227395 10.259021116780248 1.2048495375061896 0.34619826933619735 -0.09472226867524977
Ni -0.007960445977379337 2.5284143795899583 5.491832220796925 -0.10399520933674347 -0.6008583241520813 0.5122635085308082
Ni 3.5122785906749447 2.9093175375550815 11.686697464799149 -0.14238332219663863 0.5334365430639975 -0.7432735280279199
Ni 1.0057927123383432 3.35661532431509 12.733297917902757 2.572135202094835 0.9957756559605366 -0.8539464064951552
Ni 3.472476360788048 8.322238973804428 8.100341087614058 -1.3514461264532274 0.02539530014465304 -0.8537152643209557
Ni 5.835408742113663 8.021503943555764 3.089235799144551 -1.0866186441860382 0.8526803952985379 1.653246843510656
Ni 3.151021987937227 8.698050937448707 3.2668739329917558 0.9143673307853737 -0.7214317495624801 0.9014153986103959
Ni 3.5722819523134826 4.368226544448685 9.562973030354781 -0.9111454814139662 0.25772275290160773 -0.7732387069314425
Ni 7.6879488927745046 6.636408162895991 11.454557186605449 -1.1234409552207103 -1.1127405380840707 -1.7561521622173304
Ni 7.886969133627418 9.097146023692423 1.9708358689893755 0.8382500788058208 -0.6641917941034046 1.7028696487441062
Ni 4.564237525801242 0.38839448675151056 1.2307689528091394 -0.9210113184644525 -0.08831122294258338 -0.17672657556319885
Ni 6.2746151664709 5.8337995610515385 13.217630506779546 -0.8117780006572213 0.0056350867985902955 1.6034384046289611
Ni 8.043541541830281 8.998431402378598 11.122647682560036 0.21256492541804684 1.3998954802038663 0.7818950970548599
Ni 0.33377960881648217 4.998970972290878 5.708577091021126 0.08218068456481331 0.2340801737820033 0.6164901171520674
Ni 7.290599358869364 6.249304657561552 2.5418724062920077 -0.02351222418932725 -0.4632508260775312 -1.1537856289508386
P 8.698223674398879 1.6360643864221716 3.4004023228998914 -0.019796723010953005 -0.2437801746785866 0.47729342021352633
P 2.00973077531695 3.256009687967808 1.7968843053155685 -0.3243390073692608 0.3029574563696912 -1.4780590731894867
P 4.866163531864247 1.2364965464200905 8.003792042170279 0.10888184800508346 -0.39330704989854204 1.4869275793237102
P 8.60140915953694 1.8016282074523853 12.395785372678883 -1.0150926111215937 -1.2463165464017245 -0.9763391445024798
P 6.266823820876319 7.997038936560415 1.010661166907652 0.2656204104821296 -1.6605202372436176 -0.44055544136254454
P 2.1436928258842003 3.3692705787697634 5.875716454865272 -0.8931577865872941 -0.22688982668115118 -0.658712259046072
P 7.140027286830355 3.921446968539192 5.922580898588657 1.058807792621357 0.5149271714059003 0.28912929223734724
P 2.4035801131265093 8.781519250055284 9.89608078334928 0.22524252088571534 -1.2208970778873556 1.5253133781907602
