# total energy = -340862.60316770914 ev
CRYSTAL
PRIMVEC
9.34042474702655 0.00000000000000 0.00000000000000
0.00000000000000 9.34042474702655 0.00000000000000
0.00000000000000 0.00000000000000 13.67065576188008
PRIMCOORD
 96 1
Ni 6.988608641521575 0.005409974091759272 9.376525624350693 0.3786910997575801 -2.318991583923477 -0.05413637683308742
Ni 6.119164531788633 1.0558883308061584 4.01535898877077 -1.7511734780558166 0.794262103260645 -0.40433579690887783
Ni 2.18583689050313 4.950985613048894 9.022222759634824 0.20457162279992508 -0.08109927857517645 1.0721394767332568
Ni 1.7692539407578547 8.957719653483458 12.476647202318652 0.47700237133566886 0.6534996044968809 -1.0043649402914445
Ni 3.2269673499954425 7.574552175230558 0.01963637522980925 -1.194481049787672 0.8004672036300924 0.07700993899715125
Ni 4.845476173579777 8.089536501109611 9.421269061663805 0.1639091120835564 -0.12608921302230544 0.507778476176261
Ni 0.6564310500823618 2.1737223594309416 1.750664627157338 0.2746580952043657 0.9803125273279312 0.8103088723108626
Ni 0.9151103810244134 8.141814859175177 0.9958471456210102 0.266372972377438 0.33688059147969723 0.24446048857506286
Ni 3.82000026619 5.6515828621866495 3.955221597209335 -0.09179018263011933 -0.6735765777524141 1.3300481203934256
Ni 5.907538525233057 4.433031032057308 11.69602586300281 -1.5777039759773344 0.9951038267044926 2.034987528727837
Ni 0.48969138934059475 5.05798952049916 10.77810961834379 -1.2379638035616551 0.003623969905832469 -0.4181907005140992
Ni 3.7922218425903935 3.655524724439674 7.721009103340669 -1.1020807443773795 0.014425945617342898 -0.018383901823826404
Ni 4.310811572473969 2.893187266830702 12.500898681482747 0.11236749256083874 0.09024160719607685 -0.8245805517385284
Ni 4.93709640124909 7.968493935061426 3.7370927868507846 -0.9164571234348667 0.18443654261294687 0.19605304380595268
Ni 7.7682165447377 2.8070965706916393 1.125118625990396 0.8759365376130013 0.2198437184676472 -0.19221387256552058
Ni 0.3810715883857112 3.365971553092061 12.725398595653434 0.029783916130651927 -0.6087261569359323 0.2996199073560259
Ni 3.2387456257718727 2.95951362391907 1.0046785173471124 -2.414033954942307 1.0563742434792 -1.262661306308335
Ni 1.545793615876555 2.9176685204468984 7.657590420518124 -0.21163495740460972 -0.7659192904518939 -0.06310104222554294
Ni 3.8899133464331253 6.356747579091791 8.077033408362324 -0.16975348667947537 0.2934780561243462 -0.2387073881413695
Ni 9.17000883020567 4.951732847039469 8.229023604172637 -0.34722362527691814 0.2932903655935723 -1.3632024956582072
Ni 6.589240094834159 6.716251192382058 10.852395885516753 -0.35062982274498966 -0.9306856083294229 -1.1495055135182461
Ni 4.772919753094994 5.496681255940558 1.7146694317888767 -0.07518214175979311 1.429940620415705 0.020024265640726804
Ni 2.4911006565025717 1.760660749866248 11.13432540207553 0.6063764257568331 0.4994853829295333 0.7476266627902931
Ni 0.4053800441415874 3.61054123820709 3.9125554703900205 -0.17868781305462775 -1.2283689607843682 -0.4495584161921032
P 7.180218117554637 4.991168120892037 9.28326428402958 -0.8954936338093222 0.4174080567118037 -0.41416769539763515
P 7.178817053822311 7.741091950879846 6.315787947898451 0.5179762426448692 -0.277407890035361 -0.2348029108806408
P 4.610134828248343 1.848712935230569 1.8222851370689261 -0.7386751100239601 -1.4800041127309995 0.5441696132107854
P 7.44869929036805 2.2440557587937646 12.444329332226305 -0.17658902154407008 0.562863847186179 0.711166105970414
P 0.3704449869972538 3.362721085233062 9.468242058396292 0.3111811298310641 -1.710069766036971 1.0915009119790042
P 1.0870012860887033 2.376951324017437 5.505870365939648 -0.5073223624754489 -0.9323563111636265 1.571902538804209
P 0.18855795922405374 6.082017662032199 6.226819466853187 0.18268613558074343 0.7318951109876491 1.190164424690189
P 7.492898180910531 3.830564286731747 3.3767205140464753 0.0811977518262537 -0.3491835772167664 -0.77059432733006
Ni 5.8912488242385335 3.3711461484767895 7.1446535157732445 2.57969193139617 0.8908486788381431 -0.027336997252056145
Ni 1.3649910114321762 6.05469691925182 4.202277703428001 1.7797615741061543 -0.3640185853470699 0.12236831252729247
Ni 0.2548749758875393 1.2133025113455558 10.973025604785143 -1.4536276796199998 0.26014087542479714 -0.7576375100590758
Ni -0.05465923236803536 7.509879073346337 12.428143309947975 1.8405383390738947 -1.778617433199382 0.7351005052988243
Ni 0.08020809654826522 8.250630809052588 5.524312100827027 -0.5345907112730988 -0.9867953068387972 -0.06583438199630597
Ni 2.7506056810042083 3.6167899824532688 4.631153586360715 -0.781991256313092 0.8105929792101847 0.21428782164642451
Ni 4.88309006458032 6.21597803569244 13.062024706279773 0.9751009012200046 -0.956172696856934 -0.8193738107266082
Ni 2.23876907831045 0.5141530280645388 6.368283937863772 0.168830974865206 0.34132705728682505 -0.24606639960960203
Ni 4.114961543544396 0.6683176747874255 13.428043265925362 -1.8865335748570866 0.23250023088939312 0.7335411312315044
Ni 4.9988926522696016 3.5510427317075965 9.820069710518384 -0.40632454520413247 -0.030403294882205705 -0.6246579976748404
Ni 8.78226911249657 6.995529896359271 9.132107254118756 -0.4831087413437229 -0.15290530477388503 1.217019340099504
Ni 7.709259782881373 8.513050046117465 11.708383245121937 -2.738086027198768 3.115774910944079 -2.8581506312935487
Ni 6.646861175932335 6.8360141202213835 8.313263028100051 -1.6124701758139264 0.854202231259703 -0.025191925884595325
Ni 7.266542324315755 5.470854981141327 6.520779450660214 0.9580475452821436 -0.8117142372988213 0.3375889304006315
Ni 5.815413914620105 3.7368985060132354 0.524324750761234 -1.2402901377019866 0.17426731538942888 -0.31020025397503354
Ni 5.244097486276618 6.548627927446437 6.092628384698357 -0.8743653364711393 -1.3848537553793956 -0.3204216745927256
Ni 9.21613184827388 0.7396150059980899 6.946319867867501 -0.2765553122270786 0.3996216792626602 1.1224713922185894
Ni 1.7221688589267798 0.23071503288728978 9.252668788285508 2.5180615601788827 1.0423028529877985 -1.3038130979562965
Ni 1.4782249822788573 7.338146021462555 7.660379471387943 -1.070814073053614 0.6222295907390059 1.4648158350263354
Ni 7.756428928536388 3.8008897568810576 10.985028050758748 3.160936852192698 -0.6203634840645444 -1.0881731331573516
Ni 8.587184998407336 3.2011130539215653 6.614533031372618 -0.3409323929515677 -0.24645463618695618 -0.6462992300936998
Ni 1.9787223091656474 6.061253897519111 12.052447136081957 2.3525995017859094 -0.07646177980316508 -0.2666573363870762
Ni 8.730775350121105 0.6825001759285292 13.169968260473187 0.8303580776522538 0.0427355911953135 0.6516471246691744
Ni 9.210415508245985 7.283635301850146 2.9614741791018395 -1.6930950858558453 0.8783531174742937 -0.5162559175196528
P 6.514834270222705 1.1950886828253027 1.821875092416598 2.77124837288335 -1.4005207724926911 0.25570726513347575
P 2.677834430747135 3.9315623009827707 11.487137534980201 0.06296374531673027 1.2459187967426735 -0.26389622870217133
P 3.462551546373813 7.906193301097279 11.186970838838967 -0.32256391774670895 -0.6831289973275396 0.6603904180794433
P 3.0712998289090128 7.0886539324346165 2.7416089837576916 -0.2423580975200794 1.3568804100949214 -2.5420347831650285
P 4.499646942317023 4.439410542251838 5.724573612428453 0.38539293725778784 1.9928944562125288 0.6273376013895325
P 0.3070375126845677 0.46512420381548214 3.073805864904902 -1.011320031453039 -1.3611314720617913 -0.24261855027031765
P 9.111976770412678 9.020010947022724 9.239722959398804 -0.7385861498545797 1.0414914128300967 -0.1958452986705208
P 6.8752812664260725 7.080256890465536 13.013425541575298 -0.3429216554674546 -0.2454627045873321 0.7831734495466511
Ni 5.185243469093995 8.741712987658138 6.2438666763056565 0.4360848071857006 2.7942378917999875 -0.45085836595044926
Ni 4.6271717632334415 2.4261006397474736 5.335657001184198 0.5678631001729832 -2.323413367140257 0.2786445906559395
Ni 7.784076586187643 5.0462112447227305 13.455712406553848 0.6713962822716437 0.5017582381241101 -0.4422371999403416
Ni 7.829583136213629 8.839778108496159 1.3510625698478678 -0.21289454084332365 -0.8445089152313392 0.8068198853209976
Ni 2.250528673237116 1.5315401275063467 3.5951771733183904 -0.8821421522030807 1.2688484089556535 0.47828920846789236
Ni 5.013080757665634 8.267340829166809 1.2102070945396008 2.1976100607894864 -0.7281806382505395 0.48108888270021655
Ni 3.051647574956904 0.16993315200898473 1.8972681999380991 0.22584698723893362 -0.4052840197547601 -0.521496854203618
Ni 4.581394340885872 0.46114051260323197 11.23285007181775 0.36999897130022086 -0.024213106911093785 -0.8185639132308032
Ni 4.270927958227055 5.733517069253142 10.508236722222932 -1.1029459205911523 0.7288390977701448 0.4227590366110719
Ni 8.111262329385564 2.010236902718126 8.811244044523583 0.2008710340198863 0.35807213795564785 -0.707735225911994
Ni 8.313818783380542 1.2553250828904883 4.694968303198265 1.02391046652354 0.6404314584590133 0.4329190078632093
Ni 4.972954292371784 3.57174111324651 3.0997255439529545 0.4043900471855809 -0.5013160083803688 0.33367134051378017
Ni 7.255277771907845 8.449021433550113 4.181184221916571 1.1129554823083543 -1.4121447298848646 0.17286477861494745
Ni 2.441185425932196 5.380336923608111 0.5605842801538609 2.208223574639274 -1.5009264647059635 2.138479058955285
Ni 6.192412143714697 5.610681141627579 4.1055987016424975 0.6448547843376894 -0.013022894622229183 -0.8871110661725818
Ni 2.081280174371995 5.264282144447012 6.637745855289814 0.9902215589115267 -0.9732314521114335 -0.7091200220746626
Ni 6.448956253528682 1.8243904688373695 10.543890058040706 -0.03364725574080012 0.4401846882866871 2.2459869094309766
Ni 2.8173149955127452 7.490124074720523 5.889769300937195 1.6669947892243675 0.20297908150182462 -1.0467009820554942
Ni 1.844845999329346 8.472195027682805 3.8648856779613214 0.4976660703326074 0.3943576026502434 0.23174664055282027
Ni 6.377492662755114 0.43944177155943714 13.243597895776933 -0.23205003072585198 0.313960235238098 0.06986561464288613
Ni -0.07401352676640274 4.949014783398754 1.9847057853451724 0.17562485785858786 -0.012912337186293891 -0.7722691439293216
Ni 5.381541838417912 1.5150262563146506 8.517461528789319 -0.10245331877092033 -1.066651457035492 -0.8667173330075784
Ni 1.473041046469247 7.412570526923774 10.258473760873411 0.2965698076757925 0.15919705131986778 -0.1589823642059004
Ni 8.549870001003022 5.470957725815032 4.529225265791426 -1.6219925134820647 0.20439113135800283 -1.2650994834361824
P 3.4833059704620193 1.9139838243072504 9.192860179679926 -1.857925938422723 0.53301796746934 0.33762261185204434
P 3.7874955876000103 0.4758143200931384 4.6379478114200134 0.7182006442196921 -1.1517662845279648 -0.08650707985430908
P 6.657070260328559 1.363281713678737 6.7689704185020645 1.5736873986187736 0.24418075255111496 -0.968691141038919
P 2.1481949782279406 4.081466779916895 2.5196655438772577 -0.6820560759783351 0.466693533210493 0.5803404067043876
P 6.774479401097574 7.06052991311437 2.402412388203774 -0.1447649350549378 0.01950130325772125 0.46942713009157216
P 1.3210069506619855 1.3073138877847081 0.03129602761023587 2.2735146825376007 0.20455902439443482 -1.1877123636052707
P 3.6559730648340185 8.766287645523157 7.757085560405605 -1.3868486743222375 -1.0638834073720518 0.4989745047313858
P 0.6384582045240691 6.022463112983412 0.003752982717660351 -2.8755963375738216 -0.5321877582585609 1.5188653085725712
