# total energy = -381173.80859408376 ev
CRYSTAL
PRIMVEC
9.23818082043084 0.00000000000000 0.00000000000000

0.00000000000000 9.23818082043084 0.00000000000000

0.00000000000000 0.00000000000000 13.52101144032710

PRIMCOORD
 96 1
Ni 4.165200175879234 7.364391482663382 2.8157781583248784 -0.5267043665464864 0.15763921991444466 -1.4286977491475394
Ni 7.90299590935614 8.733009516447453 4.125314329557565 1.5873936924612726 -1.8954897556091097 1.7380456824246069
Ni 6.373818290379106 0.2196091141109672 6.016025389193465 -1.4492084675063817 -0.5404188879191015 -0.2891766005355149
Ni 2.7377995966070827 1.6585398670470621 5.907086911603565 -0.48773749836498587 -0.0899263899485032 -1.4880735200026953
Ni 2.884141621293028 2.420523509503105 0.7936013168129423 1.0847594794901125 -0.9675110046878885 0.4870237601274129
Ni 7.490945323719677 2.6213985164326674 6.80186663399478 0.6914264614496415 -0.4843436421920884 -0.713851366112061
Ni 6.123722255261504 4.148312781072978 10.863092006917265 -0.9952830325948342 2.0379373553847806 1.1252762086572363
Ni 6.62016362402442 8.101515180139316 2.318272551114654 -0.05012237057768787 0.2396108737922454 0.5294575038115914
Ni 2.2099576507399736 5.730822418768021 12.801436975251207 -0.9362258214213618 -1.9605895734322363 -1.017986644839937
Ni 3.6672806981617225 4.244824057627114 6.597456175209443 -0.700297024466394 -1.1251947046870234 0.07407553895917565
Ni 2.5333309372816593 3.628933008970929 8.800028824085016 -2.0341709463638127 -1.2870564473232478 -0.3118537304180564
Ni 6.274092126848723 8.592690785751484 12.10368548123522 0.4024678904622036 0.25189663313813393 0.21492365545821052
Ni 3.0290886806530746 5.123883167468106 2.6829469733020344 0.1899469309082148 -0.44312834429604325 -0.01649465522091353
Ni 2.1383802246136745 7.02111915432045 3.8580583732952034 -1.7583111175418622 0.33914239093068044 0.9056937142707756
Ni 1.157691885963258 6.444407231142018 1.311579656862415 -0.42834167290517194 -1.1236137333531488 1.6340003365762181
Ni 8.340553112640348 7.444375653468943 7.844498823659918 -1.4795757669443292 0.1504013074051087 1.2374033030724947
Ni 0.5933868398224645 7.437243777763019 12.385395495437335 -0.7634068084426853 0.8895579850511777 0.831318127572678
Ni 4.002728287226263 0.563843137092482 4.03472380318468 -0.8835711713401235 -0.7550990599079384 1.7982879150451159
Ni 4.493589794685579 0.045541460709191746 10.762671132178223 -1.1365862343534168 1.2115436616969133 -0.04832799768142645
Ni 7.806142820106254 7.217134878061779 0.22888240016486233 -1.316822879952403 0.22063921778574905 -0.1229954045883301
Ni 1.053633015559717 1.5783616944412089 7.520616513346993 0.16596522328163674 0.9799782839169638 0.31798889678151687
Ni 9.014506128669247 5.35017241023575 13.189205926036049 0.4178510577864933 -1.4309171253963613 -0.5919857042527998
Ni 0.07862985347591428 6.414697241154644 5.959534836403105 0.9453478383272881 0.9973363155794371 -0.952129894246128
Ni 8.486377799192185 1.1082399032510637 13.09842601695336 -0.04024830599708552 -0.14787596988009372 -0.3707739017930324
P 2.5968988605102425 6.1635757679497924 10.345331687938597 0.22249555426819748 -0.8299857819144996 -0.7085284112372507
Ni 1.8112747129616342 4.584234826326163 4.943079032505761 0.28793552903956215 0.39283448113749764 0.14992591043058695
P 1.636174230927835 8.339647770905659 0.5770038496969639 -0.08241928293818063 2.471218631683415 -0.2972843172443138
Ni 5.56786090652384 5.830539344117437 1.7762148923767198 -0.0693922745508934 -0.4723723287628252 -1.5669426236957724
P 5.774823874710143 3.229935973039739 1.0277513277647452 0.08241054118743227 1.3332679128823037 -0.3168285579248286
P 8.206784252249433 9.228212968960895 11.337679534786483 0.9016262290696213 -0.5796716627721371 -1.6289496615261883
P 1.0315075721456117 4.111230722674557 7.0794259334887695 0.6573737427403066 0.42964830753173744 -1.3017500447796806
Ni 7.866163281843808 3.0580041870773536 0.8571646209510428 1.1190695656258922 -0.38456118538511186 0.31667660572799655
Ni 3.828995055975464 0.23551910937099724 13.17369779164805 0.1639355944461177 0.8226679080968478 0.1255942756637579
Ni 9.336659975323391 3.3984958229494517 8.818146744595975 -0.6020312614142599 0.3086293099434878 0.08551591958563337
Ni 3.448825432853437 7.268323638795623 0.1558351794468369 2.208896432336583 -0.22164503334244412 3.026981863269071
Ni 0.810788952500601 2.8672357501248396 13.165719698565619 0.30720800411592897 1.4008599009996647 -0.16661365549891305
Ni 6.212510412527878 0.9048899876406498 3.608744812105441 -0.1846345175563659 -0.305598493536964 1.9412847024560373
Ni 8.520826976015233 0.8485620268352955 9.103454106466337 0.7211260453966032 -0.5877747514952458 0.3581947795764412
Ni 6.20017744093797 1.1859884342628002 8.217962451218563 -0.6660051931630594 -0.2712161594023523 -0.2988490906282725
Ni 4.9012522443630875 6.06785897495875 7.2827010198333575 0.33728194068317396 0.9502915554858085 0.8064265065373208
Ni 5.866910062581458 6.504242929260249 9.740604057161995 0.6651042786153449 -0.5943446914032796 0.4603814749495362
Ni 2.5153996280262194 6.512982248454296 6.607583069184616 -0.8579845811202707 -0.24120135820781688 0.20582117893631008
Ni 7.856906624515651 6.921596230771325 11.257418218551933 -0.7622855503540484 -0.22322343357315752 0.17728116251508824
Ni 4.031265028230926 4.707444445872686 0.4121392721737403 0.08990582112321291 -0.7892186272994667 -0.5021930116686835
Ni 3.39651885222268 4.1375318238853955 11.440128190247611 -0.10728879248635072 -0.184946649480146 -0.3395506821126926
Ni 4.864715238641673 2.0054335623287525 2.4014808470774285 -2.652519456880858 0.8771614111590377 -0.9793895012930294
Ni 3.8120614702643767 1.6740415347083852 7.939538457986134 -1.1717802657560465 -0.6061643097460271 1.0721973265543856
Ni 7.998758893252012 4.9581871536579225 7.231307171482063 0.27253924908914995 0.2608553849933185 0.7123542127412441
Ni 2.6999507691884657 7.849349792485281 11.625068258828534 0.9174367137393166 0.7476238345768157 -1.6732068315723507
Ni 6.511032992270422 0.853348328393896 0.5232154648392245 -1.8387563074728073 0.6632849660184189 1.133871663635731
Ni 8.328654335555852 3.600229980708873 11.783263793512242 -1.271078840948069 -0.5109424757265394 -0.747454655988803
Ni 7.939782345963643 5.301413291096023 1.7951032771802602 0.3445975005079807 0.39996980663069825 0.9004946865683395
Ni 5.085600145544077 2.242993385875189 6.212661918695725 0.5284563162405868 0.40440470247360033 -1.6439656753190461
Ni 2.2343926393956344 0.6068995271217597 9.583003461332513 0.2948988477312728 0.37095490745558696 0.21071141714907582
Ni 3.5412534334205024 8.591933254912254 6.757666557161882 0.38317664633275944 0.9409425101707407 -0.44836953809032465
Ni 0.9787852733713746 2.6487342939117227 10.817647547108217 1.1222381931618608 -0.515214363629016 -0.712340071673857
P 1.7829319737572609 4.134483224166542 1.1277629510869838 -0.5665454098028243 1.5242605114462136 0.18408327303858618
Ni 6.052486641830955 4.6165407451650475 5.784681013801104 0.2265517266154421 -0.8566054413845571 -0.4145597886297312
P 5.240219580375759 7.9873035488538955 4.417869044395928 1.55858808108349 0.8680949300813953 1.7148638449915048
Ni 4.2182180964443905 5.968899580448565 5.008899224253909 -0.00743151657738075 0.8501247187562196 -1.2790929695017972
P 7.577470126649325 2.420541985865037 4.412000951846183 0.40610034500846837 0.2103085252837023 0.5321453350563996
P 5.617229745607337 8.09066955568497 0.578322138120844 -2.03471704867527 -0.9393337709227242 -1.2458326647867706
P 5.72277596314644 3.609200254427076 7.873217556829616 -0.08178447756765914 -0.0657968438901512 0.062809222016737
Ni 8.57932313789336 0.23664801508506977 6.417828984502194 1.471863485901736 -0.07857085572636792 0.08684055193432787
Ni 4.215917789383801 4.9100839453667975 9.192394693718652 1.2626736476035092 0.7015154702545273 0.6913380155008932
Ni 1.3446172396338232 0.7020878961615328 12.064217200693223 -0.06475040490350785 -1.6285879073113951 0.7957461440053393
Ni 6.479152029755985 8.735550016213164 9.750501844249207 1.4512398961141137 0.1913687509564059 -0.03024542914810275
Ni 7.223075028423061 2.794207929586843 9.586383711748056 0.4046083338439741 0.24457567399668845 -1.35759774787692
Ni 8.38685487564306 4.553102156469991 4.850243628158085 -1.3212120101590341 1.1218548416805132 -1.2942326533567132
Ni 6.550637074072623 6.243190411516706 3.7856532061543304 1.0810223810451833 0.0008512922567017597 1.1447661990610478
Ni 2.968412308066919 0.21843771276445006 2.036724205079448 -0.3324217843773953 -0.3466368995355127 -1.0586401566952413
Ni 8.074068544488666 1.110651068483248 2.4981417821632177 0.6080283595379593 2.1440575814843266 -0.3440184880760591
Ni 8.008846986867129 5.391734986402789 9.573471506211565 -0.17775244572455193 -0.5642887525581636 -0.03783583990085096
Ni 3.979605120267805 7.752875468655009 9.03718771057752 -1.4294832211633124 -0.21950484707098972 -0.0442078048654658
Ni 0.6662031060163345 7.838892171631516 10.039513716687024 -0.6367630084684904 1.0036476025094458 1.4158707725862
Ni 4.623571000880343 2.5716786264724525 9.966554258688179 -0.43875412648774764 -0.5538832409541236 -0.19610703697233967
Ni 5.45501652602142 6.48613609456645 12.506273398107982 -0.8197602475317495 -0.4163099385516185 -0.43282361993592555
Ni 0.3316322203254894 3.4343769178222634 2.8301370630006795 -0.5518070751513852 0.5195690410532858 -1.011599767476987
Ni 4.712599350851838 2.4070357652924184 12.80652074623692 0.19596845451194636 1.1185337477270803 -0.239824018244316
Ni 0.39723439100283536 2.7288662756127446 5.163972253771034 0.5668608841607141 -2.2768499175584207 1.115340180490447
Ni 0.8574814905581841 1.2667208977266269 1.3451077870431296 0.4160672264131931 -0.489795409335279 -0.04285489038199716
Ni 0.9863513435827115 6.142244808098782 8.612505760105938 0.5877140734606394 -1.912243320918365 -1.0508944513115515
Ni 6.777619180412732 7.034625374893069 6.067215997563501 0.22930460677023087 -0.25312896288333825 -0.49371942698003357
Ni 6.339221302660598 3.884913765364015 3.270435234577566 -0.4390217783268375 -0.40974951172528146 -0.15061008098180514
Ni 2.2428178604368303 2.2862280727971145 3.3777108395935453 2.010463061223912 1.0898955151650973 0.13828215554407153
Ni 6.673153830046678 4.699046939374388 13.113487947200689 -0.27897266341931953 -0.047965986356317394 0.6277379221517447
Ni 1.1372755060279038 8.517168656352608 7.93801046285432 1.1899019150574217 -0.15756388659181897 -1.8706001914562815
Ni 8.9592156155864 8.36948709542656 1.929096625368655 1.436586922087629 -0.7497650492895346 -0.31612973208559103
P 8.929847438294775 6.591137259428545 3.2742884798585776 0.13991686293401712 0.011414412484528728 0.9479731917652772
Ni 6.288485212794099 1.6629095266440859 11.416966222929096 1.7877163101768565 -0.5974143314675389 -0.11160387492193682
P 3.9713184719411028 3.890595246658242 4.302615346297518 0.08913577572640778 -0.9733054998824787 0.2876228828951498
Ni 1.0957036916798986 0.36319723705088164 3.6426683364315102 -0.9417786329187909 -0.242661230582795 0.034243237453586185
P 5.829366095134726 7.9579630861051704 7.820715126762375 0.3801316888588485 0.9849507974308908 -0.15590809615595083
P 1.7386718487480843 8.691668656623602 5.376076269665041 0.48418860467146285 -0.4465805645107019 2.061151074497083
P 3.085395393642206 1.7250824845467698 11.435152505979202 0.288962941862812 0.41831694167931827 -0.5369512410854752
Ni 0.7957307175256568 5.032683844969548 10.866458400061356 -0.010720471741297666 0.5421492403466469 -0.01756989056296329
