# total energy = -381161.3269151652 ev
CRYSTAL
PRIMVEC
9.31240226865642 0.00000000000000 0.00000000000000

0.00000000000000 9.31240226865642 0.00000000000000

0.00000000000000 0.00000000000000 13.62964203223271

PRIMCOORD
 96 1
Ni 5.216258338467852 3.9861831182496954 4.979494234872132 0.4499343114742832 0.4037650120070724 0.7794111542907416
Ni 5.682372010945552 1.3176863010858413 3.9967424512211944 -0.1063030315343137 -0.09179275373328062 -0.3369009031946714
Ni 2.648270279361493 5.701816306954451 9.40948223464219 0.0822192511122326 -0.6002304607600953 0.4556928112246152
Ni 7.466842477474917 0.9246051436703023 7.635339222266978 -1.4741317131106224 -0.052361801431167886 2.790017940181369
Ni 1.414516660233607 4.631560535062315 3.4357875487276734 -0.6232521184662492 1.036147374909364 1.024352439156965
Ni 3.529828843385657 4.2328965924660595 2.7844948939721164 2.2853134749447417 0.27640953067783364 -1.1674147896984992
Ni 7.83223320664215 7.514773412129038 1.6287149505684235 -0.3780246698181748 1.0274408482743014 0.6273715399512615
Ni 3.9233337151059877 8.89448031255361 5.656246997524399 -0.9212103218491361 0.10327735733411246 0.3797956456756685
Ni 8.24380413883052 1.745032442775683 4.662687239760468 -1.8820788815198426 0.5188907840393386 0.0191914853267863
Ni 1.3655147993146277 0.39101194162378705 4.74286981731096 0.5337538171941001 -2.383428057130992 0.7137323240356934
Ni 7.125589495077352 1.772792714041262 2.0644003485207025 -0.8068517670001976 -1.241268699565172 -0.4670385752547376
Ni 0.6031084227587911 4.370971581414311 1.1194038375272746 0.23795636890795793 2.067786577535729 -1.963896526318282
Ni 0.21502243793864198 0.6601627179492716 11.866102343365393 0.5658429844191609 0.1913291559677221 0.7806090312535846
Ni 5.7526061491156275 1.9088282868851323 13.314142720649976 0.7149019188637622 -0.3067758016745168 -0.14379948581787494
Ni 8.282692730848318 9.157620864432666 5.968311186143088 0.8176899952662819 -2.2026684491490003 -2.0479386895718665
Ni 1.4845366131507114 2.6129297126211806 12.497946045910899 -1.1867332875214531 1.0993666878803259 -1.210681056586302
Ni 8.779202084443378 2.4923806648073867 10.645472692803287 -0.8935385669654804 -0.7150399871035233 1.922507164738218
Ni 5.777023267954389 1.803467767227715 10.37590565209485 -0.80413333962777 1.2181840498315666 1.7092372428333469
Ni 3.833906715789196 2.3670171050028834 12.118237498202632 -0.8468280502828189 -2.469266650163367 1.456299827135524
Ni 4.737498423662525 1.8233218089379515 6.127246887490543 0.2779822744815922 0.3411583929194447 0.14918183317571082
Ni 5.318340892514573 5.90291763469017 1.0170232866068534 -0.5375055709270484 0.09802922156129569 -0.4426858574419859
Ni 2.9217010357854885 3.557011745708443 8.062614589699317 0.943256503015898 0.8632702549992424 2.3861305436638194
Ni 8.316263941151039 7.089047628439938 7.262309529490501 0.21162724409512587 -2.127915424506826 -3.439955538358605
Ni 4.227905144831592 8.992558533609992 10.258704412909028 -2.2728875904765626 -0.2390406031110722 0.20466546806531205
P 1.563263662221226 8.08524186481542 7.2438551418464225 -0.2582025207515037 0.5518695529582044 0.20381828957366835
Ni 4.197071780805985 3.5905363939996486 10.443154234086549 1.0138479400812153 1.7737403076127387 -3.3867205902938644
P 3.4046701564318225 0.24435464271298638 3.6375742692729016 0.9448541865203212 -1.2778300436289736 -0.10739343638501503
Ni 7.250021814651544 6.342043965293449 5.299981491373987 0.3684185141869784 0.29352382176061703 0.07143090224747699
P 6.423974480756235 8.466472990300247 7.179141395761632 0.1480618606386547 -0.05241450904597424 0.552898508443351
P 5.046809866160413 3.418769133518735 1.1891043750453822 0.06271794785451133 0.13944789371739857 -0.3208739316387958
P 7.390508715796302 -0.11056801502531774 3.677904421167222 -0.03230334011839598 0.6999977480584202 -0.8630018318292041
Ni 9.407761302696576 0.9136342025170053 2.550951019092814 -1.3583513382134929 -0.3822289377075095 0.09304796629662039
Ni 1.723800165524586 1.0083748585879526 0.28637127066440055 1.6039228004645474 -0.48851499996095865 0.9718070609600812
Ni 5.662788028902106 7.93957726799013 4.206843284542641 0.19741984224649226 0.7075200245773944 -0.2149722493079588
Ni 0.06873484139927485 4.416751351136414 11.68894506443144 -0.7966172337563829 0.4910457368026124 0.058288708438564124
Ni 8.318824851784395 4.441838962941 7.066655957102103 -0.49650341748307397 -1.507547569566907 -0.7392878039072945
Ni 0.2440510583979049 8.662927429286713 0.24813175308712887 0.20688253032128887 -2.053005562571813 2.0078009410107165
Ni 3.038692745919493 4.106536605615124 5.800012795520083 -0.47085023569134393 -0.28074312505618104 -1.6055482518831121
Ni 6.52929775080444 6.084285981945593 3.0740975682356977 0.5512391184630571 -0.013265606760654573 -0.16035507618371092
Ni 8.420236912865292 8.066030378864099 8.989948267244431 1.071112321020323 2.8284860143495805 3.3904507467602576
Ni 3.7621919056529256 8.17439880446542 0.33542714351673764 -1.6579355072355768 -0.9816171050719673 0.9379026949031525
Ni 8.657163052261085 7.865227048002079 11.566605241654756 0.5479321655770112 -0.9946777949106677 -0.35486700075478883
Ni 0.7547283008569206 5.416959232904537 8.072932731451164 0.47283718421438564 2.3344711676163152 0.3278148817330031
Ni 6.936808475588651 4.030128344718084 13.671075926045523 0.2618935964498457 -1.2500726710100472 0.0027863044958855235
Ni 4.947167161517107 4.487423172214736 12.525627161756903 0.11908707067285941 0.4880087497485015 0.22148562494644436
Ni 3.2857135294118605 2.285617396471375 3.9665255682280542 0.8528997103981956 0.022097089009355492 1.3078998664311605
Ni 7.794611101337575 0.4521208567770429 13.527447020363693 -2.3944994844538057 0.4715336349116137 -0.33754522164688966
Ni 0.9592239992321239 6.095814735996846 12.999734600371594 -0.3123710363741072 -2.8630251857770306 0.5886478981288186
Ni 5.878267705793831 7.286153935587622 9.608707113313834 0.23168519118726547 -0.4151665689757947 -0.5821489206680361
Ni 1.8738415914323379 7.138207800198069 4.060256759889344 -0.5630361110979852 1.2231619626621322 0.37930970717818546
Ni 3.8697780894607865 7.790988576841664 8.182991358070502 -0.8019553581398446 0.8405805267112104 -0.7740349775804928
Ni 2.6359685959190813 1.8500297787432787 10.00561566807595 -0.14349815252737222 0.45785382343167597 0.6542835338507571
Ni 0.357160428011742 5.542602164778133 5.33242031355665 0.13309418358522884 0.43494657981619933 0.8501985094169486
Ni 1.8660191734977232 7.849451838500605 12.634405333059563 2.4656606779796633 2.9537023378486293 -1.9477731383938583
Ni 1.661909939818099 2.741627112450198 2.178057287389963 1.0903166618629156 -2.010657693733221 -1.2105656140543604
Ni 4.952251733174607 8.814412277551448 12.233571600726682 1.7506338035022622 0.625427014630381 1.0783605179423041
P 6.724318079836226 2.4591726381944867 6.405931701293954 0.7767428634299591 2.0293740391958015 -0.8014588781194004
Ni 0.3237391473861009 1.1444290562364292 7.436632113163389 1.7929767872448477 0.4388065769922378 -1.3056401238627062
P 4.450462247473682 5.87377912788373 8.456197685598992 2.326328998125155 -2.387903319293526 -0.10131920516647712
Ni 5.3367794490747364 3.265589428034834 8.243303131586611 -1.3676006247259027 0.3218416948687038 -0.8482760955832551
P 1.16226230664689 3.7448429001622263 6.856337213566764 -0.7796093863444767 -1.2141258206017929 -1.3687445085223588
P 6.983947856047008 3.064059729793172 11.456449766051467 -0.6789442698222308 1.492439767391191 2.120218055862568
P 3.2562584009271154 6.021799762491707 13.300731930093264 0.41543164971172325 0.3373811852651996 -0.06672166969726574
Ni 5.613264673454153 9.052660778074282 1.3003140145893843 2.1405318277192555 -0.9849004038089295 0.5935134537512359
Ni 2.5355808990915265 6.387944796245493 6.257845879869857 0.5094180686622131 0.7995452060364553 1.1357945916900567
Ni 8.202224262547121 5.813229888108891 0.1090547496510619 -0.18695828059353609 0.8687050528615684 -0.1462698017352384
Ni 7.003811210159547 -0.058859969997054146 10.319206159432118 0.42612743886267257 -0.06788535098806374 0.561729990692052
Ni 0.4023330291036812 0.779540265553334 9.639264830231266 0.3412306409182769 -1.2623458319504453 -0.757651908236779
Ni 2.8994071446718364 3.8616018002386534 0.3521671178968131 0.790169164138194 0.2761429072800083 0.5098106761149414
Ni 6.285359372474403 3.790753043516572 3.001492492439249 -1.483790319246309 -0.7529095084557872 -1.8181054639916752
Ni 1.010889207209793 2.460532248930741 4.300056706635878 -0.4279747764840564 2.1282766645009863 1.4275824045961738
Ni 1.9419059398657885 8.94034389389644 2.222858323630008 0.17224102898801952 -0.37894923851497314 -0.24062388843779203
Ni 2.638250134483344 0.392983377191356 8.316181060770543 -0.7659624849850034 -0.3012201619636103 -0.2858359661980561
Ni 0.598115112643862 3.225499536119934 8.978512637216207 1.0082187668198959 0.12474015519357873 -1.2009820841309833
Ni 2.5716478332114816 1.8408756872793188 6.633137555165759 -1.4917268004845663 -0.27301027518829757 -1.6743805401654774
Ni 1.5603395678980487 6.534102950392845 1.8328595713767994 0.8776177819701659 0.817451911113547 -1.9196444984784424
Ni 2.5933922925892503 4.510657615961002 11.68446021148226 -1.176020014869007 1.2826081817439072 0.1154096218212722
Ni 8.92768833916651 7.72363197098325 3.9995371031523588 -0.2860645372690944 -0.4201552804396377 -0.30864653633466843
Ni 7.40539924707898 2.8349373835273872 8.801027561721183 1.2371590482721726 0.8873095553366332 0.2812054094045802
Ni 4.141756111125496 1.3449343902247488 1.5696445202793188 -1.5673491151055716 1.310690284692104 0.7094306113365458
Ni 5.316590160881588 6.937963213474237 6.390080130093596 -2.4185184730762215 0.5260171106714747 -1.2583832477582715
Ni 3.8151794747576364 7.431380849504664 2.6365319962584195 1.0382914178355602 -0.4029024068964609 0.5896997364321005
Ni 6.387218428865849 5.472805709516304 7.518369861898501 -0.08423628154226138 -1.2811776199449676 1.438886002534451
Ni 8.566087757736643 3.5081309460194046 2.7083054745292006 0.4658944343479654 0.1901698455522983 0.5438181434086375
Ni 7.989072686231174 5.8663478308458465 9.368116543611764 0.37720448790972455 -1.1042075609123951 0.8385141311004848
Ni 6.746462972513028 6.558492132024698 11.876583452157549 -0.8312908738791683 -1.7733027058546882 -1.4707769377057767
Ni 1.8647247495775905 8.052406334294645 10.029835363985885 -0.44045979632494464 -0.31433124542427154 0.3426426907744551
Ni 5.15525279098016 0.6930205982355745 8.6432922290306 0.35086353602235054 -0.40077584747176137 -4.104097710170996
P 2.464937015220113 0.4125571155922686 11.718125477048243 0.4416383900140782 0.7521037247250402 -0.28149183029674746
Ni 7.731016706009618 4.2418737482862605 4.647285457591351 0.08643508896579308 -0.7170477615621715 1.7716428016537618
P 3.3924522846101386 5.754952874496012 4.2858683304868554 1.3601475108819674 -0.4666480246845383 0.35527554904711717
Ni 8.955886293340335 2.4188313114174025 0.7295661898339099 0.14300090117597955 -1.2259503240405467 -1.8174963696527668
P 9.052018222315366 5.838503747959539 2.574312111510402 -1.7429387488508499 -0.08788056316306801 0.5487083816214033
P 0.7596145183453636 6.018344861237251 10.35510733279108 -1.3066202283877886 0.3660865236196921 0.5739327034058309
P 6.590331235499041 7.8660931014162685 13.352537755345711 0.43830469765515484 0.925105028917852 1.709817797927165
Ni 4.074203944818716 6.52041371900727 11.219444471236097 0.324697419149944 0.36092169158930104 0.3378864070363923
