# total energy = -381167.34847168764 ev
CRYSTAL
PRIMVEC
9.26966863434281 0.00000000000000 0.00000000000000

0.00000000000000 9.26966863434281 0.00000000000000

0.00000000000000 0.00000000000000 13.56709703883382

PRIMCOORD
 96 1
Ni 2.916840269280201 0.14381705435885297 6.239006067661339 0.332593276958253 -0.25023261517214973 -0.38328591821711405
Ni 7.479862445480245 5.749567565705307 5.502217582779278 -0.37190672984589496 0.8799526007509296 1.5025105213636318
Ni 4.589181180982618 4.926680544954534 5.6874088759568915 1.2717545268588548 0.26531419209562046 0.7416002540905551
Ni 6.290953290482581 2.721537621596269 5.22055128670474 2.6506222398581447 1.6398873914846146 -0.36929063237928655
Ni 0.4007833914880866 4.46816565744027 2.035091779901197 -0.03795411064627011 -0.22579710783760465 0.4275191770038766
Ni 9.559623831386668 4.757685216750738 12.661466292605091 -1.4818488792492222 -0.7680882730787545 1.3393295456953516
Ni 5.6652135814666735 1.0784610536566395 11.733883926844996 2.049051977240704 -1.7643876627532453 -0.2372053496745463
Ni 8.012627378461703 2.6426527418302497 9.52539094525554 -0.43431305999725844 -0.6677838823300372 -0.06152855553210049
Ni 0.6151667250134261 0.4252812716579616 9.817490253336734 -1.0918091872480422 -0.37876437619767667 -0.4671504182422535
Ni 7.423521399743716 1.3364081217235046 7.253635256387685 1.9204518248710862 0.02747429416086881 -0.8019748985238704
Ni 2.054019516210743 1.1201838320146715 4.189357200194389 0.655938810065993 1.2046618469754158 -0.4490300544924589
Ni 2.1938895456807157 8.187712878934155 2.8599708524336056 -1.4548504962835072 -0.5034453960185459 1.1215938747096426
Ni 5.422561466585934 0.6537053722081647 7.791244518178276 -1.7204688498831078 1.0330358258635757 0.17248914044308358
Ni 2.9323947731870614 3.062170133554191 10.073094876148973 -1.0885510853220606 1.658477495781976 -0.1576505327683543
Ni 0.12563367243769857 0.14007952398027962 7.380664013949332 0.9897330493108826 0.35984825601946413 0.27983012632360843
Ni 8.021275979263313 1.0085770220989403 4.5248849056555835 -1.4495709930521228 -2.3306237688457667 0.20695966341612743
Ni 3.0950681874072585 7.980665561136999 9.396869771049671 -2.233297486888767 0.0938457796075674 -0.5471955445213027
Ni 4.615219680073423 8.37136355319084 2.208194498260612 0.43305579055138965 -0.13165462292522487 -0.374472176580226
Ni 4.27620936012009 2.255189864116989 5.76917754962364 -1.404987292904477 -1.3533158326721144 1.4729513196492763
Ni 7.723849392639046 8.255427808040004 6.1310385296370455 0.15742556124174178 -0.8721469886635819 0.232098110354968
Ni 4.268024242748363 0.488224175369739 13.690828692600546 -0.48285574479265225 -1.0660819576852671 -0.06881223367770731
Ni 1.1112015231435466 4.525869344460655 10.568117426468229 -2.2107746231959027 -0.09385092181388999 -1.1291493184593973
Ni 6.8542710511619 4.982743500633134 1.3854177865661512 -0.001050809862017545 0.6763687957855705 -1.1113202606977763
Ni 7.680856669683137 3.812568345871325 11.533293860192963 0.23627229633731564 0.39658752042202666 -0.30322356554688423
P 1.5696793319834201 6.774514822547701 8.372852261967623 1.5653760505396006 -0.8615149628710324 0.44973145143485777
Ni -0.033042660683190714 2.0992091506242967 3.1660312083897244 1.6198574694169328 1.9634105878207995 -1.7302498405292719
P 6.677618976696444 0.31137743786373207 2.618137249290039 -0.07670423483127435 -0.4671517037938342 -0.0491216972273154
Ni 2.7559559010993513 0.7404138522706025 10.668582094729583 1.249890894016544 -0.1320621427762887 -0.3154671588009276
P 2.5240844107976814 1.3276112062243328 12.788942775160002 -1.4258733923248668 -0.8425062829790134 0.7204855835991268
P 9.160870497321467 8.389754575688581 3.2902512563662807 0.5595216701868234 -0.3016873314080159 -0.4355101656291531
P 8.265976690904132 4.153914622311266 4.265170111787146 0.26432097494441575 -0.7484550722288594 -1.0184967517071362
Ni 0.5086091035828357 4.530272437044539 5.764469484942892 0.9987265110587445 0.6575879156336417 -0.3054036039173385
Ni 1.1135004009557643 2.1157369697339106 11.326667385350138 -1.8791771344920154 1.4403060228104292 0.8791167351131955
Ni 6.1526405653370135 4.916641493863277 3.7988010340700917 -0.7480529516944343 1.1498461846871164 -0.0474417384217312
Ni 0.0712179368689014 6.545720862220452 6.914348700310144 1.040080391415183 -0.08618492062819996 -2.0341503775385226
Ni 6.542671141251824 7.947730428609541 8.358716017356203 0.43361371993738873 0.04275924534439733 0.02716884710530805
Ni 7.0390897036618885 7.327552520752224 1.4648254756410783 -2.6334765813167937 0.7959765148485904 1.3110826350345162
Ni 3.0472366974433736 1.224652997110211 8.357236578248019 -0.6679106377158884 -0.13272445895063592 -0.4754044307209296
Ni 3.4834765713174796 2.4496953203015233 1.1337972673171834 0.5710468972176037 -0.09438442571985681 -0.8303567921006733
Ni 4.203729821355048 2.582131075556179 12.231348107872876 0.3244853031391379 1.3924948168644211 0.3208469350556023
Ni 1.2921361845011181 7.406316894826474 10.838387591968813 -1.4423986436733998 1.1610860192669938 -1.0288433850487828
Ni 1.7943204807789213 4.422086134841342 8.00481768266818 0.5224455912701325 2.016052382386231 -0.2691489924606784
Ni 6.6100616319567544 9.13223649102332 13.730309138124806 0.16279248198060997 -0.04154105666658007 -1.0141222767885243
Ni 4.029960613823462 3.486581910297693 7.797797246909957 -1.1453758076205889 0.31143695459561205 0.2969549589293531
Ni 1.7945707618310578 0.8477417831616577 1.5887479672556502 -0.3752833596276118 0.37940663776736594 -0.08277640916728325
Ni 2.4262708677552562 5.899560073283916 1.7847106153437353 0.41430499230644774 -0.16505685253475444 -0.008589284330907788
Ni 3.9450967978119573 5.812897941564466 8.356355032764382 1.211012728894108 -0.6834604125250293 -0.5230958232596217
Ni 8.69858285468796 0.37430365617203365 1.3262040705312093 -0.702322539536855 -0.18356648130316774 1.082557329632471
Ni 6.0146986269353535 0.32880256089359844 5.409500503531842 -0.46944692758591405 -1.4574426824907156 1.940567878894671
Ni 4.457357223855408 4.523431421619472 0.40987786334924314 0.4547417601652556 -0.4958300455651332 0.13780084503227882
Ni 2.798114353881473 6.3878398666652405 6.370172805284977 -1.5849966529840058 0.3520272173131485 -0.4223985679478596
Ni 1.2278603024449986 6.375149690355055 4.2545192625684445 -0.2891413764222053 -0.27858031307690734 0.003283555847278216
Ni 4.983596310144118 8.83166748674445 9.946744658328676 0.4578096004573019 0.9533372842906678 0.6644321922489846
Ni 1.3896530981484183 2.932811908273956 0.23510660464225047 -1.2690196444261952 0.13513641082623826 0.12372791187898045
Ni 8.872120320504605 7.60542937630404 8.822262480985273 -0.4389952959642762 0.9338262108409336 2.3175707923165505
Ni 8.31482784441376 8.315272788506446 11.363881396902274 -0.06060167284245692 0.70092488785838 -1.617188664335518
P 2.2126977032653516 2.7316879087106978 6.383088234542084 -0.6573002091898938 -0.5422428285017178 1.862878911552624
Ni 2.564147918476734 8.051652683257819 0.6560589410651085 -0.5100073655067797 0.6074490899957216 -0.11152108540014342
P 2.1869651032382693 2.9367793264337507 2.7020639018063215 -1.322071529945852 0.07549453079388935 -0.06592205661410583
Ni 1.5420093712194285 6.518134328473839 12.83226271741741 1.1840912219129156 0.07121775779540637 1.0147398557678653
P 5.999505640103801 2.895316098796453 7.696546510751522 0.8267217664512472 -0.45867786199486815 -0.36758007744608306
P 3.7503781392496767 8.718086237417419 4.235905768024359 0.20660947916556033 0.3740525725443042 1.0738831988972408
P 8.397717221013965 5.865308647815592 10.444331198982042 0.08912086332807233 0.01349983425864772 0.3622080145008923
Ni 8.04437599340866 2.9132621772015073 0.7897850341885574 2.7326679415069908 -0.5489217831837901 -1.8240336565506523
Ni 6.057691349891263 5.5811191479487725 12.458217684999251 -0.4679232918525361 -1.8699461028120503 0.26171284789760735
Ni 2.8867045766692345 3.693638497763448 4.648874138884059 -0.8142035793795783 1.353379338920198 -1.7028871322456027
Ni 8.09547040671892 1.3553738636743011 12.35035860209755 0.2853790811662956 0.09619602500729883 -0.27412356285713435
Ni 0.6434021355618743 8.726753377556223 13.093292877259854 0.027353195201972245 0.8144969422502811 -0.7441081081140734
Ni 7.446528717203089 5.795656357972834 8.072422302717717 0.9317765274007567 1.2694726728032137 -0.4245793776492623
Ni 6.287968457194137 4.427629396662738 9.235407902515188 -1.6831078927361465 -1.3289659430728402 1.7171883793596232
Ni 0.8281531194810994 8.707574433227682 5.221052775775874 -0.8242905313019352 -0.7166677525149335 0.11873380109849874
Ni 3.5236327756825085 8.258125281601922 11.929588878146067 -0.9535925948345835 -0.6649770090088611 -0.7528038361158583
Ni 4.3149009568466905 7.956286332725173 7.494206330668252 -1.1809917570519854 1.5949136549874017 -0.5623763660267992
Ni 4.8679942730627985 2.0757939677466277 9.684818121532839 2.1298082706541646 0.15936982945230618 0.14666678006334097
Ni 5.498582018755279 6.559912724843458 10.487203416246185 -0.287475301573692 -0.6655459941384538 -1.8627678398960563
Ni 0.13089791723430522 2.284444938211179 5.855301113597566 0.7147720781541174 -1.1018953678394507 0.3525357815184509
Ni 6.99517928351481 3.1213569675502 2.620444469803995 0.6141262449055811 -1.4764665318913863 3.857433014855763
Ni 2.7022845199189454 4.384080493590968 12.383774830425226 -0.1692086699195989 0.7322031291463713 -0.23822453496768006
Ni 2.9107037486685554 5.891625236964326 10.374854105875782 1.3552145923567243 -1.2157088488181966 0.9832104177010162
Ni 0.7094791142265179 2.5886661919175236 8.4456673627359 0.34188935754819827 -1.6673125775751025 -0.34999990247047463
Ni 4.657785998273842 3.574838425015939 2.6962434768938555 -0.8368295443092104 0.4035773214762985 0.8971247416548421
Ni 5.825059746764586 1.8444415788864261 1.157365399726714 -0.30187964992448013 -0.016032627982830453 0.07751876031276972
Ni 6.178419513707085 7.432225618556911 3.8815467308070333 -0.11099478058302818 0.48017691240890853 0.4399800284750487
Ni -0.1031361867511969 6.993557091510221 1.1935013488209412 3.1104131324115336 -0.15167168947710008 0.25455258270374226
Ni 7.784408137587508 6.886612924899108 12.915536785264418 0.6085382092948423 -0.6376076158569728 -0.0554682082706335
Ni 4.972509786501326 1.254974083093131 3.81926011963197 -1.065229894097617 0.7360088760457066 -3.367345271091046
Ni 3.6399114985714562 6.513721966221357 4.068989626487016 0.7027012630325123 -0.21473442226553982 -0.6967422172356
Ni 7.119272337031578 0.3490873766858406 9.75675074985062 1.4965797577014934 1.3822510276492257 0.3437351525076854
P 4.963175230223491 6.065913545937382 1.918441343301483 0.05535713661406595 0.04638244391928141 1.3742101596226204
Ni 4.361453232544099 6.938977282807245 0.010613770544311667 1.3283779317798543 -0.6508572817780275 0.14587153785555523
P 5.72413159507335 7.9830571356351925 12.032862255992509 0.45534982606289964 0.7700181431116158 0.6689467922898865
Ni 8.224198294534515 6.296654136670137 3.2038023270245772 0.4873549182145865 -0.4431082896913852 0.7933722444565239
P 5.694255453183117 6.598548703558471 6.970001009669867 1.0159053368308761 -2.5803593897768398 -1.6460369560257782
P 4.653948355474414 4.358431320581264 10.875100114449815 -0.45810964819622396 0.6118734443156624 -0.35651327810896016
P 6.371200811532455 3.327449509481799 13.205723760713918 -0.7895263883478725 0.580755125644303 -0.7908721037424896
Ni 7.939712165272572 3.755031512885698 7.117774358586198 -0.14127697650633736 -0.4638339522745109 0.3442496302502588
