# total energy = -340877.23086085153 ev
CRYSTAL
PRIMVEC
9.15074042437256 0.00000000000000 0.00000000000000

0.00000000000000 9.15074042437256 0.00000000000000

0.00000000000000 0.00000000000000 13.39303358208508

PRIMCOORD
 96 1
Ni 0.05997212147333796 8.664030680889569 6.309364029008977 -0.17846849795497005 -0.1993998487909985 -0.4878956212094049
Ni 4.404388545109656 7.460122690179106 7.827638380535967 0.26637271526712186 -0.695776510888221 0.05400062258617151
Ni 0.6757867430905345 9.17325107451591 0.4851704180921121 -0.6830827174706365 0.08697142108523731 0.44956098729526445
Ni 8.32751220806739 4.481025994732654 3.1716978160058575 -1.3377956255493282 -0.897418361635861 -1.220798347525962
Ni 2.1025015328631556 6.047440560585216 4.997168008286736 1.3549821646309437 0.1609142911212906 -0.6263505548859148
Ni 5.2409400683436695 2.4221917943591635 5.348695525272694 2.2391246350935052 -2.7865088985868463 -0.5561962053580163
Ni 7.3561428286786725 6.0517597099848635 9.943469796726385 0.7729677126582429 -0.8755961235544468 1.2053416466512594
Ni 1.003104146587828 9.008373036628486 4.169545777392079 0.7830672629860901 -0.6534240140639391 -0.99611015648182
Ni 5.5158832100001005 3.4992247714549563 1.150278247306821 0.5473025024128123 -1.5538189418296209 -1.3353181105431131
Ni 2.147157145300198 5.36854714117862 0.33406149906411736 -0.002396268146318454 -1.0804479965989522 0.08100311931694436
Ni 1.2566437067913399 0.14442887864294532 10.328881589797 0.19800065445062676 -0.6885108304647433 -0.321204318395021
Ni 0.6346038365796923 4.999827213404401 8.68721682654387 1.269843425879071 -0.006139537238834588 0.7098640993295388
Ni 5.887174495785551 1.7188292955147297 10.477249862119073 0.7687662729823856 -1.2531924475859515 -0.5334961926573392
Ni 0.4088376881195552 2.278149992028941 9.424195484783532 0.5029322038275532 1.0053650994211847 0.6943942858287138
Ni 3.424728595051275 5.170021831379105 3.213886388870558 -0.12832093056630162 0.982893914901862 -0.7532743479943738
Ni 5.986835207886336 6.428166259572016 6.075361299246671 -1.0677107515379418 -0.08400153982363598 0.39952963376948614
Ni 8.022115402847337 7.509289617561121 0.17280074879889826 -0.13809883588867183 -0.5120974152665891 0.5260824166917714
Ni 7.433905819352851 3.0744474088878424 8.85511186349287 0.19305282352704817 1.7635826503534464 0.6179163080756326
Ni 4.7400834513090215 8.845736930103167 11.42989591187512 1.658183618690641 0.41121272653436924 0.31459992570462597
Ni 8.29090924705342 1.0677998801800188 4.523617200168509 -1.5758525245908923 1.5207653538087615 0.5210160579124575
Ni 3.2177205490367715 8.090416528099404 9.886522909980851 -0.7432933255222618 0.0354187458189261 -0.26720343869853336
Ni 6.065979960338791 4.0669275460413665 10.607108017056383 -0.08928130016533656 0.709914750061816 0.4804900727739531
Ni 1.1268404562955512 5.8024752439992255 11.264317842358304 -0.22630670048417154 -0.34717014633116344 -0.8497416243851881
Ni 8.825898125233596 7.9386606517354865 8.568139158699198 0.3390364614804355 -1.1156376571262077 1.2239458920160082
P 2.181536476432569 1.9237509727514368 13.370639809277291 -0.04158605097190257 -0.6197492475193134 -0.7783567448842982
P 4.644632079724843 0.18928123199543792 8.910746534086051 0.5786969575636937 0.416747026089037 0.14445331735178993
P 1.772123206751069 7.273520794929891 3.1550105260795887 1.3769697246456285 -0.751991367516892 0.540367722966192
P 7.146682384276234 8.09666648369254 7.145383894234263 -0.3787034410527542 -0.35422088253035766 -0.22683634773539643
P 8.939010425507014 4.6033805426621 1.0407878100257348 -0.5131304845167937 -1.9219682615156122 -1.50926943735402
P 4.808064300652216 8.813553776631634 2.1989750421336494 -0.8020862272907541 -0.1844635391961404 -0.07315379847585465
P 2.26352710910386 2.9105485002075415 8.141116204473878 -0.5141095606006113 0.08853233781445398 -0.0926018798981373
P 6.537828730769869 7.3733096173942245 11.922612030380261 0.8934205533303774 -0.1857418916879317 -1.308151063210018
Ni 7.816022430858183 5.4932168263922 7.697043591008251 -1.9520599386946706 0.5319959539627289 -0.6382030833491267
Ni 4.943293940118325 6.493511695722206 10.43428439140685 2.3513360616924537 0.10224017431884971 -0.846975888714593
Ni 5.764325807882416 1.8257831475975481 8.062271596301738 -0.7060604093127324 -1.2316010945684208 -0.8939548285672927
Ni 3.2063827818626947 3.3169969300469098 5.206488446363297 -0.8300032654159964 0.060931031157417645 0.05904461276798219
Ni 3.5649728401762983 1.5293632185661714 6.922778411457683 0.47461638760199554 0.2458725384312411 0.4194058038681229
Ni 7.790976854784375 5.127672205485942 12.612446989907957 0.4255890498606993 -0.4374156101819821 -0.6749271782430376
Ni 6.4450676768202175 5.442677287972161 1.7162368908009153 0.9548958870270394 0.39269461312552373 -0.16304599275231277
Ni 4.185695003791443 2.8390171636459924 11.883571312162761 -0.6441896399498648 -0.4102657892400676 0.6807034186051825
Ni 5.376801108887271 4.148460641699983 3.769201806375816 2.1704188450866746 0.3644536160019594 -0.6530445192373334
Ni 7.185042287418874 0.3718778482356997 12.496892357060881 -0.38513839804482053 -0.14090879453364122 -0.397124109651787
Ni 9.111639140389148 6.377937846320598 4.434929140705687 -1.0219158046910144 1.0500791544991077 -0.10946625975364373
Ni 1.1552169018216307 1.588037765071564 5.988614111791615 1.2256338212413924 -0.3342909763756501 -0.7121297554352639
Ni 1.482630388091586 6.9810631364282765 7.147018216443537 -0.08684158037559238 0.08842023771662191 0.4155200956604715
Ni 1.7940575311386902 0.6788879289624431 8.153370875821356 -0.7775008246419062 -1.2584943194148392 -0.9557173544870702
Ni 7.952697887284344 2.4979050192165593 0.46274286880482773 0.45379302309874103 1.117446171089856 -0.5454235402225446
Ni 0.20392516162310168 2.0525018881180737 2.4424066946531533 -0.9526667405862045 -0.2723345892775116 -0.06666433409676906
Ni 3.1599061721152073 5.762889141662619 9.19000516484603 -0.29556142101593613 -1.5260366295100298 -0.29982688116050943
Ni 0.8101900707117536 3.469860045981499 12.60138466001551 -0.004027118881522096 1.5951059735038657 0.47636910862704407
Ni 4.07057869140251 7.6947751224994105 4.251819167937204 -0.5053757802720393 -0.4579610384335016 -0.5837424904074011
Ni 8.957897553390222 8.016954385344368 11.42108283393698 -1.2138553405492256 -1.0620036738508356 -0.08657444275713476
Ni 6.739620854839882 8.273531991312039 9.562505263418968 -1.3717066764744763 1.4340559281356593 0.4126548582975345
Ni 3.176981453428224 1.377314518514143 10.045712847726705 0.611546914214179 0.15935311728175783 0.32993038541410924
Ni 8.349876617246926 0.9542849473354466 7.973783022976441 -1.347604126999318 0.1571684509256132 -1.4408505824599895
Ni 3.020366533989703 7.3952164895610855 1.215307067844239 -0.36012387827835396 0.9958453328562074 1.0033336708134526
P 2.080045616281086 2.437601640946044 3.57429286912448 0.7356000706430621 -0.7106637124126987 -1.1972532132161702
P 2.6213302037556634 8.540614647090718 6.216336688517949 0.7299598416381493 1.1200465848271808 -0.4767275204077273
P 4.242813924453742 5.206697998315103 5.32959701528963 -0.5697343490537672 1.5158925990974925 0.18191994683868024
P 7.159255501384532 2.201448487224168 6.477835562593948 0.7611624924931988 0.7854753582069505 -0.5233326218607761
P 8.162313894271094 0.7369960446461447 10.13298162737621 -0.7789157027115617 -0.2373578160920106 0.6480555506631742
P 1.3757863448918097 7.158523442164253 12.888035258752257 -1.3729189516150226 2.554038235383808 1.1109140263982933
P 7.035299573910726 2.605691588662445 3.2173947826837477 -0.364074892506302 -0.2945640900996733 -0.10933307660988913
P 0.2789667221458908 5.216443536685071 6.324819629297126 1.0228288034235868 0.19801582395927833 -0.682973702696598
Ni 5.893772179508319 0.3776455598174759 3.9661861315166433 -0.0038276012762063116 0.11226361999312277 -0.2256189303885276
Ni 6.653905870885419 0.9302825556505362 1.6270656722527088 0.9719255888158164 0.1709469927669443 0.6917149392243378
Ni 5.2101386766504145 3.981560290216536 6.938046421570634 0.3915021354793193 0.9808709709345622 0.27315245719311665
Ni 3.195475099480532 3.2790854131766913 1.3305789428174817 0.05545406720324643 0.4974518974392722 -0.07733544065737004
Ni 5.166764167848862 7.5193462810997085 0.1875508270135025 0.027994428330396948 2.165920700106005 1.7024762699604292
Ni 5.36448421250607 5.565214850706678 12.603687901337315 -0.015293692934276886 -2.5130581934270206 -0.07429871071357526
Ni 6.747316627393069 7.650265921906423 2.2236985121505346 0.312642544867939 1.289981591389843 1.0017159327043716
Ni 2.6537878794348004 4.962464740949391 6.931523773917946 0.37392067495213016 -2.0561340808984654 1.3088077229574104
Ni 2.6644118888691053 9.117257694904792 12.465002942351486 -0.6156642788166622 0.980264447698815 0.035220513765190954
Ni 0.13186491227490035 1.4800590300803547 11.80826255002457 -0.047776753163646754 -0.3580608251017382 0.8125063941828136
Ni 4.207556122257036 3.339763971797599 9.100847672408204 -0.07113599671487748 1.0454246864462318 0.14119392987422782
Ni 0.8611999571808213 3.643824768940642 4.71678566662363 -1.7700122080288745 1.0981364150176507 1.0765409482350623
Ni 7.459125259491476 4.7058688335012135 5.275341361252649 -0.10487606927980002 -1.2982991101166028 1.5686719476820532
Ni 2.40030322367281 1.0093724036614704 1.965829736733096 0.7740414053383959 -1.1323932793179916 0.2441671257043601
Ni 4.6499486598121225 1.0287994252196344 0.43532542085731407 -1.1098729867282886 0.2891652876816052 -0.8957625711999929
Ni 9.152204371932879 3.1647286122287976 7.12447719797711 -0.5768329077717613 0.7167320300939656 -0.3901361083697281
Ni 0.21980901655511367 6.402910216472378 1.941922512746822 -0.28635301504379074 2.0366949983372473 -0.186478255633324
Ni 1.407612619493456 4.309202544992829 2.4869259610604186 -0.1151622816971565 -0.07626123375658479 -0.2990144125615431
Ni 3.2081122717706045 0.8864669811687642 4.600372694340777 0.36542009368028683 -0.5205558304465874 -0.09510407749470072
Ni 4.67973431933724 2.005888017266784 2.916909179757744 -0.9005738765457071 0.0654237768214486 -0.5155627481073701
Ni 5.086988014318916 8.903084619271803 6.046097231916003 0.47032213110201576 0.24699585340240687 1.2051398150530988
Ni 7.320885026481967 8.03444144996879 4.948913409707996 0.3384841885213912 -0.4418412500535036 -0.33852018396564926
Ni 3.2601616823324693 6.9106390394374 11.923335853934313 0.2755667230615641 -1.0108526048983173 0.9869585718895388
Ni 2.014956400857995 3.626548171342048 10.352560045276936 1.0194848266520182 0.3937495367525993 0.7352845962851723
P 5.587570109145959 5.329217259569111 8.540107696080677 0.2903397676056806 0.43652909381197075 0.9281358453243758
P 8.52413416389418 9.011337876470618 2.4314386173853175 0.48032037996530824 -0.11859727552063445 -0.2485755391847009
P 1.4482144539982016 7.009384677512835 9.340984143362425 -0.8125197639192524 0.7473032180126034 0.7807918366883521
P 8.847045485959416 4.273953893536376 10.57992025268923 -1.1186589604510346 -0.9378307040146364 0.25058639896714263
P 3.6608634472926442 4.810324533494829 11.258745956617952 -0.05115081184220222 0.3897738399343029 -0.4329267211726931
P 6.211357770746024 2.2771342598608033 12.568249829557613 -0.628164468166202 0.8036126912376096 0.6512030951532204
P 6.649147485953604 6.16971275185238 3.878555897627125 0.7614010908665662 -0.23256322291684461 -0.25426384781872985
P 4.315626364650781 5.497023534337653 1.2037936064572947 -0.38054769335034466 -0.28106965515766436 -0.06783907113116058
