# total energy = -340874.1734815988 ev
CRYSTAL
PRIMVEC
9.24244871990370 0.00000000000000 0.00000000000000
0.00000000000000 9.24244871990370 0.00000000000000
0.00000000000000 0.00000000000000 13.52725794261427
PRIMCOORD
 96 1
Ni 4.530121572575921 3.6485305956566254 9.244555134485877 -1.458744432021275 2.3897439720466904 0.6886848941487623
Ni 5.670602782283248 4.924496862035966 0.5231549495418707 -0.11805837229802894 1.431572242481857 0.087002788543805
Ni 7.2235467537138796 7.575314354296239 7.205835449115982 0.1924280454588557 0.9121736655681646 -1.2300080390496881
Ni 5.418422567309793 1.907419609505651 8.298364061815914 0.8700682517576822 -1.5265277102138355 -2.347507689085299
Ni 7.833141705474524 2.5372277967490495 7.572938120714795 -1.620949674039847 -0.04884633207874168 -0.9280741388485048
Ni 0.3068631631827435 3.381793523854027 0.806345428663353 -0.031097235625436766 0.10926931325148923 0.19019581369422728
Ni 6.7891146912395435 6.664415572294267 2.062094762580427 0.2581438995994264 -0.5272386417834017 -0.4615544122117148
Ni 3.2643404847525916 4.093378897906482 7.196650303518012 -0.864335205928647 1.1563788435993116 0.9535843673044675
Ni 1.18011283007772 1.2519728693453984 11.699008484202464 1.8504705105859423 -1.5827852471549837 -0.4861369866470853
Ni 5.415076800851285 8.768227975934824 1.3741256936516717 0.25631713080333274 -2.144751522227558 -0.27797378984115995
Ni 0.05048780070786123 3.158708537641299 11.768958109307231 -1.2030081134220765 1.4315107931163022 0.0573181169951787
Ni 7.723258231924243 5.414041646587879 8.223044573969728 -0.9834274188078288 -1.331752504679042 -0.5394480393654
Ni 2.0538384830848875 5.14277577488288 1.1858237391791346 -0.03548636583206792 -0.8960315085906633 1.3091414521477454
Ni 8.999474044420653 3.990399533595167 3.7772566495355253 1.7836670798081475 0.5311320633005369 -0.7139004741824414
Ni 7.919946784420123 7.878614553474136 12.544921760339625 -0.14293199561125708 -0.6204411313800153 0.1254369241502872
Ni 7.002957228671862 4.9510689022796415 11.80218101569329 1.7405915887749122 0.3281879488017057 0.6303797306499659
Ni 4.357574296294469 1.5994612161424289 1.0264118311043993 0.30944075010118965 0.18809367974955993 -0.02825076731557715
Ni 1.0397292755520904 0.7186650898182488 4.470068761625215 -0.5209661785111286 -1.0020692022787323 -0.9408440369196636
Ni 0.1725703824034033 5.055360694317774 10.037523042784466 0.4122187992013804 -0.5441392741934822 0.10780558422176917
Ni 8.34422139568479 8.424297971918252 1.4780561059424908 -0.0769088946429127 0.7475022213972867 -0.7068366253571247
Ni 0.6686948662420904 7.067543460749359 8.34247642135505 -0.3325377411299692 -0.3960905261809501 0.05786730463042938
Ni 7.926832408761527 1.9974040908317112 3.1423410850960733 0.5716063692654995 1.0072749148493878 -0.6668495434412257
Ni 3.363502717717598 7.436446561370596 1.2718635433657162 0.23645767287524436 -0.09765229783785118 -0.24258024083321447
Ni 2.3124699273070677 4.569984254165824 11.499278241812949 -0.8795322253840595 -0.4245528952867011 -0.9952745479544021
P 0.47842704291396027 1.4069872202904155 1.6400854755118381 -0.24649911627164645 1.2403860398499025 0.42796912005710164
P 6.697762327493983 2.6743025546112924 12.146206216932299 0.4148675496781371 1.5993873744880391 -0.5836435029356916
P 2.2185481628005532 4.716024187345064 3.4684562690884086 -1.1471452408161857 -0.5588801799480827 -0.850594973524419
P 2.2616919137075016 4.999018726552402 9.08537983309992 -0.06675252293520116 0.410674337532396 -0.6207393793467244
P 8.831150567231848 8.60667921370206 10.631830060017437 0.05647530937890919 -0.8777388809290625 0.5315524386674071
P 6.874561130214422 1.054443254010501 1.6401529453879349 -0.43389191329943977 -0.8578858507588774 -0.8870457601522852
P 0.4450562573474162 5.262225182920885 12.3835144075732 -0.4643484300170842 0.5268408921243507 0.17643938334008324
P 4.665135264360132 9.10721326985388 9.510812523196773 0.299634048423413 -0.29104862074724713 1.1058065299683986
Ni 6.01337748020227 8.471434460698337 11.085087142167708 0.6122953623444293 0.4761757616693154 -0.7136009406641517
Ni 4.84637044249517 4.074200816687134 11.689309458452302 -0.5105182437049272 -0.6130571802111184 -0.011060371579219661
Ni 1.281668857276852 5.3419505461006915 5.37703118469161 0.36231728638524696 0.43810903670458096 -0.6221015498015737
Ni 3.726425953977911 1.017159215630332 12.332827894216559 1.018893987145555 -1.269416879864614 0.02926840994681411
Ni 5.501244150831037 1.7877761100432588 10.601826298541594 -1.5854044299453858 -1.2528849436478615 0.7173179845044227
Ni 2.0242441620900182 7.677757656578291 3.5339556551054097 0.7635698163831108 -1.0344185651437154 -1.366819523585504
Ni 6.073712185840779 5.159393697790055 3.873124873755194 0.9807799538826528 -1.449443209225007 -0.21746313405061257
Ni 1.0697487491908582 7.729201126490046 5.56876670888607 -2.259006975839729 -1.2175698132863353 0.8201726524788198
Ni 2.9575373974869206 8.816057648373441 5.476942980252708 1.2486583071610238 1.8831466606627245 -0.6197327924590811
Ni 8.102023025394177 5.527520432713739 0.38985573200642454 0.8706917442742941 -0.020136879959191126 -0.3969194498401487
Ni 3.1625718812315102 6.989204464886614 6.911116863630696 -0.11229190212789693 -1.081113398097093 0.9070733682271216
Ni 1.7025884596342304 2.937083858335876 4.92958945131397 1.604703387384314 0.9232255525069518 0.22781593803984637
Ni 7.514166313165054 6.828811008751399 4.530549497954454 1.2949379069538536 0.9743380549120509 0.4262598506754787
Ni 7.086111540349201 3.0800460560712395 0.7406879967722069 -0.10688101552497077 -1.7052597462428372 -0.5190476213321771
Ni 4.852202427675608 3.258332893045326 2.7650929774710042 0.37072427950201964 0.31160330497014727 0.13983458763285597
Ni 7.665714745817418 0.32170653592408005 4.744090731556531 0.963141157754967 -1.357919649992713 0.35278337875288274
Ni 0.635295429084327 0.6515815480802855 9.250994348551188 -1.3772013810404604 0.4897195617920211 0.06812652046459235
Ni 2.7990940980443724 1.3674480244078264 9.202809766079405 2.2139800175070774 2.537353318528959 0.5590133630918372
Ni 7.893550350703276 1.2841365911012212 10.990802149424123 0.5594072560961462 0.1617766391215859 -1.0586602112998995
Ni 0.7939383654205323 2.1455513023328843 7.130231293847359 1.565312030070885 -0.8758900006457818 0.20141430811786604
Ni 1.7504273745216268 7.140253805304835 11.202314665518902 -3.0399762186462094 0.5668099763181207 0.8562192616897318
Ni 2.3212132838533344 2.6227296904166115 2.4588361189282555 -0.07113908203867102 -0.17958898471265844 -0.16790486350651082
Ni 8.628315786296996 1.0146175422157195 13.235529548395187 1.4605650301697815 0.17769099635899718 1.1351353608395032
Ni 7.63140677594454 6.942262067530917 9.891766852782785 0.5129301955805294 0.8125051086312329 0.5719203009614924
P 2.221533473756625 8.743319576471624 12.767851473412842 -1.3389202260720745 0.05713968243578546 -0.25939114174296624
P 6.569005773534107 0.5440761566012041 6.7403616981677645 0.06774574008640591 -0.10992057368224294 0.4589429427307967
P 6.031529649606993 5.473026954704448 10.015352256650022 -1.5044835859296024 -0.42721861504432235 -1.3910372584822883
P 3.178552075172837 2.596887803626588 11.115537313919644 -0.19730182861138923 0.5241808287936843 -1.5020096704678132
P 5.506170376030995 7.623291905915342 3.3837353623427906 -0.6705799570179354 0.1378116436655562 -0.024192795196119624
P 8.747857618822804 6.286584266151154 6.518460669643807 0.8672035286153774 -0.2492967336214416 -0.7831641935752706
P 5.617606580976384 7.091934283080858 12.878503918701652 1.1300908564370602 -0.3477841257660785 1.17585443582542
P 9.158832346292463 8.116163972028202 3.4357749702008826 -0.3227989165756505 0.38467817057895043 1.4862791471064338
Ni 6.544568738958707 2.3513066970823453 5.361366158253696 -0.6798670387468162 0.4543193279158563 0.2447497376807075
Ni 3.578602228184052 5.736723260858293 13.103151803003147 0.926445087885514 0.47586594373838037 -0.572021345315731
Ni 5.531808928947848 1.018832098859586 3.372197089285329 0.5741949559282821 0.5078934044875704 0.18691662872232326
Ni 3.5200513151601625 6.2361574656052445 10.311936892544072 2.6828877847600694 -1.1062765276262818 -1.8718862572575568
Ni 2.6436915642505787 2.846720436609819 13.272540010291454 -3.0400242982753256 -0.6624411299608849 -1.0920375012087644
Ni 6.380034665769869 0.7690539963241596 13.062272452047399 -1.393181815629117 -0.27133571569935205 -0.3870284159786819
Ni 8.976404892264753 9.065603765444479 6.893653256660114 0.053619842207985075 1.2148531856861204 0.41478424593571145
Ni 5.3274491439642295 8.771019195466508 5.178234429628919 0.35745018810093276 -0.818425844991042 0.6963838054549168
Ni 4.316630248197257 9.037090810956919 7.439937434274958 0.6944436510094104 -0.2983739507640668 0.06050088559853451
Ni 5.471141495153245 7.083560624485807 8.41265618343445 -1.3054881716658742 -0.5826037488172676 1.9542901135767694
Ni 3.3176416868692096 1.79707401351635 6.822391203828527 -0.583542458581453 0.30095173879357195 -1.2678742179678422
Ni 1.0031569057280125 7.051128871715353 0.17626181644629857 -0.5263305281468355 -0.7889358059517251 -1.1586077329298303
Ni 4.2705658834757 3.9507679132247744 5.09909965892618 0.3781113159947101 -0.6990526105363315 -0.8113051747858608
Ni 4.176228208774067 5.6210540143714764 2.716949986018733 -1.1585341993794178 0.7952308949318175 0.01072175729287831
Ni 6.917584729287225 3.382588374449142 9.626997498325537 1.1921287475054114 0.8676017924950606 1.0575785481999465
Ni 0.7378949287507672 4.472078994234954 7.467181400544969 -0.1720271132050005 0.4647176404310448 1.2502680748503048
Ni 1.6401187483274475 8.965313953728263 1.2478017522108 -0.44390533167138385 0.7078578675327873 1.138994072463961
Ni 5.64984424232245 6.130220517684198 6.057979689526767 -0.994138634577746 -0.56266587224276 0.25818015215400053
Ni 3.4891260815409146 0.18018061472919192 2.7330198317132295 -0.8828216947686087 -0.09329890596516191 1.1131879100341344
Ni 3.888658657420427 7.887043666761868 11.895424384459321 0.5260844735743003 0.022492010454929007 -0.15850902411390766
Ni 7.808048457035714 4.398730920713629 5.6621043506296616 -0.5410673201363778 0.9242719914935953 1.3429049217514357
Ni 2.5112565156761004 8.416478860250027 9.236682416614725 1.2883795370100455 -2.642844138574622 0.5599883254105968
Ni 7.428017448082864 0.16613948654199487 8.822707590270944 -0.8250814026343467 -0.11953007174754898 0.3386286845190555
Ni 0.17986452298090197 6.234262763605261 2.3891841006742167 -0.3842112582448609 -0.6437918902908139 0.535952881727948
P 1.8473899046768958 0.048742826378120045 7.428818768392125 0.296826917991921 -0.05246001757192901 -1.2745763125783662
P 9.142611848682845 2.768473865234878 9.244730741012704 -0.2652933661600141 0.5983846658006081 0.7951882146193402
P 3.9000638392154516 3.7851432310798483 0.8695323539954961 1.6522078607231803 1.7252143349878934 1.931242744839003
P 7.571589647437735 4.421458102264654 2.2590254672343537 -0.43784472729960083 1.692360778792982 0.8213458468513144
P 3.6712762621052115 1.6380946520445379 4.52447536061597 -0.46912065459474694 0.16619096613919765 -0.07144195799107052
P 5.6017372964204215 3.963762796210029 6.930244111381752 0.26477503176269884 -0.37266469105784206 0.06816662967390841
P 3.474624679404453 6.0285535810997 5.034885897534534 0.27676922801009757 0.4199231098241735 -0.05176067751205924
P 8.897086196831285 2.253900529385617 5.241000823541554 -1.0590548756351565 0.42952926545536996 0.5148268983826101
