# total energy = -340866.90956159035 ev
CRYSTAL
PRIMVEC
9.34099072646273 0.00000000000000 0.00000000000000
0.00000000000000 9.34099072646273 0.00000000000000
0.00000000000000 0.00000000000000 13.67148412999076
PRIMCOORD
 96 1
Ni 3.7180505235620984 7.206648954698438 12.957216826144911 -1.8965019989237082 -0.07538885845396048 -2.404932249751355
Ni 4.862667485358842 0.07687168191734992 12.126728970413755 -0.7688097246258114 1.986371824602663 1.4528257525439947
Ni 0.9257192546189849 4.080023249241572 2.572521881085467 -0.0645665710274759 -1.5238607049046335 -0.7983342164474896
Ni 7.2309635531589596 7.421108757255147 1.8483980168065832 0.8770863349467283 -0.7984213768446572 -0.8381420924730469
Ni 2.7774781598335956 0.09048057108259532 4.36820308349643 0.23643093340236698 -0.9095765942649497 -1.4243811240500566
Ni 0.32669554068292883 5.912333277984937 12.81220355209938 -0.5337764429019195 1.5881909915515873 1.69727544248578
Ni 6.751966897585743 0.4581438282189069 6.278820504408157 0.9077652520878238 0.29235962624918677 0.08392954893511997
Ni 2.244238372005193 1.9562649736419901 6.572962692945516 -0.7015676636487014 1.5147857391865591 -0.15757699921794152
Ni 3.559935576139414 7.050290113503405 3.4199356117342052 -0.9003273077525397 0.44544105158962 0.3735733189150405
Ni 2.325607740883258 8.987256600622368 6.608563076215873 -0.8128676341769743 -1.5008732428705247 1.9195912766430034
Ni 5.471728093665175 0.04097332104772631 8.381481218700426 -0.8303164257810409 -0.39065392854641107 -0.012664225731229802
Ni 4.013076369807627 7.231206418913847 7.370816864012178 1.654156499809119 0.4607869379180709 0.5114273857827579
Ni 4.566100375668832 1.389649826497628 1.3104279513522075 -0.4032852441571764 0.3553305706547687 0.14846449539371206
Ni 7.460789285207623 3.009480342685679 6.20455682705868 -1.254031655657795 0.4911534660250703 -1.532327347614748
Ni 8.160700367823226 5.372414681897114 7.675553604056999 -0.5439749807014761 0.32659643594486976 0.6633055348437091
Ni 6.929520446390043 0.0675531097221074 2.97446377132611 -1.3788546003731674 0.2525088128008361 -0.06273131759095002
Ni 1.6255939073713555 4.037549765107883 -0.018129928602391935 0.8129995317691482 1.521830304738166 1.704490472176981
Ni 4.258622988990005 1.9659328988846485 9.997464180871617 -0.3191114404217343 -1.0014038007805917 -0.8906126515679371
Ni 0.897102195900716 6.617933023859265 9.493669997625272 0.2120090529145768 -1.3161495080344623 0.026131921200361445
Ni 1.2008964299967604 2.51326824148713 12.057701852379289 0.5883455363970512 -0.1914307145425929 -1.525556861660134
Ni 6.905813012316742 5.009844132820993 1.7517271712715148 -1.455601772627235 -0.09432400479556659 -1.0400251126972153
Ni 7.659434790724892 4.207247540840613 3.6415366015836796 0.4334041750297439 0.12752825946167715 2.4502960225981347
Ni 7.840173617314455 8.728455115817448 8.494926615105799 -0.5698233092231477 0.19677295269111275 -0.47146087269214937
Ni 1.4765397208041093 1.8523464535216283 0.8641116853963482 0.3841642070570093 -0.4202149300329795 0.4398260193956876
P 4.566642153122044 8.805275422286648 2.894553465175488 2.8026425709239153 3.0016212730170952 2.5329575034541087
P 7.841845654626952 1.2767452734464086 0.5639641740198534 -0.2901713603486164 -0.5001687821498031 -1.4066448831125582
P 1.8320765039790499 0.8709931931511949 10.706344482635046 -0.2653172774194141 2.582053746760127 -1.8310465975333754
P 3.0327394092114948 3.1549289068918953 1.9115739383463624 0.4789744074603751 0.25934691876859206 -0.30076559092469496
P 4.063246830173152 0.8417857838287367 6.384719314529913 1.6715798374918889 -0.06131206864592021 0.6097299156100984
P 6.85451229209193 1.3584509179850879 9.588741665574311 -2.120070217430794 -0.7792121509060581 0.2418896425240931
P 6.389013367896145 7.011151363004141 7.384719994380461 -0.03584272073022214 0.4467685121517919 0.23214670420471634
P 5.516321982658848 7.1727598409009845 0.346104250894712 1.7071919302685439 -0.6596756514006058 1.6433750929228987
Ni 0.7736133664316648 8.920384449113007 8.94808235435893 0.48672859748449726 1.0711069217036842 -0.19820145760752317
Ni 0.6621688102069456 3.866413476826971 7.263289919233614 0.5676718100977837 0.3831789603256046 -0.14843647036925403
Ni 0.07610572069039534 0.05998317096205875 1.8902465886709636 -1.1513178841366365 0.5051163559630656 0.6924523316109945
Ni 8.714154059250772 3.4126281548092474 0.09796644092749042 -0.6096268143733307 -1.0744385571800785 -0.014431344933981597
Ni 7.129015982049419 0.7558720230370938 12.025423125356555 -0.2736664207150577 -0.16076593846888443 -0.26956396851090997
Ni 2.3523883608549503 5.646675506099715 7.756133659231678 0.4905659689527164 -0.4751699461126204 0.7237046047570568
Ni 3.0345795843543004 2.4142350594362463 4.110714007866961 0.019190713995837917 0.5489837467699771 0.006247780681924724
Ni 8.570657762074234 8.051382755151892 13.167101411519154 -1.2596212339304307 -0.6382030833491267 -0.32199004752111
Ni 1.40682790816067 8.489512576969911 0.25708647893578845 1.6171462411333568 0.061421340530274864 -0.7795091133211866
Ni 4.288065791274893 4.919180478323174 1.3449634616972865 -0.3620709747023958 -0.4629412652569123 0.14894554879518865
Ni 3.224594014582471 4.242640554120258 6.049932607812983 -1.4103362159212163 -0.381270173338666 0.8737660123242437
Ni 6.726755564030251 3.495193170480607 9.083907830077235 -0.9352814552302214 0.5754879637080927 1.0154325109595157
Ni 0.6641079998498208 3.109027279218056 4.895868168151094 0.2826357140932036 -0.10550701799557959 0.06424235491883776
Ni 0.47056360928425817 6.282722236170338 3.0850657702011794 -1.1865471396525757 1.0044346171871152 -0.9712511884566112
Ni 5.737189704748372 7.943755861774203 4.707611712348689 0.6641408862608111 0.9001334465741787 -0.6242443071761895
Ni 3.2397731242629733 3.8581467001702054 10.817438751713292 -0.5539521465188461 0.8709737942910871 -1.2194693443018936
Ni 5.2239956826888045 1.1947033532471156 4.582914158699542 -1.2224196851794689 -1.8547064030441605 -1.1769145016588183
Ni 6.233803468541543 2.9462605184902086 0.25814201087049415 -0.020697894668983707 -0.03811351904226984 0.5135961112993026
Ni -0.06727941869832972 0.6895818152404042 12.51802119730256 1.5839106190086785 0.6183559667162125 0.38744030670511986
Ni 5.073643098431965 3.3263547658805583 5.3004619656153045 1.2329696927811733 0.8660334195666762 -0.4622568375953781
Ni 3.7576469825994208 8.464263879452128 1.1030028487957364 -0.8507160724833156 -0.26706588467940456 -0.19031614132217545
Ni 2.2008961757482512 6.23746513684601 1.2774224952629234 -0.2909221224717119 0.246254347250692 -0.17072176413001566
Ni 1.2877489603409513 2.1874825132859734 8.796861992077893 2.0556897942721952 -0.0982873603186888 0.8163100841996198
Ni 5.013627234002903 5.231870137741521 12.876036145276414 0.48801646305798535 -1.2840698538910982 -1.382913343823573
P 8.679461620264073 4.624248041983372 5.602341296643962 -0.5432296178950193 0.07336308627318333 0.6364529334272394
P 2.323804929702743 5.630011178918166 12.388770844848317 1.9442191024940128 -0.3536850646315457 -0.27343193610674843
P 9.446917405710268 0.14716917466969212 6.802069168720087 -0.3073774398142577 -0.041350280812012655 0.15428213051675366
P 8.730949160300337 3.97971035148224 9.338922477304017 2.717208926639443 0.14880156701815664 -0.1108662254249639
P 8.1575711359814 7.653129622088375 4.013319235562515 -1.1945191021144588 1.9143799076453933 -2.9596462141368898
P 3.172349854309825 0.7325092715159218 13.333989417287638 -0.7022775452315325 0.382939847731605 0.8825509576057252
P 1.7399089499990397 8.083487739749977 2.58057474905812 -0.46856143965716723 -0.26285004682584406 -0.736665535793099
P 8.929678734732759 7.84565677878058 10.579321956432375 -1.6437008516934337 0.510901852296591 0.5048461330208144
Ni 7.395813354784501 5.922234727991912 13.108027118939809 -0.2939938194185001 -1.1886533873623013 1.2215786773354125
Ni 7.997681400349918 3.415720022688783 11.500520171614212 0.5624828096976765 1.301438684186849 -0.4288291540645518
Ni 3.594357126399507 3.060005760692963 12.865426648184037 1.223289489378932 -1.4358826969317529 1.4570009669676067
Ni 3.079930093584355 4.773162113692028 3.615437873923788 -0.28661578178687414 -0.8046609299964658 -0.12328799612808443
Ni 5.269701149560619 2.4936988662374975 7.563270226878859 -0.8382408228344402 -1.231909369837459 -0.2280897605265233
Ni 7.603230050449457 6.448244589117107 5.510400728734867 -1.1643472065167688 -0.6433897697563887 1.7362083721055521
Ni 8.019735479091867 2.2528694472942914 2.4687967194699585 1.7086649152696443 0.3247467843306407 -2.294205892338365
Ni 7.00625668394409 6.636493572127055 9.616002412461436 0.46070054885185174 0.861418032281852 -0.23841068283655714
Ni 1.6559614677229326 8.29720960405145 11.269732317536569 -0.02919924727177552 -2.1254793042615074 1.327909476783868
Ni 0.782880563178758 4.704001419492374 11.048446119069391 0.20507195947511134 -1.3105684144022591 -2.0640659341510323
Ni 4.9731807448234715 5.371461900858708 9.308188750121994 -0.19018630061253053 -0.7704647437307311 0.4226633915734721
Ni 8.85600634208653 1.6163369857138923 10.101900191869701 0.7132003627916234 -0.7473034751229195 2.4632872926514806
Ni 5.874959974703897 2.6280783566151626 11.610835402078703 -1.434051043039653 0.5589740252134695 -0.4611132109092381
Ni 0.5838744954253862 7.131706187334333 7.185158137688019 -0.44840476220363423 0.24238560832390516 0.21645731849391753
Ni 6.081255751500139 7.397410664172418 11.98555764579074 0.5215130521535342 0.7233572487199671 -1.556415241801887
Ni 0.7087289777161541 7.89837732957243 4.973781370517291 0.796781270138073 0.9464148461392216 -0.5150716674035646
Ni 1.157731712560698 5.563372552173119 5.149350892923968 1.4511951589191072 -0.7659288035335906 0.9503218945031117
Ni 5.2852632398546 3.1317258863095145 2.890875917187049 0.29308622000256623 0.5614379133729298 -0.3193050444897791
Ni 8.84219101702963 0.502293086061323 4.256452142780929 -0.1800733805482447 0.47436647637471857 1.770933691401879
Ni 3.233757526334208 6.2804710574423375 10.542477353217745 -0.6137287523568463 1.362262757452757 -0.2854420731937471
Ni 8.383380242083838 2.1068510826631455 7.94325518467951 0.2605697354320996 -1.8344617938625114 -0.18101414719495923
Ni 3.112707629503667 8.64439554165447 9.113164746649728 0.1556173043884094 0.34428408303262 0.5083610881526084
Ni 4.732463417767137 5.992152042427947 5.319615666784454 -0.24334437269274867 -0.9751502664007012 0.4534554372536642
Ni 5.740954123949137 4.802053797533132 7.170857081121342 0.08978652193652924 0.669195417965583 -0.34745759566459516
P 8.968611983439425 5.26431139800022 1.119189851359024 0.5874703328809495 0.9890311381478514 0.791586870421327
P 7.14900570187482 2.018251787081875 4.261702713581797 -1.199200052529896 0.20339637154490134 2.0135481279071388
P 6.538506581020305 5.262508586819705 11.190314281589123 -0.5105439547365401 -1.4192641145384655 0.03613711204218938
P 4.611441543908314 8.176000910381173 10.553934078155057 -0.051956338462633096 -1.2924819892141934 -1.9386925162488289
P 1.060277157916587 1.6802573842023092 3.3901453246000157 0.625649157943516 -0.6146021561007351 -1.6194427504770172
P 2.7218245380019446 7.024779868249589 5.675251464459465 0.08610598776114847 -0.5371121921433717 -0.21784777108354095
P 3.4530653029981053 3.6024090602731027 8.311770340156043 -0.42236385805518223 0.15385481317134792 0.38184250090236815
P 5.160159353115542 5.514892811101237 3.282399800642053 1.3798796992035718 -0.8294756750473006 -0.3760734596290749
