# total energy = -340887.09027285845 ev
CRYSTAL
PRIMVEC
9.10680332876632 0.00000000000000 0.00000000000000
0.00000000000000 9.10680332876632 0.00000000000000
0.00000000000000 0.00000000000000 13.32872720143754
PRIMCOORD
 96 1
Ni 6.436834209946746 1.624334952600325 11.398447352194255 0.28971576086843653 1.6256805038566131 -0.7510284893829905
Ni 5.495463963259922 0.19218633199168123 6.170734331150535 -1.3868391612405406 -0.4022274923166234 -0.7594668499583307
Ni 3.054021093623943 1.305068646047682 5.186181445054408 -0.7490669947812455 0.2584794285619742 -0.12455992086197258
Ni 3.686388400963466 4.535424770015023 4.798208861766456 -0.402874638982319 0.1909460615966905 0.033486047572587496
Ni 3.981630960676989 3.060241040208901 2.6370615557533847 -0.5382267653637892 -0.8662128825673341 0.1044109567179234
Ni 5.195895672026845 4.907383039877426 2.4321858041841335 0.8199309687816589 0.8650859680517424 0.04004081797196975
Ni 4.920077923536916 4.589200442905472 11.086901793393775 -0.05683834914528276 0.37074176300351636 0.9354927999100792
Ni 5.884060362567008 8.26405052421573 12.09135486584049 -0.44432185038351224 -0.9512045542183811 0.45038862540288244
Ni 2.0815055799963327 6.596449149616669 0.3926361772061895 1.0338927745472324 0.6643249772471591 -0.8804830193331029
Ni 2.816060326032507 1.5584927654711218 0.30330481258565084 0.5532440647082277 0.08226861629292928 0.6925461768763815
Ni 7.935313142336064 -0.04264260597959814 6.7625963992212785 0.47208153699528377 0.10427751646385268 0.6173655777784852
Ni 8.539877379508855 2.4764312075267663 1.1698872593608363 0.39212202845150534 0.39259125477844004 -0.25639349256722294
Ni 7.312799396057923 0.8614899224262712 4.591359665943969 -0.8469463210282381 -0.3620943717411635 -0.4436428220386166
Ni 0.49920125620062905 7.367285399597899 1.9265205390728115 0.009140014628055228 0.6472276554452401 0.3651876659545066
Ni 7.973579929378513 4.129725794300102 3.388455691584941 0.561126295669782 -0.6239301183698803 0.5987006543791302
Ni 7.66409432946166 3.620892272355827 12.26030974287137 0.7985705008280118 -0.3271605359784559 1.5136547109059093
Ni 8.737249125242082 7.27456903622827 9.422130813228984 -0.912936254765802 -0.4033585205972731 -0.34901876950412797
Ni 6.655980322128924 1.220147706216448 0.44994073633627407 0.6476734847334071 -2.0393509479028555 -0.061429053839758725
Ni 1.930924589099877 6.633686867897626 9.515524722756622 -0.513477069222935 -0.9382724195377454 -2.3156010701846896
Ni 0.2756347017456271 4.831395873984471 1.0953134693243742 -0.4222052209901309 0.5877192156669621 1.4248611490102687
Ni 6.563928755392826 2.150371225787624 6.62405733419494 0.5235372816724144 1.1271405155594847 0.7191398682045099
Ni 3.669149222507645 4.71690514416589 0.4625117674722564 0.8903352295368344 -0.22029289018992385 -0.5384118847914018
Ni 6.295970178063687 5.793065185002001 4.600903595696583 0.1410939139612538 -0.15141715026413277 -0.23381689281828763
Ni 5.2425953588316245 2.8290375205911675 9.319205723473209 0.37106186534709645 -0.7965470426400798 -0.6360950358671883
P 0.3873733556374527 6.046562158851033 12.595700555168268 -0.7526727098546327 -1.5962645125883412 -1.3606774152435082
P 4.131219310024748 6.3059421275666585 12.480247236251545 -0.4314213402717602 0.7027956225185314 0.40728896599993086
P 2.273722875118891 8.68950215606941 1.4476329180880056 2.9399523352523884 0.08786487943378417 1.6970877519550063
P 6.78050674907287 7.64113607859683 5.603210194629279 -0.6760607776268487 0.14892832240400802 0.13479908209147753
P 4.827999036391221 1.0429839567819361 12.696212342076292 -1.4296698832528216 -0.12604499004793132 0.01099840799303267
P 4.060359274332862 6.1991739668608785 8.12861778976059 0.3083236057776109 -0.5664268819470891 0.8305064303046601
P 4.94212549408184 1.2531689746162396 4.290637542745571 1.4091313969798378 0.2965294413561603 -1.818528667572023
P 0.3995974175715509 5.821815362701433 3.3137343713366536 0.4307896202250323 -0.8594963897791069 0.1786011668780924
Ni 0.6663038094608196 0.28127727700776467 4.37967293626214 -0.4204782109966952 -0.23093442906417 -0.5454034856178865
Ni 2.180715094046892 6.439584464512863 4.764020101196546 -1.5061373194829415 -0.7447020329443303 1.5227235059763968
Ni 6.023613014789401 5.7133624434038275 9.106986245804235 -0.4379108046508458 0.08267845013683825 0.7211273309481838
Ni 8.845046354709355 2.4467339222946314 9.963757022812754 0.00043631620647021626 -0.1794833123727296 1.1058893194901922
Ni 2.5388674502595205 5.107605215011959 6.888139145402239 -1.0635926156045103 0.8848659788921469 -0.4452600459270654
Ni 0.7875071639174281 0.34807112507126975 9.040129560798658 -1.4594275741312284 -1.3370386927786457 0.8179013399461398
Ni 1.7061868997534757 1.270717784380828 11.55776541007989 -1.2103856368330703 -0.3667372698298136 -1.1350546282002387
Ni 4.220165456869966 7.251638105773036 1.5192351582406143 -0.7372908280819238 -0.10153132117728321 -0.6107146481208707
Ni 5.60765977867234 7.976175368290245 8.209842278173324 -0.28464297433121943 0.03215858701041558 -0.6486319919919344
Ni 5.568454990900387 3.450859149826179 4.552359781243995 0.3752455644111408 -1.6840946821294478 -0.11311619780140518
Ni 0.7489407630497292 7.57137796609203 7.239778315966901 0.07632705399751372 -0.003048814128652814 -0.16314472311370612
Ni 5.626000880315246 4.641655629332057 6.862348678742501 -0.08841278151745419 0.6852265032865167 0.36470275589828804
Ni 0.9342487265851604 7.794758741761772 11.404965091243822 0.014637033186884469 -0.08205392917896191 0.5985098785245628
Ni 4.792673746782068 0.3767256813371118 10.222240882093592 -1.1009952246226846 -0.5377824787375189 -0.3305651907846307
Ni 8.131428149227819 7.536016249270081 3.9821036037630204 0.284154207620259 0.7970730903468789 -0.4217161971688544
Ni 7.516254486328121 6.508122265388987 7.275898629495332 -0.10523808060490907 -0.619030624185734 0.26167582401208483
Ni 2.553201558494841 5.462460908466528 2.493178618609837 -0.48665557815471666 0.5879837821822583 -0.5723913270606401
Ni 2.3016261201208104 5.244389399061839 11.438326954083257 1.695153768157087 0.1874362486712191 0.5925860568409601
Ni 1.5915231406741122 3.6822174850982967 3.5414691096158655 -1.320597773613803 0.14734940795266238 1.0033951201790074
Ni 2.115137004210461 1.5707687361834546 2.7357610888247965 -0.3601269636021475 -1.607117139032129 -0.7963938048916671
Ni 1.107396375808887 3.4833431168372253 8.024187345436008 -0.3387130167027457 -0.3670283187076711 -0.05728057888902393
Ni 4.205166552001114 2.800688042232494 6.905199830515359 -1.5214510670218766 -0.5889890835183211 -0.061680764839248614
Ni 4.51365951036927 6.794367303541839 6.123457273022935 0.10349230155839596 0.26291920950088266 -1.0582028120475067
Ni 0.7515116135928238 -0.0720530269109622 0.22204480764043902 -1.9475211702840525 1.1802026854917866 -1.7282814039489913
P 0.33198395722013035 5.581778243980612 8.005460115337462 0.5176581971838181 -0.27685613129694897 0.5553618823821791
P 8.364899262842119 2.024096292629459 7.807714990673075 1.569853112474348 -0.513093203520955 -0.20832466208445413
P 1.9605945539224143 3.180660298910071 10.410869186075399 -0.6477519033798264 0.6385003028745713 -0.7941962830197161
P 4.0644482289692405 6.40686372061864 3.652191444270676 2.121513891855856 -1.0854968718767692 0.8284942849706377
P 6.809785121357848 3.9096690017980174 10.348116937271637 0.7048255084643668 0.12644762480298868 -0.14844186968589274
P 6.6999661815803835 7.713781047715731 9.999997546143414 -0.6803540056855637 -0.8050746204951167 0.7396631849688422
P 1.9904102275961364 8.521445209833958 5.778483371719665 1.4169946017779982 -1.127285525777781 0.029526548704207213
P 7.070540217356531 4.281654592070018 1.3876272811290797 -0.5110288647927586 -1.9208200068437826 -1.6419671568317789
Ni 5.329501581760253 3.080540104539606 13.43295727428184 0.0732594708157835 0.9778339838804514 0.4032816446127506
Ni 1.113324904691475 1.150872254281199 6.808673180687243 0.26440916378284784 0.48817587145398506 -0.08247147633235474
Ni 7.163229260316562 0.7631391799173837 9.064547632216296 -1.1370058383893387 -0.07922674414281194 -0.588389245150793
Ni 2.657583736762466 1.519934560726302 8.811141726399255 1.649873813273365 0.9375447973431015 0.5385946902261692
Ni 6.328945912447483 2.276181711982637 2.657054631496601 0.7267665315118321 0.027785911864016664 -0.5687848406563043
Ni 3.9545928619789805 6.787218463030578 10.485362836243711 1.6497802251182943 1.4867506874262137 -1.2492764003609969
Ni 7.9715582190683225 7.483187683912335 13.184949881401199 0.22898887530202497 0.4516852327271189 0.3258348751884969
Ni 7.661890483087488 4.057144572803594 8.363443085010589 0.4972958314773823 0.10209644965213384 -0.6634526019445348
Ni 3.2704078444368063 8.505134925304443 12.440486933484449 0.42643005770475595 -0.35770729841706134 -0.015550546140089348
Ni 0.2940213374045291 4.889060151840917 10.467635533136418 -0.18788824860697317 -0.7460024969233088 -1.1498269014134068
Ni -0.058606831987550206 2.691433724253372 5.324813399473377 -0.3734267660348472 0.03604815187280888 0.025514085110704444
Ni 3.7855979150140247 2.5683734926244752 11.467223751314195 0.04154979841732844 0.0762298662980171 -0.06471698056241112
Ni 1.2816368414165007 3.5855851963530716 12.756085019708511 -0.4368785067315895 -1.2875719535070858 -1.0891630078744468
Ni 3.1287970546914243 8.17045990773899 7.801916689076233 -0.4157887759408258 1.0124577446019078 0.056776385559095775
Ni 5.678510707561026 7.909094655925969 3.4006915923631977 0.4756417435427163 0.45531408772895776 0.654751474626111
Ni 2.9886069262450956 8.159276753410545 3.6710379734911305 -0.09406740870007024 3.845718811742628 -1.2473629853883679
Ni 3.396027087764639 4.2381604999913085 8.87725165354251 -0.03612194253353779 0.09257102666020187 1.5512930900839734
Ni 7.508194965496953 5.817535165197875 11.350836985069568 -1.2625026692432837 1.796810559168641 -0.17065877210256414
Ni 7.864680776724154 9.097459618977698 2.140606911397592 0.44411950456471905 0.1036897622811827 0.203633684366688
Ni 4.626164957090457 0.6272028392453358 2.0565957412059443 -0.6208972450808274 0.012045104089992159 -0.11148431862493703
Ni 6.007184341818298 5.849791462128945 0.12074346089505605 -0.08435455228768053 -0.17889530107974352 -0.36079082243839156
Ni 7.97399884232567 9.031007276034158 11.083449404301012 1.8839354751126072 -0.048518773535993855 0.9583892448922785
Ni 9.020170180227277 5.891145455455876 5.374502849768407 -0.5412670948520097 -1.440795560852338 1.4249292832440426
Ni 7.4139759795994795 6.2039368249339875 2.0683116435215347 0.22506177233347693 1.471557010404911 0.7823542960794655
P 8.691706002443583 1.796016406509003 3.1894711310051616 0.37773104983715594 0.7093568206758171 0.6481997895505224
P 2.247932408459153 3.4711126801408883 1.3398302245388136 -1.3018076374904934 -1.0189536367388967 0.927788746397602
P 4.676261481488485 0.9361884756665603 8.074622642913043 0.369409417345338 0.6407757291723093 -0.1105522937289709
P 8.65328439974675 1.5966138436623867 12.390037975802617 0.08167803389678191 0.12995615217687942 0.14125203680567286
P 6.236839704892191 7.968634935241424 1.1303801257226744 0.29307105049391463 0.53535304336042 0.15200850399122853
P 2.0534839465528254 3.2944224844727277 5.730619835466047 0.11767296393415218 -0.5831881605658279 0.9024865201873877
P 7.272647500753268 4.009552419285306 5.646781694535181 1.017724649427802 1.0003943856794708 0.04850103292418098
P 2.581578357263112 8.609817628077636 10.198102389534164 -0.03213698974386078 0.9937645390677787 -0.15930040966695144
