# total energy = -340858.27937282826 ev
CRYSTAL
PRIMVEC
9.34636309134658 0.00000000000000 0.00000000000000
0.00000000000000 9.34636309134658 0.00000000000000
0.00000000000000 0.00000000000000 13.67934712904096
PRIMCOORD
 96 1
Ni 5.214747329972475 1.6508107657824413 3.430698547404917 1.0711853403501035 1.8921126116067608 2.1030559422609842
Ni 1.1313959712584563 8.414428076928132 10.871387913276648 -0.5701521533174762 1.7671117465526276 -1.5983710174083827
Ni 1.8060538603418286 3.9965516826650713 4.224305733046894 -1.160258381159376 2.083952902882946 1.1986536931081226
Ni 3.932893602168744 0.9894247125975836 13.679621468223596 -0.48015377248045693 -1.3140944252776463 -0.9380168518835137
Ni 1.5611978343775403 0.37285260220582345 12.758426142416681 1.1475591884251526 -0.5833236577024277 0.8279227287378838
Ni 5.517728389354273 2.3866219099953785 1.0468833503111745 -1.9352989171862474 -1.5141406494033922 0.7180772312679504
Ni 8.563081985354806 7.206027418368364 6.497594576195934 -1.812050516046847 -2.4719506247534335 -0.6500370998695773
Ni 6.107773651402959 4.95073125922512 9.459638428207029 0.22198724717321122 0.4535199719430125 -1.5971605420400492
Ni 7.012604429692476 7.681832081693427 8.107311251782185 0.826645661797673 0.2974663513481328 2.007846963757303
Ni 4.009449664031234 0.8898223880882231 7.1019341662891184 -0.5775078223515989 -0.47072142342296347 -1.0984107517249602
Ni 6.406885316374908 8.91988875103206 12.313341106015026 -1.6105835003141749 -0.1476453419265264 -0.693093050518787
Ni 5.02098787221747 7.357317001248124 3.718894594668503 1.4310464518853743 0.3455179554397211 0.4309076338601353
Ni 0.9774707139256115 3.6911779542762173 11.386797791122806 -1.0579063638530104 -0.42138066820630654 -0.7389389052083081
Ni 2.7329700951300695 7.44184551101303 6.542708537251244 2.7447737236315892 -1.070576760231827 -0.21649819903418197
Ni 4.822704774620997 8.006319123048804 8.054823944712552 -1.3885000938827312 2.954415047644938 1.3718550291268825
Ni 9.040821345884794 1.1661457500406238 3.267626938938067 -0.5935250237154617 -1.503918457454752 -0.6855010971041421
Ni 2.657414094141624 4.483973875582989 1.966912249977151 -2.9742297683780197 0.9610950738592157 -0.6597949505872895
Ni 0.8803844304189835 8.436448108883697 6.740512166409974 -0.18786922244357968 1.7203464653726308 2.2323976007823165
Ni 0.4206209304408369 1.4488545474056056 11.052707361467624 0.6939230026192501 -0.49338595490001486 -2.3207286212192417
Ni 3.10531051662657 6.826499643487387 10.930482164569279 0.4451402325197495 0.494088123173362 -0.4167519111850435
Ni 0.4915102922291924 0.5323772657969782 8.69362170705267 -0.4959470307589717 0.48672525505038755 -0.14390798637128116
Ni 1.0698875543231565 3.120096463381113 6.826595911029468 -2.812033525220512 -1.196202917574785 -0.16003497384013085
Ni 8.346629557486002 7.135789498102634 12.862266108050258 1.0335773001893427 -0.5170118218490709 -0.7626732727107703
Ni 7.319324034397798 8.505199957383326 0.6461785854450878 0.26724303368721714 2.3329544738614727 2.1578795749690833
P 8.854529632413529 3.3935990928869133 3.5224050641909916 2.271769160601403 -1.6740318985768072 -0.12970392695675725
P 2.654105481530304 2.5846806948724392 2.7819964438664493 -1.4069256475777705 -2.838026349739848 0.0643570261198311
P 2.6632181857563966 2.084482023311374 11.677210795763243 0.2845542712721551 -0.2207477183391553 0.18374105920781905
P 8.360293940643487 9.478427422366737 11.896627890073603 0.7155094705407741 -0.4783899957118148 -0.2594453920196693
P 8.984649702398826 4.382089169153616 12.905588371259267 -0.36020075426287645 0.43291463698783506 0.7355751309423977
P 0.7388188039257134 7.698524686562967 8.945376283775193 -0.5626712715593987 -1.425361485685455 -1.337139222912252
P 3.9884857711295654 8.685556730153495 5.219820535976499 0.5820288501504041 -0.4323484800717199 0.6240193356495768
P 9.086179247022464 0.23860704745601588 1.315082853275555 -0.30121501975728776 0.11699085026546302 0.056711850869747484
Ni 8.642077448040896 4.886858212372691 9.319986002283073 -1.050925561659803 1.825526953266727 -0.04403579806397577
Ni 0.5789614098007649 3.6559702036919175 1.5534403528312253 -1.586110711983791 -0.37280018819444183 -0.4326539271272806
Ni 5.081963546444166 3.7884175181411095 6.932420109593505 1.7024006795274875 1.1791415912171241 1.5579077671870138
Ni 4.110399734129725 5.946034834343947 13.119903285839348 0.7132468997588426 0.07139722079606413 -0.16008356768987914
Ni 4.257838615326253 0.6597822172410653 10.766631069402475 0.38573669375045183 0.8315829511982904 -0.2649143855540405
Ni 6.998108220200506 0.42994112393238537 10.080242559730213 -0.10829666492557477 0.23864696721707931 -0.48696205365154205
Ni 1.489810311424825 5.494474637441946 9.291163687111355 2.3876544365075136 0.2821369200799141 -1.3365075028655242
Ni 4.72943741516235 3.1004504077059876 9.592573622820941 -0.7861093922465237 -0.8179550760022105 -0.27495017252348775
Ni 6.803376740661383 9.160959499856279 3.583934043125571 0.17658516488932813 0.1948608232700644 -1.2898404378262884
Ni 3.4253113035937166 2.843023523091345 5.865635547888875 -1.4996712521426239 -0.8005870170374083 -1.7308257676373997
Ni 7.97256940514068 1.7544152030606357 5.543090680829069 -0.5918250103052194 1.3196312959354757 -1.2175114492445742
Ni 2.8037314117410945 3.1507805741239463 0.018786190250714544 -0.048965631265425344 -0.18327286132214887 -0.5510164609292897
Ni 2.431447068424447 1.9622035521421708 9.108379663789888 0.43887291145379903 -0.5723039095531562 0.5658057034233223
Ni 3.9261361814964726 6.227865073557901 1.8376155945993602 1.096417118333699 2.3326827082573245 0.8695846272530442
Ni 6.185367159592727 8.450551771116697 5.9148263926194895 -1.4371836751313636 0.5901586783463901 0.8350732237397361
Ni 9.469174522691011 2.2052089981713143 13.142487838138763 0.7667852379966149 1.434461391104194 1.5590243972899602
Ni 8.69244499991209 4.840126395828625 5.204964491497141 0.09297391852557536 -0.5770169987581095 2.0185867187723106
Ni 7.324043947868749 1.841065337296643 13.20084372673 -2.050247540210701 -0.2185072590444108 -1.1314633113045547
Ni 6.9202717065647095 5.6411471168471525 11.462280890477443 -0.003935073388348062 -0.7406797991588148 1.6833493193229914
Ni 2.8567346380653738 7.064551516962859 3.882007327133911 -0.7163543350395728 0.33748480072259945 3.371508144219484
Ni 4.94679644027211 6.200218530890431 6.996548312164265 0.25263711084858426 -2.473989252450017 -1.40138620581678
Ni 6.656965959428824 4.337852831613003 1.4781488539244187 1.3290921842380592 1.1508363165145277 -0.07101309798376801
Ni 0.7957054442048049 6.043573481834722 11.226790855184916 -1.9129573162662536 -1.1238744432137031 1.2094163309412655
Ni 0.1964353215703198 6.7180257509253005 4.035885852650211 3.300293214637555 1.4587153785555522 2.8520406617410687
P 5.674364092046674 2.195619629416472 5.690718358564435 0.5397414022361027 -0.43740609710028533 -0.9005538219410489
P 4.9666574623033375 0.3461173299609633 1.934342043118599 -0.35839609695396984 -1.3428774109476098 -1.532633051780625
P 8.181955982348022 8.983116898816181 5.288832213376114 1.362098463960751 0.3362013060244855 -0.48334039773855464
P 5.951670691419161 2.533359813943746 11.322943436996994 0.8218333280106944 -0.5141036470633404 -0.3253098559229623
P 3.0699999560458737 5.293537172665771 5.956603701973553 -0.5666096873818565 -0.6348071702937004 0.16607295250409462
P 5.763734018005545 5.441359254757961 4.875949137118644 -0.290108625431481 0.09204395051213826 -0.3625638551784143
P 4.30535552638826 8.27733561991446 12.128807443482149 -0.7844204345798749 -0.3439333845614206 0.02295738012712175
P 1.903760742372162 0.9980514059316182 6.59817826885272 -0.5457500703240279 0.8392533232593545 0.08728920943597225
Ni 2.3974543450702934 8.415278595989234 1.0559549305387088 -1.1525936655252667 -0.6523999436747989 0.1533058826464134
Ni 7.8843584282321 3.194895408941545 7.853217280323466 0.030434405230457266 1.3441251673117818 -0.8838215967880326
Ni 3.1497244350700506 0.5405777649641309 3.663849187961248 -0.6611668912341516 0.04673751326585499 -1.1477309381163265
Ni 8.08061336499056 7.3999364179363125 10.4485724567309 0.7118793299873546 0.7159552998289411 -0.953939436651041
Ni 7.489325036621802 1.0324086374548156 7.613583067539811 -0.7621809064553842 -1.9320927515441242 0.8367282428446557
Ni 4.62351507978357 7.933314679243664 0.6044059492726781 2.1526851752523375 2.2571478111438035 -0.48359596539278654
Ni 4.088351663084235 3.803502548521534 3.6163958321697414 3.1054300773746455 1.172181614959523 1.2606165079641642
Ni 1.40290782537948 5.6519234737422135 0.01207456675865578 0.10672340690118394 -0.7609544902474507 0.8233826747756852
Ni 7.2821628938819565 6.9691344939431845 4.467072846811662 -0.10658533866142288 -0.7544256879899974 -0.6529398753386689
Ni 1.1339849138949976 9.04495243846729 4.604933574889318 -0.5416139366684672 -1.5682762549055314 -0.8542323131666901
Ni 8.023086498824815 2.832106970746651 10.240865421010152 -1.6594804831251935 -0.39821425739217226 0.9066455366610837
Ni 6.891569024843345 3.684766349046371 3.9317178296644957 -3.357050831143573 -0.643636338549556 1.0172317689517834
Ni 5.572068145631714 7.435518023052964 10.456014031197377 -0.2029034910688828 -0.014313074188562447 -0.6910479950643001
Ni 9.213663642554677 7.41766646913313 2.015692789358509 -0.7436627930465386 1.0300805998899936 -2.204887054066874
Ni 6.566838978041939 6.7842914667847865 2.0184284698989985 0.047440709980466685 -0.49149208031141156 0.5876156002095622
Ni 1.0625413127624292 5.675784739269614 6.956919731734897 -0.08642840409757374 0.02034822463904883 -0.8561177031148611
Ni 2.7013606944196633 3.9720081326161276 7.821276083715596 2.5881845422482135 2.0958997908321777 1.7303472853390847
Ni 5.358924330374228 3.7552940065746756 12.984969838750011 0.07936892614763105 0.8725429385504198 -1.417739450363823
Ni 7.470239762745204 2.130363320794338 1.914479151814709 1.6457613337668884 -0.5096931767004705 0.5161934397128336
Ni 1.030679560242685 1.9148455292564144 4.7555156380666 1.7846623538418813 1.2924799323316642 1.2324112491745418
Ni 2.9176635804755273 4.544099030748584 11.71622438548689 2.033315026121421 -0.18950213006131236 -0.8593228403157201
Ni 8.267839714792705 5.352026714252324 3.0253794829732685 -1.0603584249379285 -0.2534999730695118 -2.7636258233410858
Ni 2.75816789061063 8.686369863761362 9.059271067056391 -0.03866450644973341 0.2553694221780828 -0.47801461465026707
Ni 1.5343083471380847 1.388682660423466 1.1839533760529055 0.8980495674619565 0.23056136199546745 1.810336618679534
P 7.110984249881043 5.648670939310747 7.414425150337634 0.6956723812101889 -1.2509252488183296 0.5213567290813279
P 5.4668094020478595 0.9083823963468644 8.506802858690788 1.2319384233031814 -0.4930874498229894 2.0805978703677845
P 3.926556767845369 5.412843500302771 9.45803739617223 -0.007088274305349082 -0.6277037264796996 -0.1400644442554749
P 4.59649474345779 4.362106644399373 1.296922869366531 0.7441603015082474 -0.9802968435986472 -0.9883371974046204
P 6.36867738316848 6.641834197231855 13.576273121300064 -0.8645550352489367 -1.3393758255522545 -0.6654570339690734
P 1.8281112777506279 6.622720884265332 2.282303410560391 -2.224931631422575 -0.9816957808287029 -2.185404776972546
P 1.1439387908188836 7.451724617030447 12.64305463373269 1.3774044981902018 1.6090624356839578 3.1873544229542783
P 0.6286999514212762 3.1461354315594665 9.273885999898685 -0.2422611669308989 -0.027508746943230043 -1.5456898849645833
