# total energy = -340893.55606651516 ev
CRYSTAL
PRIMVEC
9.05078914842240 0.00000000000000 0.00000000000000

0.00000000000000 9.05078914842240 0.00000000000000

0.00000000000000 0.00000000000000 13.24674478650776

PRIMCOORD
 96 1
Ni 6.402845101830737 1.7947805615189196 11.370780789240762 -0.08118103965570535 0.7564771712023874 -0.01916885961896699
Ni 4.556022502053141 0.404239021141316 5.890191201510019 0.177700509440694 -0.7743476237249051 0.3093780151840543
Ni 2.7176171362895563 1.5583196412500187 4.77068278622575 0.4416443035513491 0.20152460844348521 0.1198054368961227
Ni 3.4237959176973765 4.406684479223895 4.897745911601355 0.5420543666399955 -0.6399398635345753 -1.0178210657963502
Ni 5.020192229374222 4.782147420984404 2.710072398360438 0.1869657367927038 -1.3068405719287106 0.07468309063618751
Ni 7.307715859915552 6.045447535437933 2.574862657569765 -0.09803899175330857 -0.5707417072723591 0.16620613564784925
Ni 4.606842683761395 4.425392460629231 11.516826134936355 1.658121397994138 0.26914076493056227 -1.1120465973408398
Ni 5.640759595149204 7.934835997116496 12.22699721948781 -0.401271041940625 -0.19237713761626224 0.7582478899495652
Ni 1.9166313373583213 6.400908232928587 0.36313033631159286 -0.22835047038707768 0.4896025765981825 -0.18457332530112727
Ni 2.8696432435297283 1.522550922085099 0.31996893247716224 -1.02184304247155 0.07670320639000984 0.7556407913440212
Ni 0.71671842550386 -0.0076053782171766554 4.679081558259069 0.026389545737122298 0.35483177664147925 0.12337644207683268
Ni 8.515525585401438 2.5521053530484408 1.377171714479218 0.6687945829827385 -0.3659065463984021 1.8360792748612764
Ni 6.806827080557001 0.8193498503446011 4.68994341045285 -0.23486281758429875 -0.4577409520028955 0.04324184140777069
Ni 0.7859759700185066 7.404776523965299 2.428234441045676 0.42842909041265564 0.41418312201660284 0.0856825270704847
Ni 7.684436861383532 3.8017930804513527 3.953106890576575 -0.03705268187792328 -0.03349607487491651 -1.4359978823533786
Ni 7.770283597537192 3.897432770586906 12.858469881245034 -0.6046303896000038 0.6194376298161655 -1.3787813239330706
Ni 8.043572179314712 9.03521285405795 6.646223540332873 0.3690659179629902 -0.038668363104475335 0.6332706790445158
Ni 6.855447920474497 0.6113237947013148 0.2645735767967746 0.16268295298593916 -0.18550457886614505 0.8784852721767837
Ni 1.827499164702418 6.271834927257808 9.211587394571772 1.1826665736512472 1.3102758228625047 0.6450517308398439
Ni 0.29915392733154417 5.047652323996278 1.6304227539087572 -0.9763885096831765 -1.136500873728462 -1.2341878814589906
Ni 6.128687644284029 2.0127416685355186 6.830935667915198 0.21281406531437544 0.11564462065021373 1.60192428197728
Ni 3.3978020509358258 4.395714922637892 0.8414600234336655 0.8279615523956192 -0.7643540028473029 -1.757365208688825
Ni 6.161351942731954 5.710848907197064 4.766920373129379 -0.03194749944087401 -0.011701347597328235 0.8260262830461194
Ni 5.167928262504026 2.863235284731964 9.2912135232654 0.05125931239560849 -0.5631610667116237 -0.1672302060369894
P 0.15773353494902762 5.599641859530219 12.400940718005758 0.06004374345645789 -0.2587817902937414 1.2488161728951266
P 3.976419008479683 6.006574395556019 12.727088624312348 -1.1898471505600863 1.832929159268069 -1.198058482726285
P 2.540891425152354 8.540813490600524 1.3216369766441898 -1.4149639445012148 -0.023327104761714665 0.26450120927602194
P 6.399306243229146 7.816487876721634 5.92540148697745 -1.347250600314641 0.7285606472977775 -1.3638049051288963
P 4.696481700615992 0.9571662184428386 12.574406334850652 0.9163727912511768 -1.4050934794650383 -0.8967527030274041
P 3.957430452607213 6.2042255314678405 8.043503393316318 0.5299269872488422 -0.6515023715611942 1.1679197543593758
P 4.72740824752554 1.0630876051804543 3.6803695018651346 -0.9094146147657887 -0.33263621438104646 1.3250658366874857
P 0.15834989369779556 5.512917196818107 3.7767260145102695 0.01422514246044647 0.4278919869622631 -0.483744832265825
Ni 1.6245985710184165 1.0612502949601914 2.61640397012623 -0.6076012993028697 0.38490134233335005 -0.42566206919047983
Ni 1.924016781396422 6.621494068831277 4.489785205915349 -0.7769470090209653 0.22989801737985566 2.114433330859991
Ni 5.938340495306946 5.543011071115516 9.274946539724127 0.32425210408240934 0.42489150957304245 0.050030067974197706
Ni 8.59688313008096 2.228602992443246 10.281182517231876 -0.2098855788136708 0.4479897861534027 -0.5216994571327274
Ni 2.4001244997545808 5.290801777530077 6.720338643444638 -0.44730253027839095 0.4047518014003739 1.8552303938684305
Ni 0.4548546550122416 0.031282242927558816 9.13850589159377 1.082009170438485 0.0596750472631295 -0.11869086367570526
Ni 1.3067620044914707 0.9924823981446396 11.257295657916577 0.6564034084072372 -0.5071472703501653 0.9869297755341326
Ni 3.9684271615610034 6.924134360186689 1.6202759140667045 1.2456061505982612 -0.4849496512072035 -0.27107654850069446
Ni 5.587703868493142 7.9928968102346545 8.18442146689477 1.211040753918566 -1.20724966230725 -0.6614489412509447
Ni 5.3904509673088645 3.079223319689365 4.8138803932172305 -0.14862364667939565 -0.31661412792117727 -0.6272548118677391
Ni 0.8761634647024034 7.476730298601208 6.914986727479202 0.4463957021934054 0.22907269326508292 -0.03679428601021405
Ni 5.072252369211422 4.510116898914356 7.10042744359715 1.2803975472458335 0.7237220882585537 -0.5656452665860581
Ni 8.450450410604937 7.1127256560468695 9.484457829885368 -0.32215382679248394 -1.0647804652650243 0.05757831263510084
Ni 4.570684780658193 0.2006704792097512 10.277103326511323 0.10859619844386459 0.3124998486424876 0.4720977349451998
Ni 8.179605541928261 7.3856793586216805 4.585957082459531 -0.5653516466050393 -0.8169405186947671 0.1965307547733196
Ni 7.587756330482805 6.5775886901194776 7.102745350727244 -0.2519056319991984 -1.4548396976502298 0.4344015059460067
Ni 2.376809666614694 5.3644933037043625 2.585724509763546 -0.16490875699266438 -0.8136304804849277 1.2543741265988784
Ni 2.1514088108244196 5.1415090086471436 11.465852994889564 0.6515275683721747 0.4946979888432191 -0.30217969766340214
Ni 1.085153429402133 3.2098624119025363 3.7835086759834953 0.10111968756116134 0.9078536980365718 -0.25652076217370656
Ni 3.6334574509603743 2.555064961137239 2.5133046194806243 0.4960696723797649 0.6862441459177536 0.43874975561237345
Ni 1.1185055878339978 3.4488032484293285 8.269399327279244 -0.0009834469591918549 0.2858580776852432 -0.18223567830688614
Ni 3.5993450262304703 2.8152298984843083 7.260182924867392 -0.5042714914642671 -0.8879646724221287 -0.6314207703199706
Ni 4.262270085753384 6.848044374857872 5.965141692470702 0.028907684173285698 0.7237578265924954 -0.016287167195797755
Ni 0.8076924337746576 7.436164661127227 11.517369182292096 1.6042519016691918 -0.17140259224712415 -0.45420594226644356
P 0.2592164146323728 5.684130977294521 8.091588426509482 -0.8345248074354338 -1.788265497812107 -1.0243478111712747
P 8.496618486632329 1.5928574530752553 8.055624210296495 0.4497106254992513 1.2683979516817963 -0.7048674174458956
P 1.7162830662463107 3.168328339977481 10.479010143534314 0.11490260027786663 0.10474134347414864 -1.5931110545610243
P 4.00814202484432 6.21689663643517 3.8501270103492327 0.3785658870336254 0.8870701856323173 -0.2733301204215615
P 6.7287368708012 3.847707734379399 10.441004974342661 0.4349751190612896 0.3398229619374728 0.5103644917358823
P 6.571705677098931 7.697877283438165 10.211094110262943 -1.719439123067013 -0.7144090383877438 0.33681142880465864
P 2.514300206299486 8.447653716722861 5.7641227578743495 -0.12813298292521158 0.6138745339060911 0.535071250453943
P 6.676061277294156 3.799150249986738 1.5771968724145615 0.7681636064013803 -0.1933166187113961 1.1212958838532494
Ni 5.250978304775612 2.8069574770984946 0.17578804936962023 -0.006532144691562944 0.3708726321544258 0.6266138358496305
Ni 1.5014535323144946 1.2029856548090387 7.065615392857263 -0.2635738123657461 -0.04019148461722111 -0.6225252676025537
Ni 7.034155754460161 0.5732670360108658 9.285544108871445 -0.741090147223356 0.22986305037686222 -0.4062543540878294
Ni 2.709951117784322 1.6056100151459465 9.181040980811243 -0.07268971435524256 -0.5975038058575516 0.3838525893538615
Ni 6.238147889623234 1.8230371255960651 2.528366037892148 1.6917779097063186 1.2817095811890378 -0.9338534645344433
Ni 4.0698865091922665 6.864752131836223 10.2503446680571 -0.10896720863003816 -0.3630400234838845 0.6044609539016751
Ni 8.459609809338463 7.420461541757001 0.3227149419393679 0.0409414754093682 -0.6635644449320508 -0.05061216572991284
Ni 7.723310001265448 3.797032365299341 8.209351865917993 -0.49032788479998135 0.04109111361335504 -0.19187474405854696
Ni 3.14903205727009 8.275733974683982 12.426824165138308 0.1633936058997186 -0.3062860065222919 -0.40697734829678295
Ni -0.1530352702429269 4.585184145056524 10.46659789113989 0.045123117590883575 0.7851817382259315 -0.6809988383584142
Ni 8.282485863473717 2.325202066240612 5.851087266501913 1.9078565047045788 0.06727060022220027 0.27477173796409454
Ni 3.495568676548038 2.425113728908008 11.455864543859605 0.2251705299971993 -0.07115990797427744 -0.5788651077104418
Ni 1.1918531840163131 3.2027575423315686 12.579969855010237 -0.9887465170278972 -0.18773912462361864 0.9652031824903183
Ni 3.335605027124761 8.339098550309895 8.010916026577124 -2.7150147472016015 -0.051206347670486 -0.32095106473363433
Ni 5.557890568662867 7.983692157554815 3.7108371737590797 1.054280851285281 -0.6829096822278821 -0.15148117073284878
Ni 3.256184351347389 8.379818051201335 3.52935708302235 -0.7624750406570352 0.5124334584497691 0.2628032527483087
Ni 3.3872850338129417 4.464618581292379 9.24094272446537 0.07279178715074561 -0.5404029470795016 0.17541865538505275
Ni 7.111187021872265 6.0822570953680275 11.740232196773203 0.43462416347977406 -0.569557714266587 -0.955652562687406
Ni 0.5299200909965563 0.5059436451615895 0.5662743962267521 0.17248425534707712 -0.9869739985085068 -0.6611517217255001
Ni 4.668288492063684 0.21066164547649086 1.4979952257373397 0.4399879988948487 -0.18368243805574175 -0.11985968717282583
Ni 5.741902165156284 5.2684010741056895 0.4099645504286967 0.7361029784214097 1.8031827812435721 -0.20609577275393537
Ni 8.081223462646205 -0.2977447194433918 11.499539127445214 -1.0261694377610455 1.3187805178994063 -0.11245876672306439
Ni 9.227913208243251 4.831302257468383 5.921189249654739 -0.45005695309507654 -0.3655738456493317 -0.012503274673333306
Ni 7.8551256960827285 8.750076789135978 2.542699772846977 -0.041071573229329264 0.6618955418700602 -0.1458057176146263
P 8.601318016819524 1.5935815162162454 3.6224281591652403 -0.46687351043178305 -0.17816999287794477 -0.357060665971998
P 1.7612292857232823 3.2310503095657643 1.490735587669986 -0.5289386551936439 -0.5835861673351949 1.0748057107115103
P 4.689630253144371 0.9565688663515216 8.202676003758063 0.6274432737294614 1.6593375297894264 -0.4683660358169095
P 8.417596045582503 1.7978668806573908 12.503443621638974 -0.07739431891976348 -0.9824282881193531 -0.6275929119334482
P 6.532244235914962 7.474476652074876 1.2142611280721098 -1.6019651625175442 1.019814184966979 -0.33445784097081754
P 1.8628334459827436 3.2320820995416755 5.939111622552101 -0.401358973668741 -0.3940840372738826 0.538004622050654
P 7.0615162904003315 4.098124971690887 6.040250572243476 -1.5367632718989146 0.4828318335332523 0.5579941777987035
P 2.354861502653426 8.352729038939037 10.124871766354893 0.08709072027192098 0.521002945286335 0.570479711860224
