# total energy = -381170.8533625565 ev
CRYSTAL
PRIMVEC
9.26197162467128 0.00000000000000 0.00000000000000
0.00000000000000 9.26197162467128 0.00000000000000
0.00000000000000 0.00000000000000 13.55583168714204
PRIMCOORD
 96 1
Ni 2.7407100502319928 4.355757106090711 0.2700800214111383 -0.003864110941096571 0.8305910195986663 -0.6832259279167201
Ni 8.990744135449964 2.4357781554538915 5.315770662535581 -0.7242388799939721 -1.353333059063295 -0.5423852676168529
Ni 7.565678643412538 6.0895982111680285 7.303041542471699 0.5086405670662402 -0.3521208054682194 -0.6571006915845781
Ni 6.690968772661432 5.173598470510755 1.461413173836387 0.5194016622374861 0.21400242919552176 -0.16849338902012917
Ni 5.246749523117062 8.856213996287314 6.32262941952137 0.1498983996267612 1.3379000123376765 0.07769616643089845
Ni 6.2502100626805595 5.063130933864082 8.855157205314615 0.5235213408328145 -0.8185461726189902 1.892395690064818
Ni 2.3432140101326167 1.2627957475878824 2.8330065245707 -0.09060773228624397 -3.1477368085626565 -1.2685712440348667
Ni 4.460824913227448 3.2711802182458722 8.475824817945831 0.38007306770677124 -0.16539778081394096 -1.9537386119486742
Ni 5.49998109178116 7.400343186325277 3.0335245074151542 -1.2069447294723215 -0.053965141362545765 -0.7184451561303304
Ni 1.7020262322357547 0.7221753847713628 9.056204046744005 1.5490783418208418 0.3332113701582261 -1.2597870700843337
Ni 0.19547761783706633 5.967729187339998 2.9717091819910273 1.9650938890604932 1.6447838003449675 -1.114011177266378
Ni 7.493324120373734 7.430407546512676 1.6265096720533967 1.0133717717757451 0.9496261539876678 -0.01654504884287473
Ni 8.222037530978826 4.202656713639173 3.035163876408737 -0.7347315519951797 -1.0484786427812074 0.4555128340033252
Ni 7.3451047870160835 7.606736964025827 9.366727393846547 0.4347992556050576 -0.38742899385121016 -0.5397995091675478
Ni 1.3315566256012052 0.28228915252605774 6.268379272594182 -0.6071966076652833 0.4213423587692034 0.16741224014080844
Ni 7.8692119804616505 8.196168843978393 11.801544156636405 -0.5458027779388341 0.2021748404329744 0.24560000149614475
Ni 3.20331775148892 6.086310211209148 6.934838340315849 0.1564158890303048 -1.1111667658390476 0.2977969952146742
Ni 0.5947890043926132 2.9006920876678928 9.757704858252795 -1.270980881917624 -1.5203789170036202 0.8845944703983152
Ni 7.376752944366774 4.3009354955087 5.311662978079909 -0.28361221907386 -1.4587040657016426 0.06084772741499198
Ni 1.606368588361617 3.494477094326583 2.702165428742197 -1.165371019795593 1.3223291544826128 -0.8722290068544268
Ni 5.319678288402205 4.848920052035941 4.130516142146989 1.0250414948041895 0.2733375766207293 1.2991218631282142
Ni 5.328301184069017 7.040524847163158 7.854519714729896 0.05094718047182839 0.25290990489399673 0.15534142501920342
Ni 3.05369986040228 7.989006322625486 3.1333491123639408 -0.12117300666761067 -0.25126028510571563 -0.3079132577130697
Ni 3.537804598010086 2.8312921336062242 3.740935383075386 3.093326352132576 1.857582696150691 1.526278570317507
P 7.796718527847119 2.4513382679353546 9.517657706325224 -0.7840414539739013 -0.4371176193255891 -1.7274810195348829
Ni 4.090179329130311 6.572248819216554 11.699238269465127 -0.4582831976596108 1.0783170662988786 1.1445173162750355
P 6.572739703717458 3.0101593313693287 13.111281429271044 -0.19685985597796418 -0.08055677580814513 0.5224314502027454
Ni 0.4415635753229199 7.875899124039993 7.955524294875194 0.19844288419436792 -0.3195932651541593 0.5706851430028107
P 4.102682990945772 0.606129362560651 0.19096240662592748 2.868870588814214 0.5317149323872005 0.8158886803914852
P 2.185408536049778 5.629583861991346 1.8941565734949632 -1.174990288052912 0.7481095159639826 0.06360292156262595
P 4.979587948993369 7.753363238248472 9.937387109526833 1.6608503668895267 -0.6655274821956925 0.15950172704448015
Ni 7.790374077222237 6.3370317855384375 13.14664919446254 1.226430606111075 -1.2420791112816092 -0.22400556315482067
Ni 8.610178979645895 2.0478775180514175 0.6530644042272071 -2.400499153680666 2.9967953123833615 -1.5670243847763015
Ni 6.374663176617119 6.319350681534203 11.187330018965593 -0.17130411899604692 -0.22885697770985103 -0.47159148473274265
Ni 4.212048352958341 2.539308475285912 12.77304996758544 0.251832869779734 0.08584219257680054 -2.236995247455328
Ni 0.4935482439685794 7.190003808674071 10.5780089809519 -1.5433630366036195 -0.7640171883331744 -2.207075319967444
Ni 8.693740488460037 0.7422766419847672 8.083125552997735 -0.13318108687208033 1.6357579426972733 0.3610322490252363
Ni 0.05657490182769112 4.5140349407310225 0.7605773718967451 0.4634858249064728 0.631859400519286 -0.2379738524094547
Ni 6.188608688803053 0.8745542696262908 12.52754103093744 -0.05359567383826899 -0.13167699152272805 1.0701741254767698
Ni 5.34512092470374 2.6458118880384975 5.898006916662642 -0.8304619502199697 -2.10436720487324 -2.267220879109089
Ni 0.045659668161379056 0.20751818106676992 13.200126892948683 1.1473421873183403 -0.8434815024080894 -1.0050249424729467
Ni 7.491795895040733 8.71291276991041 4.064878400996017 -0.43566648870135943 0.32359467300406847 0.2741194490920763
Ni 4.110907621828831 9.104657125574676 11.789249815381705 -0.4459133632403482 0.02011014048631375 0.014458598627491227
Ni 0.5942490314416197 8.649199666481849 3.6262795828191194 0.6462904883429514 0.2984711384635634 -0.5464134149396396
Ni 8.696333840540282 6.059617208726067 5.1673883184757425 0.1794102930429491 1.0559592674289686 -0.04279961166402951
Ni 5.90371970081655 3.1477181352828345 2.4398330466707874 1.2092157848946852 -1.3366332298101111 0.829628655685397
Ni 3.8179977663370033 6.55181690961292 0.782958926546421 -1.0605836535748574 1.7341018672855102 -0.4805150124746176
Ni 2.0361703858034597 4.161329795846144 8.852879686469858 0.8086890773192525 0.8160213493146075 -2.573487345247355
Ni 1.0798532822701092 4.334806526071027 4.98165985206605 0.5769861455201741 -0.2509795206405033 0.01968796534723061
Ni 2.8442774179508734 7.9773732861512485 10.082448110529617 -1.585775183021243 -0.7243867184257461 -0.5167858218811938
Ni 3.9199072411188713 5.556210522063874 9.379198638761006 1.1358295586930502 1.2012805892080085 -1.4212775454240685
Ni 8.06319471606389 4.561104280987449 11.164352919534632 0.3672376065049998 0.8152078522743765 0.0696108183196027
Ni 8.715348668471497 5.466582421776304 9.049710478374509 1.2113235752663074 -0.5112168124338485 1.3710024513186
Ni 1.7660820286177774 2.3512163536945114 0.41396660440043925 -0.1581094746826438 -2.3976909948079097 0.6677450586723016
Ni 4.252995529911049 7.14118395576348 5.110060418347609 -1.4707003188315704 -0.29204955120793574 0.011883895921779533
Ni 2.2844375376282327 5.075940240746144 10.950007739116622 -1.310326473594782 0.2585871577844321 1.0161783879866046
P 6.703666935882912 1.5816483858538641 4.387019965418051 -1.0153360945909675 0.34963686270410105 1.8024746994329537
Ni 5.14312658356789 4.728949732409516 13.1553387763257 0.8653402501543935 0.5429092584411229 0.34588279497830754
P 1.8910815988855312 6.381072461044007 8.83742608666312 -0.4004513742528071 0.23824896044771227 -0.12137072450071355
Ni 6.868094719742087 2.8403410799719326 7.36774382447944 1.5668773176754758 0.4661389462586037 2.1136180340475472
P 3.4580775454860175 1.4509156550944284 7.536920221236976 1.8534756159608532 -1.5266542084893708 0.4434471610880428
P 1.6867069310188854 1.4374394862488757 11.814070047183982 -0.2241436313945817 -0.5110738590980811 -0.834675216970369
P 1.7861712452679523 2.0809334951028116 4.66126787410101 -0.7370483730538144 0.29914990969814287 1.9902037967542432
Ni 8.015264012437955 1.9383639644914057 2.8906048742729156 0.6246415426146081 -1.1267931595223948 -0.2364975249742443
Ni 7.464963962981925 8.395662452751152 6.904133977882934 -0.4477894972171385 0.6158653390838749 0.6652120078378028
Ni 8.961596710462366 3.6997316495061683 7.267905326573081 -0.19729411530190535 0.0073412708564196145 1.021125190468919
Ni 0.7223319120933489 7.400306138438417 0.7160208045666412 -0.9683815802182998 -1.693733747881109 1.3417373838058957
Ni 1.6912360351875972 6.792544816461556 4.93105614340312 -0.27685664551758127 1.564412143964435 1.140518222417971
Ni 3.9780261136314796 2.4222742006931934 1.450853599883937 -0.14392932652751986 -0.46777931007550405 0.5977501175404029
Ni 3.5069622321986142 4.001820118967717 5.895810903168979 -1.159001111713507 -0.061639370078351914 -0.08398585609435213
Ni 6.244875166972629 0.8164446590853982 8.155093851816016 -0.2701694633053928 0.03275816826762745 -1.06916265349312
Ni 3.311015958592761 0.07063550108847037 5.18308550813859 -0.13602164164466896 0.931731275985118 -1.09895865380863
Ni 6.522660222653607 0.28154449000015913 10.289907014977409 0.3986163779265974 0.5196317759704212 1.0369205056299624
Ni 1.7793081242270212 2.472835304286233 7.045670798648099 -1.2185442613844626 1.046896643006068 -0.5365511774335792
Ni 3.0927761190685255 5.471889531569088 3.8455586155697947 -0.3107643540086196 -0.7966352314785119 -0.08834490439399624
Ni 5.6143016086613375 4.758643613728308 6.694018739947233 -1.3227788404255219 1.4975174390244146 0.03599775825084768
Ni 6.396160212967997 6.880459451981821 5.5041554624331805 0.298094471850435 -0.7145129109554598 -1.2518881269522313
Ni 9.251135208249877 0.3268438674618186 10.438586668329304 -0.3938423535767217 0.5129175971750393 1.1887595739228625
Ni 0.8771253929744183 3.410350605237815 12.148695823280876 -0.4907066082956388 0.5383962010621179 -0.050258896155552145
Ni 3.237142472192672 2.4861447576409135 10.222005647939252 -1.3257430652601683 0.0303762982990122 1.8773881609123926
Ni 7.966907258113122 2.299553075467368 11.65249772920459 0.8889077530616886 -1.3542321738387968 0.5451240067042548
Ni 5.697177731568558 7.345280764478671 13.33727076052935 0.755048409175661 1.1996335405228888 0.20874478034100824
Ni 5.798207319037487 2.752259728960793 10.435360723580915 -0.11134033684790501 0.3700061703890724 0.5138647915796569
Ni 4.452766997835262 4.838611477516971 2.0601607449400583 -0.9392044444337114 -0.8413171477669188 -0.7914056076484564
Ni 5.178785174671243 0.5109496364270156 3.3744400885038104 -1.1627145560093524 0.4613134998455023 0.46758262068366563
Ni 0.8526969425756927 5.565833710675922 7.071494101987127 0.6187331475499731 1.0346954729541857 -0.46431937655136163
Ni 6.41047922123963 0.3287120071567657 1.3875748829288155 -0.30616902132845336 -0.05920916337030448 -0.3872575012703524
Ni 1.773676845424206 7.463343117931772 12.238665690324735 2.03469313741587 0.6268539768848946 1.65672194654345
P 0.454551638259084 0.9227480132489366 1.9124971298853164 1.0509864968047256 -1.9416585408556886 0.18443705683357917
Ni 3.1317968059044805 8.264336955801946 7.585856774991178 -0.21244614045199542 1.268096104170661 0.11134625038517598
P 7.220234884352342 6.313821284420255 3.4639079566807087 0.5514530342460761 -1.3228621441679476 0.18159341673719692
Ni 2.449597017252905 8.926493837661923 0.7836748769600026 -1.2708173597565664 -0.31317373478106064 0.7254642677606409
P 0.6077946650750362 5.605502735531938 12.274724398606184 -1.3820569093605488 0.2847332200521806 0.8434907583794699
P 9.143826003958072 8.11932226465774 5.739742974979903 0.4002369442491559 -0.18634147294514358 -1.1006689516315173
P 4.385701060645813 4.538393926341885 11.164474251364101 0.609163501583667 -2.510650355316476 -0.2846925966222323
Ni 4.28854297735382 0.47595142390695333 9.448305914516475 -0.44638670333234093 1.1162326103977294 -1.0561973515817036
