# total energy = -340897.69644306315 ev
CRYSTAL
PRIMVEC
9.00172768178591 0.00000000000000 0.00000000000000

0.00000000000000 9.00172768178591 0.00000000000000

0.00000000000000 0.00000000000000 13.17493837087896

PRIMCOORD
 96 1
Ni 6.143526095754587 2.1173953809391444 11.20788007148635 0.9879967833460663 -0.18172120056431285 1.0078474995234064
Ni 4.793825054490188 0.3346986370091398 6.181496283179772 -0.42780302679288257 -0.6305183131103593 -1.2860357193682175
Ni 2.902147994521744 1.427529978576969 4.904054810327261 -0.6892736767726968 0.7038127509291362 -0.433352495856202
Ni 3.3837674292932443 4.072246565596417 4.730039712493526 0.012396831002456067 0.4150521548851175 0.3938539235409475
Ni 5.067855647789891 4.395210550433377 2.80453596033989 -0.12558861923680306 -0.09231725877818295 -1.1541090737285287
Ni 7.184764935435618 6.159027070777979 2.6332618885773655 0.45050201105229515 -0.8196201224094594 -0.09796237287910226
Ni 4.95580214192974 4.388873334163651 11.43863935994433 0.7600546041410008 1.2038941155714558 -0.06916730302428088
Ni 5.546414495158398 7.817523377549015 12.349040788665727 -0.5832005018610021 0.3553028027406268 -0.09905149217822297
Ni 1.8748888378902642 6.4313203306401014 0.39258694721844706 -0.10901297426630904 0.5457940361880858 -0.10081141229212316
Ni 2.783676256842965 1.6355058943379681 0.3317532717201423 -0.6854784713963227 -0.08531305954620791 0.6006894026743849
Ni 0.6788139813190752 9.024141957723515 4.679869483576354 -0.3987778432051261 -0.07830757476265222 0.036782458935672134
Ni 8.401105381478446 2.3616572608809165 1.3433566236125494 1.2032120019027666 -0.3464985741854355 0.7029342049789248
Ni 6.900247329416838 0.7264862308117465 4.859707799030664 -0.8139269286794241 -0.9600455495487789 -1.1264524883535247
Ni 0.49917730456425585 7.526902600179561 2.608835700583188 0.7048324504429022 -0.6558107691285608 -0.06946272277751264
Ni 7.5576795070349485 3.8500209149561906 3.7957792046202723 0.6074236360744248 0.024628597181957583 -0.2348203943821375
Ni 7.620754612719562 3.6650264099006025 12.7404944183723 -0.5013214076970076 0.9368385153046962 -1.663378018407387
Ni 8.003751119293456 8.822098180487727 6.851086194169888 0.21121586758932012 -0.09179275373328062 0.3945982579061398
Ni 6.781712579644468 0.8040784226869665 0.14556063671355976 -0.2074036929320815 -0.16316683460089318 0.10278576240967459
Ni 1.9344892766997162 6.53017730375676 9.14440863989687 -0.19973100687817213 0.32234100310262553 -0.052627653498044845
Ni 9.212908186666906 4.981601093391436 1.2320520614933665 -1.2102758507280835 -0.8710010479845967 0.7208288258711586
Ni 6.381180707596958 2.0224001489868493 7.0149563449354675 -0.2251131943967026 -0.1759894402868582 -0.25609164505608795
Ni 3.3557540528282064 4.321027312821431 0.5478811520462886 0.20228179832448387 -0.2821243216744238 -0.4238566405506249
Ni 5.750159598921143 5.424954183897873 4.803635137289544 0.95984423217125 0.9600681752565982 0.5208733616870062
Ni 5.328608692797199 2.9944067012666573 9.13310427030664 -0.20233193483612896 -0.2445790164307981 -0.14546658910765267
P 0.20083484521160508 5.663103890761318 12.299042492746782 -0.37129686417603797 -0.7198893447760247 0.7941407471914324
P 3.8872160536302056 6.140474510079251 12.501989143266451 0.09909005872564225 -0.1850582353573458 -0.16709470890038963
P 2.248244494144731 8.320557922413807 1.5299129284164286 0.8959299500157926 0.2022730565737355 -0.39948232547131846
P 6.338944601435662 7.629747338647767 5.8246137885355305 -0.31077258153873577 0.04791430718277554 -0.6625447454182848
P 4.588729691579064 1.1339116258981137 12.51130323087197 1.2446391586993015 -1.244070173569709 -0.35290473482209544
P 3.870238795271253 6.118807351611595 8.193889211531602 1.2832028779051126 0.6272026184735651 -0.7094622359054298
P 4.634755525083479 0.9747430774871899 3.726861077514239 1.6499365481905006 -0.9439458157734388 -0.20618139048920622
P 0.2765861837812017 5.561258344062912 3.5765079209966992 -0.8845093668836767 -0.4506483068221723 -0.26341954617606894
Ni 1.3713231910937767 1.0829978542765673 2.5455166480791003 0.37192627022992075 -0.04001202161656335 -0.017879194273265984
Ni 1.974609976861886 6.135073473485735 4.797903737291058 -0.5174717922046249 1.4874968215636188 0.3926426768416657
Ni 6.02544143236501 5.754777485208599 9.270545348674615 -0.326172975254206 -0.8857545521446875 -0.8524461678005448
Ni 8.555917093703933 2.4381359390451065 10.192646322830335 0.45824463111219144 -0.1584213494961078 0.23858346096899558
Ni 2.329872160528074 4.997966234269791 7.037827934563478 0.18424988052343752 0.1466472396793152 -0.3588825496720851
Ni 0.6389786359235962 9.135493328826508 9.048020840676214 -0.2997590040370515 0.43307635937667993 -0.24639652925551112
Ni 1.5072222735143013 1.003818657815619 11.479468496073018 -0.3344856088849595 1.2753666696901456 -0.8641806826286537
Ni 4.012448088778536 6.789670106892249 1.5342346578640071 -0.08124171769031169 0.2803026950846527 0.7600291502197039
Ni 5.849160599680296 7.996720769994228 7.979137695364036 -0.9965616421969418 -0.486406181148072 0.1874334204577417
Ni 5.191386356411263 2.669444332890096 4.860313615301903 1.048682017041265 0.44999010441288306 0.582612747678332
Ni 0.9622936881391349 7.397817825594523 6.976419948840729 -0.03421495531881204 0.30469295100355914 -0.7250153531486804
Ni 5.07857670542802 4.469618831236719 7.11221371104768 0.252174569389869 0.6704035793410712 -0.06290743815749811
Ni 8.313212512646626 7.276132471142602 9.26105932807087 -0.7482498981965888 -0.6847207672946918 -0.6001070478083536
Ni 4.735079779808043 0.3656456765172224 10.306372349688942 -0.8024662363379922 -0.6379675702995529 0.3512695132115176
Ni 8.26340595352675 7.053996837778934 4.903395883862852 -0.1561829470838923 0.31631485151320365 -0.4358454374813848
Ni 7.329386691954673 6.05023219032925 6.992598753956607 -0.34233030174035883 -0.37356817670871795 0.35438003381604133
Ni 2.2338777368059777 5.07359875003433 2.6239469007990808 0.4263128154006013 0.1994535848470694 -0.7511729853806546
Ni 2.223237694716751 5.235548832290915 11.342330775927046 0.4421646948311933 -0.2995990814204195 0.2445378787802176
Ni 1.177750039582154 3.277718075779552 3.780469066223185 -1.2730331364609624 -0.20182311352051047 -0.6040110108484501
Ni 3.6706164827748924 2.4538079468939595 2.6044347559322376 -0.6560707076581668 0.9058654639619497 -0.5789905775447125
Ni 1.0095077496941227 3.3329346732206 8.264270119381711 0.28281877663828714 -0.18913420519893234 -0.7029514313701055
Ni 3.6793661620563882 2.5913273402925396 7.1186040375105755 -0.9140767961281484 0.44004147784060343 -0.7855054401139375
Ni 4.050480388124546 6.7384142696197795 5.942568827046863 0.3673273380053287 0.95280583726723 0.7445359396801113
Ni 0.8642450701659721 7.3969896666501835 11.25043573897943 -0.29451292514676375 0.7844710853121523 0.2018879053201749
P 0.30446093364033905 5.580621060250668 7.929574182890869 -0.33890584943984214 -0.259478816360766 0.3074661428733221
P 8.36959033295528 1.7220305005660985 7.880220410672083 1.1075659358616667 -0.7328523326945959 0.6832570382649716
P 1.701686596063854 3.220269049879851 10.339204350968162 0.230084679469365 0.25877381987394144 0.2858506214860755
P 3.907595965043073 6.022677901974662 3.750022522772768 0.27381374492619937 0.31639738392468086 -0.21385741897722524
P 6.961017992821552 3.9822562942207798 10.398267386636558 -0.6315341559693833 1.253189619372474 0.03713161474497476
P 6.3323463350639155 7.698331501657767 10.197889829189872 -0.43335532406967947 0.16782335953629807 -0.18281906161418193
P 2.523769374235307 8.443818579205503 5.670902087429589 -0.42380701825961203 -0.6621197420657242 1.3856001466271168
P 6.847569219174743 3.9563133151165903 1.624100705397993 0.35103117194846645 1.1525003344805118 -0.1123088714087614
Ni 5.37766810852164 2.874701726899026 0.38635415098952924 -0.9224025423850242 0.47456059466339556 -0.03840688191297257
Ni 1.4086263504996621 1.128555597942877 6.864538375978805 -0.15957448926394452 0.41378408680597123 0.4470173949378043
Ni 6.94771343934619 0.7184917964805768 9.2809144387614 -0.20417644424403547 0.593577731330268 -1.3224119440044064
Ni 2.728981759605957 1.5486482241865709 9.174117941852273 -0.16810232422929758 0.5314529369750653 0.12820291693119854
Ni 6.251645846629127 2.0126242727525847 2.5290479873327034 0.0709472777428391 -0.49967281634999106 0.5607056631925956
Ni 4.051479579894346 6.902227709501127 10.337662355020713 0.20918983829822682 0.29807261747356406 0.3985397590523911
Ni 7.97769111772974 7.310267022413624 0.3279428404034166 0.16625575793886208 -0.620954323571008 -0.35098540631219555
Ni 7.5934433710116815 3.754962670910304 8.195246672062105 -0.045630396244605284 1.248986894145036 0.04353443294752502
Ni 3.024868547654089 8.374253227881013 12.476705990799434 0.6557549761899609 -0.46737256155538864 -0.170926423941654
Ni 0.15192125747519075 5.0381949551638305 10.069473882969664 -0.8082453049136145 -1.0334711136287815 0.2494263172207704
Ni 8.523510874142836 2.2287287485868257 5.589730808638399 0.7035957498223238 1.0398543914473057 0.6049744032029839
Ni 3.5589500512039436 2.5966563630648087 11.291383697913172 -0.4030628437337252 0.05182624064267203 -0.0643606256642569
Ni 1.06644367711744 3.3484446499716474 12.594213643446272 0.18877039410161037 0.16930560050877938 -0.23664844872981178
Ni 3.095280061378229 8.463298317852786 7.928546185592569 0.36703937445126467 -0.8591940280473397 -0.14394038227111342
Ni 5.594744770942714 7.918486754937145 3.569538783445532 0.6223190651290186 -0.24975696108731182 0.4220105884808216
Ni 3.2762687976269587 8.236868860397273 3.5967717101228067 -1.6440559210400074 -0.38736883003723604 -0.16238959011523646
Ni 3.413923216940376 4.370797865030683 9.330543663846456 -0.2542327374704783 -0.6563625278669728 -0.0036000586464325097
Ni 7.200175893182451 6.10535877049374 11.426439318452344 0.3744276964955358 -1.0361784852576155 0.28815818657332953
Ni 0.5657027724593612 0.06280505385493815 0.3540028419671325 -0.17425445987362248 -0.346031661851346 -0.016437319620416856
Ni 4.543460003197741 0.2943609952104637 1.4543155193897472 0.06554821821445486 -0.40451243169605816 0.2694526397440263
Ni 5.8078966801058325 5.555803297103461 0.3868474456650704 0.5238892656951945 -0.15143386243468113 0.13209428156580474
Ni 7.8522880497559475 8.883642992470845 11.230093634822715 0.8048895010675041 -0.40483381959121895 1.0159996963168954
Ni 0.12673442349409328 4.789612245947246 5.784469683881455 -0.5262698501122292 -0.5139331829237471 0.018943116761406083
Ni 7.678104619615049 8.912196472595234 2.244021783701367 0.1328273030770874 0.3307595661836239 0.7267004541605872
P 8.424203814643384 1.634092623095998 3.4676968374381896 -0.45556528450781536 -0.4154730444726199 0.3963280961130529
P 1.7527984056938295 3.0551863663990266 1.6082513635143194 -0.19539432717603122 1.0974782126083615 -0.5016651641896714
P 4.686335424551558 1.0498894999583126 8.20247956023359 0.9154662202765071 0.12279871519649173 0.4526038878866463
P 8.602203977310369 1.6363790619205867 12.28445699342599 -1.0978283968589286 0.27178745852478997 0.9665864359910902
P 6.10405351998364 7.6411795327707095 1.3563866243944074 0.2717023550101514 -0.02555522276128502 0.07106631981920665
P 1.6926938701356495 3.184532191086085 5.831122037630718 0.8519774556942422 -0.8733708337683539 1.7234343602693352
P 6.927567572852374 3.9523345514927 5.958826847366113 -0.23867936311691154 0.1214188041298296 0.1600599135407953
P 2.417981070823635 8.593742353313859 10.164794077290335 0.8541695782495548 -1.1266478921937821 -0.027606963083991163
