# total energy = -340859.4626384947 ev
CRYSTAL
PRIMVEC
9.35121613851953 0.00000000000000 0.00000000000000
0.00000000000000 9.35121613851953 0.00000000000000
0.00000000000000 0.00000000000000 13.68645005413600
PRIMCOORD
 96 1
Ni 3.1917008913417466 3.679853061864555 12.515683209195371 -0.6111051986910702 3.581783502272405 -1.3689368270388231
Ni 2.3787809938686846 1.2686514025960283 11.34083852853719 -0.38415212287215134 0.5253941323754951 2.4197037516335747
Ni 0.1605248417614006 1.042997212586337 11.840243017108927 -1.361854466270745 -0.5846845426056962 -0.1526690203933629
Ni 0.793389883141487 5.571613382329953 4.9289417208734845 3.3510370208493256 0.25027298149178184 -1.153972033930032
Ni 3.767763842200269 4.040529457731854 7.300516667797514 2.893168285019314 1.681389110272827 -0.7084325090893347
Ni 4.951665175422552 4.299343059194628 3.1737372056673605 0.46749726005871106 1.867365743679384 -0.9924213947763232
Ni 0.9880775218181587 6.349662595846852 0.07200249190819356 0.812337215594801 -0.47350695658790065 0.6450265340288632
Ni 4.424611946906278 8.840396346037117 12.280823682289341 -0.12004403526949001 -0.2885806188227288 1.898905209048562
Ni 5.02421190809402 8.765016194958912 8.125179822152353 -1.2671180565281082 -0.012204255375675757 0.3058553467427765
Ni 0.684251842794916 0.9151847941597299 9.371577201235679 -0.30877226327925533 1.9690816700636475 1.7172110050674423
Ni 6.5731005476968205 7.550555088293686 6.68856749094002 0.9741639912280319 0.28608022099837827 -0.6364195090861426
Ni 1.7047734080525765 6.177431902067131 8.924495570786739 0.3709397379469354 0.09622122181827944 1.0784602767449618
Ni 8.589110473344713 2.2820146121099394 3.4363530115003615 -0.6366701916443681 0.008833796241546076 1.6575871227572225
Ni 1.3663248522935634 1.6843690550377348 2.630316544024653 0.13945123615150823 -2.3795163807814115 -0.24480013130266873
Ni 0.1402542111334114 9.084060977800513 1.7798131748733368 -0.7385393557770442 1.3524527133408708 0.16500723024374161
Ni 5.205915383543786 0.9490642492343273 4.662043058174857 0.364664703571501 0.2037290722939717 -1.9511765076484524
Ni 3.334400445423545 7.213322190596969 0.2874002683584536 1.3019693598793383 -1.234652479800235 0.22753311669210494
Ni 7.794893007599278 4.689597350839171 8.433152765411197 0.7577524383703853 0.921320107954123 1.4840939665296569
Ni 4.4891166339348665 6.073633405978797 5.750129028291745 2.942104605708701 0.39757482403596045 -0.10442252668214919
Ni 2.4278748771537066 3.4694413537128805 3.4461792691300572 0.19172587718550854 1.367924840834541 -0.8724354664382781
Ni 4.09073613570467 3.0457658165710684 10.20223542008081 -0.4365504339682094 -0.40416404721770394 -0.39405961179385035
Ni 4.036901185976694 8.978317428812506 3.0992557064336697 -0.5178433166114308 1.1983168785939944 -0.4553179443836997
Ni 2.48937782389001 9.130630032802307 1.4568408813689355 -0.3829401048419211 0.42068055681548844 -1.4036793727263308
Ni 6.077560916641599 5.553761911245932 10.509400418289019 -0.9609012126808548 -0.010394970081078873 -1.7076575570510524
P 5.242179398663656 8.545328080670336 10.471393336532135 1.4867136635406912 0.5847210522705866 -1.6332202638770839
P 9.185194377367658 2.904319325415021 8.710124557838327 -0.11836947578054453 0.8286526649253729 0.3298247130741803
P 9.309443982550153 3.471882021053336 5.3999615288122005 -0.3804353361421964 1.4858906534187635 -1.3950625775915975
P 7.882149202824524 0.35808423882984947 13.346026292065892 -0.6716191969157271 -1.8524600302121452 0.26307090458739857
P 0.9876473658884232 0.9010653933269575 0.10446149729307767 0.9011639447212223 -0.33748017273690906 0.1389105331566898
P 3.015000316379121 1.3052053054076764 4.29646381983016 -0.06602464363024112 -0.6900432079488696 -1.380753102947461
P 7.983394816982036 0.398044789580685 9.964009455463806 -0.3635236479885223 0.0647131239076692 0.09776594059758001
P 7.168632729983803 8.422097758016998 2.9101357816823126 -0.6481905335791417 0.6426012124168223 -0.8179913285567847
Ni 7.2370929813227844 4.470386148559647 12.366501392276776 0.6317323880231184 -0.18445196923191456 -0.04481869897658733
Ni 2.3207379970019923 8.523595855002831 9.302200530742043 1.628513345319718 -2.0420660328411735 1.143503016077908
Ni 3.1140951508879557 6.006772212552528 3.0819148117358135 -1.1106085793427325 -0.8515853624621463 -1.1273256349870973
Ni 4.977352965400448 7.063945868388407 2.254267684398831 0.853594422472375 -1.3222556209322 0.20309015315839218
Ni 7.554024389379161 3.4082937531794024 1.6802994058938032 0.9118160251184296 0.10697717478320286 2.1179521426465264
Ni 0.27376432538584033 3.9359361082950963 13.301435954340882 0.11812136432548043 0.08809833560082891 0.21927704733089975
Ni 4.325273980784984 1.5522644285296372 6.980937930530091 -0.1756359136021814 0.47181902736251646 0.3701954035817431
Ni 2.440845013556817 5.921274045909679 6.6373536870186705 0.004588647811946935 1.7203156121346954 1.5647335318595956
Ni 6.497524021085477 3.738672209647944 6.839406343309683 -0.9689706199525506 -0.4494758837806259 -1.961564792861312
Ni 4.4850488550341066 3.1056323005312043 5.035340790093545 1.044922807109149 0.6969833867121288 0.8704330912962687
Ni 0.17069522413488453 1.9032062086827057 6.681519479543463 -0.31771918805989796 -1.2745755412474178 0.8730754140151221
Ni 7.5921867013193856 2.360144020652103 13.50644546508803 -0.6296749912734575 -0.0756649949334826 -2.2063366420292065
Ni 8.680817847321133 3.0835353774450125 11.149118965775696 1.1802883032270577 0.31121686816500593 -1.3821697807893292
Ni 1.0853675716652775 9.12578610298485 4.224595985430406 0.8853958832536881 1.164961185951684 -3.0191417983993616
Ni 1.9440803732234357 4.286756322641935 10.659184453509242 0.8665815787606623 -1.881439962384263 -1.3758402390268756
Ni 0.43475672794043163 7.790881335993701 10.21697574164694 -0.8665581817218946 1.3758592651902692 -0.14487343560834406
Ni 6.294574583193126 7.912334927632915 0.6380128857131159 0.8777255111926239 1.4334249794198797 -0.36096694300493964
Ni 6.170577460838955 1.0621578538912917 11.420535200858131 0.8007466825437242 0.14121372736856969 -0.16210085523022405
Ni 6.456163593319829 3.234099304068278 10.316408155048457 1.2204191098096726 -0.6551641366834975 -0.07412747524303362
Ni 9.032068217597708 8.942193681930593 7.8129511405538885 -1.7043313208912971 -0.32442539643547996 1.4196279256357873
Ni 3.5813286515234126 1.860845200819629 1.9647718085652968 1.5466481351127945 -0.4935286511254661 0.7124444584622053
Ni 5.704755993798933 6.179358252535075 12.580707823825987 -2.4343675242933362 0.49113521119262515 1.8021340282640834
Ni 7.925482737137438 0.5375172390678815 4.928285265519845 -0.3734581334934149 -0.4757646422738258 0.44363099496407465
Ni 5.378033862733143 6.157457704982024 8.198990839208609 -0.21803314762146966 1.3016803678840099 -1.4249884186167523
P 4.591316072110487 0.3597384689161581 0.6858172363305184 0.07093030846197461 -1.4335185675749504 0.7679895427173612
P 8.87955923807477 6.841302769886864 8.238530585245572 0.017045899738693224 -1.3709536003585356 0.6398419045041304
P 2.9937637051524 4.867233047388177 4.934827376138169 0.25280423255406786 -0.9027796259477742 -0.5362295324281023
P 8.087604766568377 6.232931368218866 13.415540425432724 1.7263289082083109 1.2157132196935707 -2.931363565142113
P 6.581731719939121 5.904095862367853 4.182633339363128 -0.4434132225263137 0.0663077220882987 0.5393997026259678
P 6.114040009726337 0.40301870129864753 6.3877809570725175 1.2768622803990655 -0.7349493244329407 1.868543566037569
P 0.3766791315750432 3.257121997524988 1.8003016888309529 -0.42206149632341505 0.703942334528465 -1.2293125556445603
P 5.466150369817861 3.124016790919462 12.245143183039374 -0.045829399629288815 -0.12615117660849243 0.009015830345365117
Ni 2.187857219577198 8.227555063186214 12.153252525232022 -0.37791951169887816 -0.36935311018610584 -0.9074891156083017
Ni 8.186624791350303 5.473378859680589 5.745174754127096 -3.345710466430089 -0.6066620753180519 2.14819885734621
Ni 0.7518377554506303 5.260582591483641 2.2197504764023215 2.4520909097150283 0.7017265578240689 -0.7846783162269518
Ni 8.348569147679829 7.492671062096679 4.481832971898541 0.4350206275872444 -0.2836677549021437 -0.27032938592202477
Ni 8.597227328714503 7.066994364760011 1.637679369351299 -1.3817159810813624 -1.043259560474113 1.2864445247708618
Ni 2.5270351701735883 3.712759990489316 1.0275331069123481 -0.2951765268726916 0.7498308695304635 0.049550043013985634
Ni 6.306637651657446 1.0268383115736668 1.8898938177789801 0.5760834312002465 -0.584760133038638 0.754106871197998
Ni 0.8728929852940456 5.830483091087911 11.551021131900201 -0.41015626024539686 1.3611458702394943 0.46761630213507854
Ni 5.426744346167749 7.899477005820171 4.487828036388833 1.804652938031195 -0.6781999354570384 0.41686863926856593
Ni 8.148228699013481 6.365540960383609 10.717352756668511 0.2723050215911568 -1.3246300347016478 0.512255281000692
Ni 2.7829966507979003 7.600612146812682 4.671965633327949 0.20206376877640683 0.20968169033298084 1.24858683049314
Ni 6.951198258718404 8.063992946512247 11.916518079545297 0.04970970852030149 0.955131400076613 -0.32040161998806754
Ni 7.000123820117878 1.758346523736366 8.060360934270742 0.6323918759839884 -0.6280695944595506 0.2689389333324013
Ni 4.057380348718446 6.959885538255888 9.897260476627904 -1.138093929247195 -0.7425412778475857 0.7383285253178188
Ni 3.934944879413532 1.8356156204190595 13.011406124081523 0.8989612806429486 -2.3751994985736125 1.0037216502804907
Ni 5.401496063335452 3.1468524600588954 1.018725196690222 -0.784778589250242 0.2567105095870095 -1.4601194579919305
Ni 0.5605633105642507 5.056352037017947 7.323317737438252 -1.413670936721404 -1.9019455385367827 0.3664984143461301
Ni 8.540119453434192 4.8070205684410805 3.539001308037446 -3.29595216406004 -0.7515578795238992 0.5951409620523299
Ni 2.334297260004522 2.7426835592089986 5.638680302505225 -1.9665272790729098 0.13854466517683883 2.7063329031568877
Ni 2.2996229515815005 2.930979641842754 8.232604719752674 -2.7964930063827516 -1.843848120173418 1.7090523805160502
Ni 6.831137998242899 5.347100040655647 0.9523166021117617 -2.9303526073790955 0.28686080791814467 2.0465526078576177
Ni 9.272254197059766 8.061393308502106 12.636753400984169 -0.9158310598150936 0.27415827274981175 0.29611343686466424
Ni 6.947270748055602 7.817953105919442 9.22135459399144 0.80087446637084 0.06185200030979025 0.033071842853304334
Ni 2.0745672393870938 0.45944767830724564 7.599469428234124 0.6717539227213786 0.6541601208990153 -3.3346529230643474
P 3.319803197460132 8.011551327947979 6.796403842038349 0.17536697621151087 -0.42923975923940916 0.30389976567830246
P 5.621932274893135 4.237840112458325 8.660484563546857 -1.5836424529489563 -2.0802101480110626 0.6312227953765516
P 3.032272012079585 1.1226882741777584 9.526110718993134 1.6369779311473034 1.7422306670402317 -3.2173969920629557
P 1.5454286897331893 7.315063419195263 2.073702251919691 0.23118691139460829 0.02428484068929366 -0.05323083429968252
P 6.333700070367323 2.7121705418453748 3.56975465164877 0.4303023961759686 -1.004505836744683 -0.3780457528640973
P 3.3309030906904793 6.178900042957749 11.8579673116572 -0.503687593936339 -0.022158538374910223 0.048116138780936485
P 0.3143486022347923 8.779557335627144 5.95396122096164 -0.9671371662882376 -0.08995544341422572 0.23130466791939522
P 4.373816142334042 5.055173783819107 1.0713014727629289 -0.34733675381601475 1.1852356199300038 0.225165902011509
