# total energy = -340857.1907386948 ev
CRYSTAL
PRIMVEC
9.41025084296089 0.00000000000000 0.00000000000000

0.00000000000000 9.41025084296089 0.00000000000000

0.00000000000000 0.00000000000000 13.77285331140647

PRIMCOORD
 96 1
Ni 2.283406784627449 3.286586578962561 11.643749451274193 2.109845454378992 0.8066774462058625 -0.3660721254419889
Ni 2.3915870286655005 8.890108666413703 8.727182405870765 0.20180768690154277 0.5271064870809117 1.6915616799304545
Ni 6.489553668666064 6.922491080588352 7.67720919804369 1.6308612767266044 -1.7555582373870733 -0.23015152815155845
Ni 5.728405526789084 7.9479072977367835 13.220933846321225 -1.841542611968693 3.091385426356121 -0.3448247860274384
Ni 5.476841290196424 2.461260526130508 11.690989851682632 0.24596509814504738 0.323067853966321 -0.6009133457597329
Ni 0.8005356879317532 3.595496884376366 13.610829711774684 -0.24127309198601676 -0.7750261378491684 0.05136087097047928
Ni 6.615961568645461 3.2380767357113296 9.507676141492825 0.6609012962775908 0.4274525854319993 0.01579634360230828
Ni 7.996868833029927 6.586620406422893 3.667738439304664 -1.2863496510642105 -1.1899991027569183 -1.0979338120885413
Ni 4.175855286477856 4.134299618621903 13.494489839204501 -0.1267967806122913 -0.8593400667069008 -1.3735141619968603
Ni 7.855903274949724 4.468937549922977 13.738600216080517 0.33245032362248556 -0.16417367859885273 -0.9904609286158427
Ni 5.390784545961213 5.32222145809924 9.214947703480536 0.3484302439905096 0.25730700552042785 0.2812154367069093
Ni 7.245516762311924 7.322210306928322 1.3013097163486047 -0.6484283606215606 0.28462009151308404 -0.22154527453978617
Ni 3.857591191696112 5.3269359937867025 11.091829768336533 0.3377941044329021 0.03208685323221571 1.2080765290839195
Ni 0.5876720490801238 4.912357981317984 11.465873125169038 0.2517629357737471 0.9735867785683232 0.20843547663070555
Ni 9.03200583933035 8.414382843771076 4.390662142134797 -0.8740357210458625 -1.008556609775289 1.5385866982608984
Ni 7.35741405544488 6.574001260001961 12.600824662481259 2.765645424874276 -0.9139191875043615 -1.7208676279834232
Ni 5.501242070710574 1.1287407717359221 9.402864767267372 -0.6004639169271401 -0.5171563178467351 1.7743995384632925
Ni 3.628253967665898 2.3652383262206023 1.611010482835757 -0.08216320106331655 -0.32607090245870296 0.412447884493051
Ni 1.257595336942345 1.9325079398175247 1.5383172358655461 -0.9889270084698194 0.5291309737101081 0.9855488360262058
Ni 3.1055521726643676 7.46792804169948 7.150865635954241 -0.4485315175894856 -0.007001628128813748 -0.8188202522159833
Ni 4.778704188166241 7.1687855766920325 5.606075088513036 -1.0010171068651341 -1.9654569288268666 0.42131381952411306
Ni 7.75336918143558 1.0191678105686408 10.859109559117412 -1.5351059388011496 -1.113536294512489 -1.79832416759969
Ni 7.912844702983323 2.8201110329282675 5.910110883974534 3.169527679185503 -1.0926838765435116 -1.285095209831819
Ni 7.127239319086954 1.6364990883508461 0.8538137053004237 -0.3311524307466684 0.3029096338508912 0.2414803229008164
P 8.13325159893489 1.7317308271874046 12.668490953435017 -0.05982005748142602 -0.7802454772665788 3.9280871868382157
P 8.547669637138766 3.1241374181388935 1.9016592554050735 1.7056523536955657 -0.25178016216492766 -0.8252068724686176
P 2.3789302412410764 1.792793945103455 13.534114523581279 0.9665856646601418 -0.22465013871735504 -0.4945714905676837
P 9.416743946280222 4.793666487054594 8.15106426281273 2.6775316626544794 1.5344076271825444 0.4302959684180654
P 2.2652261799404694 6.429149268311137 5.184556075000262 -0.4256834093467185 0.6014789884552157 0.58660361400528
P 5.592342709413807 5.893800096136055 3.2455174210767517 0.18467385543473358 2.1141916471628295 1.220206479578234
P 1.2732069431409467 8.73285396407203 10.709674775251347 1.1036964256039314 -1.0747545457586007 2.1379201011280213
P 2.2516565981813472 4.92410197440771 1.6621354348046442 0.2155407202169191 -0.8229093346836924 1.901880489626802
Ni 4.88948166144529 4.1613823206349085 4.322499930960022 -0.23648569789970242 0.2765972212086075 1.7027668046176547
Ni 9.073796763458132 8.033117119393406 9.416775000108103 0.572081252019389 -0.8414660146399573 0.472985793977108
Ni 0.6492630820701593 0.7763899252162666 3.4826312764285596 0.6920080449847243 -0.26788092438153216 -0.890576399013363
Ni 6.299843011062801 2.5509590374536386 3.2533825087565535 1.1307061214235559 0.24013666438872838 -1.6171544686634731
Ni 3.576986920908826 8.187784002744957 11.371556062717351 1.442772739183367 -2.130039412828364 -0.4752661053708524
Ni 5.0115890767756435 1.4356372834628675 4.60262616100295 -0.2194868493488607 0.1370760510511123 0.9351503289689959
Ni 6.505513454146974 7.3200177184748725 10.454257040926123 -0.7693221454858558 0.10565614197893418 0.3411864179439027
Ni 1.9090764151433122 5.616480002903508 7.309459416995167 -1.3730228241827385 -1.1142873137459004 -0.5575439776351624
Ni 3.0147997132434416 0.06824596240754684 1.254453254175791 -0.18253058383948564 -0.6853707421738647 0.013698580533015118
Ni 2.191957966641908 3.6184202555034273 8.504351429294267 -0.007708938608483497 -0.5166480107517489 1.1703273353596038
Ni 5.103122587019044 8.553118172394335 7.867094886313194 -2.004591690044799 1.6278901099134224 0.9573173519843383
Ni 2.8167703938682895 3.5881568886952877 3.4150063905786427 -1.764023080324975 -0.40905608520268266 0.8761928765981813
Ni 0.9637132021730044 2.547458424128816 4.860371050369115 0.23375441501146837 0.1320749982920951 0.963570789093218
Ni 4.324461968267079 5.359514282309644 7.223640752107048 -0.04581320167937271 -0.7670996839132402 -0.8268703762139694
Ni 4.522660672157948 4.442673539735937 2.05694815633934 0.5902856908425576 -0.020436156367164802 -0.4323777906477586
Ni 1.4685637512681164 8.914594139185711 5.524746054316509 1.5105017670992245 -0.42549931836037047 0.6501970224862093
Ni 2.8846465334165208 3.216066158918967 6.183818381896868 0.7291584287827765 0.31954184309093353 -0.4962663617716034
Ni 1.7655512688256056 7.578649053473288 3.249153542014147 -0.7984026077915798 -0.13912676293255394 1.5358674995575228
Ni 0.7890777664685721 1.5857119643883058 12.011181165843203 -1.4678890746350202 -1.547392983698619 0.40419875711038133
Ni 7.655323777587942 -0.06725976811603782 2.7833423596915 -2.4895346563837837 2.8653443208285103 -0.19644153749362298
Ni 8.862950682393713 0.8001621009720882 6.302016779014505 0.22216953838734638 -1.360766889633521 0.18961037350440246
Ni 6.944087606342295 5.467581603337217 5.6368842498718195 -1.620151603618584 1.0695917706107387 -2.0719005997041027
Ni 3.0630743002228438 0.949296697835296 11.44455231976568 0.5341685361340155 0.72765793297785 -0.1843486108848309
Ni 8.469131683351224 5.907125011372475 9.864709528846975 -0.7571014350499478 -1.466244597053062 -0.20731421854206875
P 3.631660478481988 2.0684013726770845 9.73505226924107 -1.4983910998786194 1.1015966056521094 0.42156630185455135
P 3.7519611256446925 6.724894632753366 13.241483011152983 2.451940243069777 1.6001638476427475 -0.6358101576369178
P 5.613807491655525 0.08229640798628851 11.501104163413126 -0.3065914535778526 0.1375103103750535 0.22705926237947993
P 6.0803300889441845 3.4358613885637794 5.90254880637285 -4.008446244813258 0.5259091243387009 0.3741106794757492
P 3.9409377836798476 7.0488236985607635 9.259007439093843 0.4032608186771442 -0.37060600875660044 -0.1652982791215992
P 6.074486323151941 3.625186225881242 0.6262409033089301 -1.9305652591560039 -1.26919730765464 -0.06502448450050091
P 7.848318612745944 1.5706367424894752 8.680065279748765 -0.9821727204651215 -0.04492797086094198 -0.9226269996910046
P 2.9445616007260433 1.3482160528510465 4.142929759697695 -1.1787482124334474 0.2973874184810814 0.20074839239909298
Ni 1.8655540048548653 8.810469713274 12.916402130638708 -0.756885976605032 0.2865304211619194 0.08891157553074364
Ni 2.0001300025921798 6.5322009256233065 10.15607442150774 -0.8853609162506947 0.6322741194592014 -0.48308560141527124
Ni 4.583055662262003 1.3491853086909837 13.592814727503074 0.848631422040145 -1.0769836921994356 -0.7315989199034691
Ni 1.8158020084883746 1.2895807796602758 7.267260087979489 1.22142209715289 -0.6659776823592337 -0.6726216700383126
Ni 2.2307564309920194 5.45521653368986 13.45501760089187 -2.0187237585708075 -0.7381313217053481 -2.27746826786871
Ni 5.830252671989486 1.6384658307833402 7.190007574461223 2.7707953445063316 -2.3618089361993198 -2.608826643978597
Ni 7.644266732811957 4.391651159501568 7.364468920524502 -1.613789665956298 0.589630830867378 2.9729437025767442
Ni 8.98201858669203 4.296090061884448 3.8580513529638107 -0.32996355264488975 -1.0680905034748638 -0.46068383668130336
Ni 4.524909722116638 2.9650288963752045 8.103065396183911 -1.4325983697535263 2.799250514523231 0.2584218358511614
Ni 5.830789056289257 8.234101257542736 4.057620189381815 2.5259486762364434 0.1615598951250895 -1.713916650586887
Ni 7.104927614266649 8.970632183135486 8.973964352969677 0.39141806040594523 0.1969321039767963 -1.144956717805299
Ni 8.72082766345611 8.682998454945935 12.322351813516745 0.4810490306012167 -0.6967273048372645 -0.6560650512312121
Ni 3.806333555189913 8.759955486586781 3.3886313394313 -1.1194421184739625 0.9401184716075486 0.04633282162826859
Ni 1.6525717968422335 7.377100300271568 0.9915684857826977 -2.1659183861131597 0.33817128526666274 -0.9170554191404982
Ni 7.064218868989282 4.6736293269163385 2.321180472657472 0.5301437312453385 0.7238835535370823 -0.28109665174085785
Ni 0.4642462576024374 0.8550389199641114 9.57155480647013 0.05177430435881406 1.410491253441842 -0.8620962892957992
Ni 9.325210436036823 5.8764381832750425 5.441791869794186 1.4843225376006952 0.5709386537745136 1.1940287927416018
Ni 8.104606795276938 3.424776113035176 11.457457537813156 -1.1066557653425715 1.490470302369646 -0.23003068630297802
Ni 0.12177146937418176 2.583292659453877 7.86088317971181 -1.0917238266230875 1.509305432798278 0.2157006428335511
Ni 9.44685674907439 5.275584254771772 1.41825937317537 0.9002298629427271 1.2175662137419097 0.675513903984443
Ni 3.905451727637094 -0.002796726559508421 5.982968810335025 -0.5606308440906022 0.3995247486734797 0.01209395505005659
Ni 5.865814010039225 5.907877831442329 0.2932111838820829 -2.759081141393197 -2.4603644625777306 1.1657978229203665
Ni 9.149624564994198 0.2259429465402592 0.6867074113196208 0.3587951321646014 -0.10528204646896708 0.11909529820297556
Ni 3.6327897085867695 6.646638986492021 1.9035733004326778 1.2294447103470503 0.7190797043905358 -0.008214931710624561
P 5.561862906835584 8.754375207818986 1.7860637336789582 -0.17671937647434727 0.8588317596119145 -0.44892155393905264
P 0.5530865540459337 8.510339171924869 7.526685648151601 0.441434244423072 0.903188945571051 -0.8554844404062363
P 8.22264898223008 1.915146026956512 4.02584647730853 0.9846283810944656 -1.0739158519073893 -0.15139581010789407
P 0.4815592371589098 2.996600288054716 10.354252422846688 1.332458786717447 0.2818422716576307 -1.3476640337029757
P 6.444375054223938 8.505342328711212 6.112681590421082 0.7704652579513634 0.6586618654241108 0.2157456371388736
P 8.96348039247187 7.956461215780501 2.1784655489399456 4.60092328688018 -1.288185932942001 0.05363218350315925
P 6.408164408863951 5.085205469356513 11.151865286857232 0.24232930116467297 -0.41437801163622834 -0.20272068563411538
P 0.21230090584941347 6.539926741590185 12.900356711874855 -0.43792905948329097 0.5109141935917653 0.4770352814561333
