# total energy = -381174.7422963936 ev
CRYSTAL
PRIMVEC
9.19117111690678 0.00000000000000 0.00000000000000
0.00000000000000 9.19117111690678 0.00000000000000
0.00000000000000 0.00000000000000 13.45220798741434
PRIMCOORD
 96 1
Ni 2.8020203848841936 3.861486663719072 0.14828943347006196 -0.16288889834915818 -1.1474748562414625 0.8284937707500054
Ni 6.868102514612326 3.974997625318887 11.706272418385934 -0.9356524654163951 0.19130678737021892 1.3060759258485442
Ni 4.654353837115549 3.73749776720235 8.52991034537041 0.06663810884452394 -0.026009022469251977 -0.9895762120180441
Ni 0.6963194369568738 0.7769976975828545 4.91890698789386 0.9374033866692308 -0.4457439275420194 -0.22896239293946374
Ni 5.563323882328129 0.5707009458254438 5.374358921687218 -1.1414970413914727 -0.8040742042550603 0.05101351493338956
Ni 0.6158066174085285 2.859474394678562 1.1035544877905055 0.1846561148229207 -0.9642734715871973 -0.6061594246500205
Ni 8.6826786364589 4.146431346433038 3.9259057428818886 -0.1666969592413387 1.555413025789618 -0.40509375812082493
Ni 3.444768162668542 8.874397271925343 6.675456489994029 -0.5248855681701928 -1.5993128124963618 -1.9951508563468738
Ni 6.794380132183814 1.7640154902870133 7.136584890984476 -0.6718300273749526 0.6991546833318346 0.40438284809672936
Ni 4.860392316968429 8.43280746220363 3.4776376283262964 -0.36958116703651195 -0.7002944533632327 -0.2734036539719743
Ni 8.610923164620052 5.568213585289352 12.10666372330805 0.9466871259640018 -1.2769378708320072 -1.2342889258132292
Ni 0.17949253982918859 7.5825781907225815 5.559703480079209 0.04768779299426625 -0.5747153472081263 -0.9729985101650211
Ni 2.1048241102158523 7.681943940184574 3.647700945847367 0.5692982899576131 1.8622986135691217 -0.9251795909095292
Ni 5.493140100726818 7.6488924893414225 13.577178469816054 0.3049192080817523 0.08755120484810729 -0.28390866726835623
Ni 7.810381363455492 0.4431743675986194 5.576020565919545 -0.17365822105052028 -1.2710348750840113 -0.14473022516226042
Ni 2.447231993895167 2.922700459848208 8.665078463149792 -0.03669118477344648 -0.6564610011180501 -2.070367707999344
Ni 8.222632955409866 2.5272043725899027 10.384243796406958 -0.0025754740366600807 -0.6710792652518571 -0.8428847493643549
Ni 3.538665165397588 8.110004346224105 1.2658043908616978 -0.5463239405496269 -0.7192612242737226 0.4318520000512756
Ni 6.355896938253254 5.277680670619702 0.4396504726449863 0.23707345208237232 0.05507920036233095 -0.08368735101732684
Ni 1.933592594863256 0.17840246695099118 13.084087771743555 -1.1516482708928617 -0.8504597334981354 -0.01617583842891408
Ni 5.294371837118915 6.152661765549196 5.295502351149422 1.461400124476567 -1.016526772464959 0.5929982046777142
Ni 4.547212357004694 6.030364044492748 2.7956380357558603 -0.7172958730172356 3.6447801577096004 -0.35682026782641774
Ni 0.5990262965508132 4.2093541029603525 9.646672545858804 -0.1745676202386671 0.4125851814018636 -0.27245080314040176
Ni 0.5138866415312656 4.931927200703762 6.184531231804354 0.9847121990575235 -0.43758273188746577 0.8324643253619791
P 3.59171660429266 7.167183218293135 5.123798409608468 -2.1977946659964664 1.967290896711812 0.1287140522396622
Ni 6.5369997712380945 2.5669010400514094 4.470316263236878 0.5802673873746071 0.579513539927718 0.8041469664745248
P 8.181575994643358 3.9651263076866443 0.16478574714450317 0.2802109067017948 1.3227338461201994 -0.13997471275514603
Ni 6.792063957096919 0.5473976509234056 9.312411716135934 0.6689406216422996 0.6630304268054517 -0.8440332611465012
P 5.321954541229121 4.144004877294386 6.403076138009369 0.5261402665129004 -0.17576061210550376 -0.3577983154689709
P 8.93040826787589 5.81068586690593 8.116940922962517 0.15045812878497314 -0.10500565287912884 -0.42046072749519847
P 3.0366801711679905 2.2112486789902865 12.258499110542095 -0.46326136760049247 -1.6855625249242263 0.2839953134448916
Ni 6.268792210878239 4.825805940571659 3.578125619764915 2.2439801634135934 -0.2180503740126503 0.6240121365607253
Ni 6.921264247559154 0.5069840721254792 3.0522656397983394 0.701346805887147 0.5190720468122092 0.45275455453189767
Ni 0.05629040754833286 1.7644750488360004 7.656472448048414 0.7323607377701581 -0.36818994311594005 0.7492567421945483
Ni 4.482396219255553 4.956302186142039 12.382635984911591 0.3286556324667436 1.3760351286465011 0.6665659507625359
Ni 7.65930608606147 5.737340322487587 5.857279589070634 -1.4018407768556953 0.3092168070158417 0.28407090387783335
Ni 0.599318575787969 3.4260273650408477 12.080997378347119 0.1548148630917721 0.6093625049683505 0.9457059929976551
Ni 4.155604135070821 0.2580706178862982 12.400365753731515 1.644743434025335 2.0554982470866796 -0.24305846602121364
Ni 8.939130689135666 1.9437212652829319 3.048606634631304 0.012296043758533663 -0.7239246911876629 1.3687378236541394
Ni 3.792883763526276 3.4685273396511755 10.788079033095181 0.16543017671377316 -0.08244267997694835 -1.2666244047211412
Ni 7.784563364173396 7.960822450051911 10.908193851043944 0.9716810769051782 1.7109915065202923 0.825319743897398
Ni 1.8040522310747702 7.020133673788241 7.255932246156428 -0.45820683589572053 -0.6022965992605046 -0.5806322269131935
Ni 8.883450575340389 8.442182456602968 7.783958585122928 -0.8352740268966324 -0.5442344050104498 0.1188584996018211
Ni 1.5338409954413303 4.739399742191103 2.209498680035744 0.6514704898819942 0.4173337518304426 0.2395237133950778
Ni -0.09339608391064992 0.8835187736525763 12.10823817089688 0.3991701935475384 -1.17537826751995 -1.4261248462140408
Ni 1.9517175840353076 0.24649525715441095 8.228796554668882 -0.595816905073432 0.6381241504820753 0.8208635078982572
Ni 0.8953753842164436 7.587421937828906 1.4867242956478781 1.5351586464159561 -1.4903790282074203 -1.2496075584481705
Ni 4.973167984889866 4.06792955509506 1.9121367253281458 -0.5368946768159268 -2.0223469571456913 -2.2583225481781946
Ni 6.8079279182079535 7.234977295439714 8.904325562869579 0.899845997240747 -0.6034299415339994 -1.1316905968240123
Ni 1.8035007608159856 3.4009906152920304 4.473087401287271 -1.138318386553175 -2.3967936798046208 0.9169770004940788
Ni 1.6664052544821515 5.887661923861271 13.222229233334883 -1.6277281304142615 0.6182783194007417 -0.06421201590153457
Ni 8.895408288785033 0.30021397506261194 1.0674543255333722 -1.668194208849108 0.6988687766602997 -0.8076737486808605
Ni 4.754298630349265 5.9247574899355095 7.892356498306714 0.43445498489176143 1.2208911643500844 0.07218320703246923
Ni 5.720520479594659 0.902490269671862 1.1477493143294977 0.9698622785288846 -1.4380768763695944 -1.4871394382242
Ni 4.377874222873925 1.49499910688094 7.781631380630858 0.3288433229975175 0.22887060455660585 -0.6429056310311185
Ni 5.9611085711603895 1.695256340187562 11.261879301515402 -0.6027897368468393 -1.6139889264512977 0.8748155366346804
P 2.507149237512106 2.5621124399709636 2.54350307608828 0.6500550975917062 1.4698868217913394 0.318159103810794
Ni 3.785824944213834 1.0765986215411176 9.906460993601218 -0.611956748058088 0.10977479213299805 1.1405488185455903
P 7.086291722500425 9.042512980315806 13.001935247292423 -0.06877572401281704 0.06216027557882843 -0.08704778284912751
Ni 5.196908660049729 8.410252328619343 7.852578029423488 0.4704974803376155 0.38274161567786985 -0.3137787153549112
P 6.143672800331009 3.1380404047325867 9.822008838170953 1.015597318672154 0.5671568181345781 -1.0588180770340023
P 3.209814258913393 5.830566369735112 1.1235314979149749 1.2215262268309222 0.48166378136708005 0.4656630350634497
P 0.5832184015827547 7.630381470988221 12.228097474292403 1.610414064615846 0.3469798846972282 -0.5202141308364525
Ni 7.972191928553852 3.7446760717375285 7.841251749425151 -0.42068235658770126 0.9566056706292945 0.18845209153024317
Ni 3.479042039252001 7.424692255632572 12.14850009537364 -0.8891923741816429 -1.760840054611303 -0.3961959414105628
Ni 5.307460064594067 2.8245203714426026 13.268813764328607 -1.1814494134146942 0.2864527738464486 0.1826622243213435
Ni 7.166420351101817 7.597054285015676 4.13390378038765 -0.9409263122208246 -1.1062631578898432 2.4061686932616175
Ni 0.4268030538495027 6.649701909791693 10.031002279493821 0.6906440747576621 0.2600958811194746 -0.6005922149748882
Ni 6.94889290752426 7.479159134858524 1.9205181541445728 -0.7984177773002314 0.2615256715874657 0.558071053783226
Ni 7.241218100534959 3.003527617444061 2.001540164565196 -1.0841380438560297 0.38691965831495945 -0.1620779724120886
Ni 8.27913108342234 5.34621923261564 1.876125717429516 -0.4153987395912588 0.08171377223072379 -0.3109988386169289
Ni 1.559585465355588 8.803248417371158 10.504950525766814 0.13594605121172715 -0.2915975512721817 0.9812471233270585
Ni 2.221368158238983 5.401164052732539 11.040065095792892 0.4621879320306556 -0.21622900453319532 -0.11953444262292318
Ni 1.469806107225467 2.101524479834125 10.46564264483775 0.42723301322202556 -1.511680617898674 0.297962574258261
Ni 6.3129282139229606 6.478654217858691 11.667032552122121 -1.5511833039789866 -0.4260616186217437 -0.114965335195002
Ni 2.5612852345827872 5.249105320043684 8.70909406185468 -0.170988387527841 -0.50256582162707 0.1407216182234996
Ni 4.029979210119705 2.4365518532167063 5.502047264523286 0.26051394249349974 0.6379513723496368 0.8022546345478183
Ni 8.16654843009148 7.118286188680907 0.06941080412191479 -0.8683240153730659 1.707551884711124 0.4543172710333272
Ni 3.8815050341129504 4.179942355825178 3.865249529118178 0.08342124184013375 -0.9448058497808889 1.0882541229069322
Ni 2.959198599808764 0.5784601323665423 4.531807035325549 1.1117306087623176 0.024143944236055193 -1.2156862231103773
Ni 5.129077818219232 8.412632841903095 10.186724612935201 -0.1551403647519909 -1.2427689382597824 1.839237360874284
Ni 4.8832599503660274 1.7124897857745789 3.0640634268679365 -1.5810412678806836 0.860400389650615 0.7588351299116027
Ni 9.027016666043961 8.497825805714326 3.193728790581747 -0.7836313630196762 0.8643640022840533 1.3577358161166808
Ni 3.426156041434564 1.288684891898668 0.9811492300335933 0.7275417191149599 2.1529289158320277 0.053611871788185085
Ni 7.562624158525562 2.0259270985257456 13.204404795453868 -0.864059326559441 -0.1556414727581255 0.25458240750041317
Ni 2.069805748783035 5.622193332453378 4.518596565276366 -0.2513667287765929 0.2837369175771823 0.6468682152232924
Ni 1.660118493532008 0.6725280908758112 2.294933371643741 0.1175076420008815 -1.3067325855959366 0.6203897093167896
Ni 3.147240766883309 4.631853850557141 6.469341723422016 0.1364499874313392 -0.17525333345178204 -0.249823295548873
P 2.134529974822379 1.4981149138430727 6.351621205513479 -0.0001833196553996843 0.9895327603746183 1.0264129212304194
Ni 8.729268682155213 2.6771491359534165 5.614265028366253 -0.34184359191192737 0.387658593363513 0.3860927915382899
P 0.3008987173006027 6.336586288024816 3.2938675175231356 0.38311905362194665 0.20282250131930227 1.2739628473640834
Ni 7.541521229956073 5.361513341125931 10.010635563719811 0.26224583758294195 -1.0010160784238697 -1.6377222655124957
P 8.998597565374599 0.5447607039693176 9.610593523294925 0.2201568788326918 0.4644512741435356 0.16098319668601307
P 4.359124234075251 6.173406238450474 10.562673836870887 -0.23913650525898816 0.20239724085642563 -0.9061423717724202
P 6.8193249702228345 7.787146083218704 6.566856371048688 0.714101534449654 -0.05852756392224759 -0.5278541638802136
Ni 3.0985459430326348 7.411879763286811 9.134412741590953 0.6982496550190619 1.2321880774201424 0.8165728509427033
