# total energy = -340886.1145863766 ev
CRYSTAL
PRIMVEC
9.10764822330127 0.00000000000000 0.00000000000000

0.00000000000000 9.10764822330127 0.00000000000000

0.00000000000000 0.00000000000000 13.32996378999305

PRIMCOORD
 96 1
Ni 5.1265950411589705 3.323308001681644 9.637190646822127 0.43379883936500124 0.5301272761851064 0.03838399909483712
Ni 4.730293940895952 0.4590272956007674 6.6188604451840884 -0.634388851809359 0.6655760760454409 -0.39472012819598473
Ni 3.7473601062997157 2.8152560568382192 3.5497031907057988 -0.6978917574590111 0.4219442540192604 -1.3430334769095
Ni 4.7710870976095325 4.851862830338435 2.8527322080427386 1.4707519980051122 0.6290959788415359 1.2161701047253313
Ni 4.502375042312034 4.534142519565209 11.725022477393088 1.2915548494142337 0.7027642550599639 0.36156575293120313
Ni 6.228784422530745 5.902384522932324 5.038419344190331 -1.4867468307714717 0.34161142129646327 1.036459249722828
Ni 3.445714794767273 2.70391505643109 7.49485227349971 0.94158477174043 0.6031867151749418 0.6901226550365533
Ni 5.5752104732288235 8.168066866349932 13.04323616867543 -0.6675841076144051 -0.33319697198052295 0.05403893202327468
Ni 2.3160476384892985 5.658536347480343 11.908350329924385 -0.5586325827136508 -0.08643637451737372 1.1536519315864517
Ni 8.231018931365398 7.274114755596448 9.373524228680091 -0.061734758005635625 0.3661245759464791 0.1844349999510501
Ni 8.302759876985599 0.00205559622019542 7.416738706367455 -0.6212924236367171 -0.8715862310641054 0.051186293065827976
Ni 8.812888365640298 2.5426368204221377 1.920140899397456 -1.3091874748943322 0.8143107943814041 1.2119416684662807
Ni 1.3924592401836842 1.451349294059553 3.3543523316601913 -0.5861336163473969 0.7550157561655125 -0.7200351263252697
Ni 1.7498706822267895 6.914745169169905 0.7757175313518224 1.4227518159767498 1.080787896436874 -0.21882787560862313
Ni 7.487242833349186 3.9395405929738123 4.160054973493845 0.12195899290401575 0.7556875854215566 -0.09804079152552148
Ni 7.5361326893970775 3.927554927817511 13.173003763113128 1.4393238614028179 -0.5618485185477872 -0.5610617609804337
Ni 4.260949501306539 0.3342889445516027 10.538882437096754 0.977123330966672 -0.09594174290464767 0.2927388639654765
Ni 0.05348648614240869 0.3489313107155734 1.0091520217432302 0.36745409339118 -0.6113859631562826 0.3657918751974087
Ni 2.956588543080986 4.515344333484202 9.821917434131546 -0.05479149391858305 -1.058048288747513 0.17407782508644215
Ni 0.47083991543946235 5.2759422579013915 1.8838168657022616 -1.2714423949350748 -0.6145224519027352 0.9509335599451817
Ni 6.515912142680858 2.153002518711104 7.552663981817443 -1.8208007514356512 0.15239879745111173 -0.3748578420544189
Ni 3.3403119810485244 4.640884157583331 1.0288755448910156 -0.5681196962684797 1.3524064334839676 -2.2566227918782684
Ni 0.4810687152396461 0.3668396795581531 5.196913372115482 0.47138271115604624 -0.28617175227092 1.1366937064655585
Ni 6.6481551959251535 1.6689674424217567 0.7942370233950009 0.2700231675355156 -1.7125557656836183 0.42790921335344373
P 0.2488737757811963 5.841345064058821 13.03967689972172 -0.4477761274806998 -1.0921112918694933 -1.4754231782285363
P 4.115791802779846 6.355362518535512 13.12012384634717 -0.1225644876984986 0.4355034807609338 -0.49791109646387793
P 1.943535715572981 8.971716644257878 1.7838959454923105 1.9281003425552794 -0.024809345734195982 0.02717810307668868
P 6.499354438080436 8.28071936811155 6.575630992551578 -0.033257219391233044 -1.4597139950233957 -1.0208475113275
P 4.5588879999828915 0.970228665224625 -0.05672971970028015 -0.4473336406266425 1.0966240921381822 -0.1974383541892535
P 3.873792479931762 6.177772484430103 8.77699512370946 1.5063370941985734 1.181502892360449 -0.4636148942851693
P 4.637359497693143 1.0555308991561727 4.363736598434946 -0.01250584577649459 0.4852679537785707 2.119616674833143
P 9.050825677348785 5.910253531059257 4.047230337179451 -0.1477049915198682 -0.46082061936948376 0.4510717675128361
Ni 2.730482066507785 1.6409705315627372 5.32432117487993 0.10375943917685357 -0.4883633048744428 1.3989382584969199
Ni 1.6165893570768568 6.593226969057636 5.3872249693594325 0.5605454834656476 0.9367768088288254 -0.8393957623744898
Ni 6.814287808475374 1.1483378352828513 9.818824476770542 -1.0225868626161099 -1.0937349435158452 0.07821861459327174
Ni 8.776175435362905 2.6236766749515965 10.670542600850165 -0.8865613643166989 0.039910977262324815 0.8289095181311854
Ni 3.417572161535533 4.69084871613004 5.313376513923754 -1.6563329386351473 1.3016508001976552 -0.8685060494768848
Ni 2.0307232327016065 6.740005828980851 9.721155877983959 -0.7948560280909021 0.49316072626308616 -0.252556635319636
Ni 1.3123574734286167 1.2013534560084052 12.174696218194827 -0.07276324790565533 0.24994028074271146 0.17019983018827464
Ni 4.329457231781992 7.275735916992969 1.845333408596308 0.09987475941046671 0.042004369456243786 0.0830008664732635
Ni 5.342810611683734 7.997343999059 8.369257549482333 -0.25095972314616133 -0.8018450578142254 1.4882375563843853
Ni 7.073300218338633 1.006267629528184 5.502636177789625 -1.303026340388943 -0.29726580530155255 -0.6582409758366082
Ni 8.231920588546608 7.599540136827296 5.178077844676466 -0.7234978880628895 -0.40989195084041663 0.5295204958390428
Ni 4.767872097761376 4.74851834513437 7.4371598753746415 1.15894249056143 0.34400151879519464 0.5169678559850129
Ni 0.783574699535972 7.390273701951664 7.550371586741577 0.3326264441890336 0.6121745204958489 -0.37457630625825816
Ni 5.87078098334846 2.125961910923066 11.787274164254663 -0.21954547050093803 -0.28534617104583115 0.7172619344555067
Ni 0.7612436566813104 7.622591594662098 2.8770860595837338 -0.9107135360828702 -0.48672628349165203 0.794372146475948
Ni 7.210579801090097 6.300024447494717 7.377788026903964 -0.41041568455437055 0.15584124747375738 -0.5243988583417614
Ni 2.457899260684884 5.822410263253387 3.109974091077438 0.48601460213660813 0.9049894891148995 0.7433208363260876
Ni 1.1893131449623338 1.3052808307033539 7.5468924650928635 1.5184724440095267 -0.17104469468707317 -0.39405369825657943
Ni 0.9524414281043696 3.9539033543351247 4.25148574396314 -0.012852173372319801 -0.510294043509263 0.8119726331665306
Ni 0.3715146354280083 7.37864323507887 11.38026975571529 0.11233715354353557 0.36667890578805235 1.2849072621907291
Ni 2.4897851373658946 5.251515545174037 7.449903296869093 -1.775015831891053 0.16461693678385841 -0.2799185722723566
Ni 6.249158231766797 2.016205641319278 3.285156062973631 1.1877997811127543 0.4602223236638526 -0.18903110396216477
Ni 3.950369586796641 7.197082266316817 6.160763040474246 0.2401808873631025 -0.11189955178548469 0.5133932512598771
Ni 8.116827237041914 7.14294640485097 0.8599414197252347 0.14869383779569875 -0.20663493308685704 0.19017730175146602
P 0.4875132871732318 5.566020856099106 8.57687185695724 -1.231549415394879 0.033723874615006436 0.5319828413366063
P 8.421368780732188 1.8176133702454582 8.478909991895557 0.35143972024079473 1.2862779172860106 1.2466003961907304
P 1.6095400372964792 3.4250586484340735 11.408369583000043 0.7688493196144953 0.15066793080293409 -0.5930046324356175
P 4.223571712703606 6.731808945515295 4.052895294418979 0.24641606963953688 -0.9934305527671279 0.14005750227693944
P 6.674057347676309 4.019341807335143 11.206140627962004 0.2385747192182472 1.2219566295001212 -1.3067809223353688
P 6.379989599525358 8.054549138000283 10.416727015104069 0.2528512837419194 -0.007378808962574388 0.6579555833857056
P 2.26095547395247 8.698405226571372 6.448130291774521 -0.06914236332361641 -0.33874798370573916 -0.6236015313858679
P 6.744168024251694 3.8743389388294656 1.8813241023639034 -0.07621109724493973 -0.08461886169266072 1.426113790470447
Ni 2.6150335167195835 1.8913488908422775 1.4192676029401985 -0.4324461819918488 0.11749607203665571 -1.3123278202955269
Ni 0.9612120934125139 3.494431605497558 8.625979385799383 0.760001125195246 -0.4140707648084546 -0.09940733285574492
Ni 0.10180073881805186 0.4111547638674347 9.993234120091314 -0.09848250704863039 -0.8182163000833972 -0.36481357044453944
Ni 2.607046109164814 2.0484558239320916 9.925491432072644 -0.09273300615936288 -0.433088443561538 0.08954406690841998
Ni 4.81790040984615 2.9761426639704833 1.2447067726577283 0.5667287294582241 -0.29342226318574627 0.006199958163124806
Ni 4.308127119474959 6.888205482038095 10.775876196441873 0.633717022553315 0.3749249478469285 0.2915589847247624
Ni 6.683511086606583 6.3668472630355835 11.818958761908354 0.7926736757276025 0.010823058757432974 0.7414380174810778
Ni 7.751847339265613 3.986636242307576 8.47407109835639 -0.022540604304677306 0.3973881619464511 -0.026972671934101935
Ni 3.106646156390422 8.452872136184805 12.534725198357934 -0.08822791920015773 -0.2739538700484895 0.6436995876873237
Ni 9.114296878317068 4.985963843834924 10.788366425313718 -0.3119565745445079 0.478040582792196 0.1003586410254207
Ni 8.617073927296472 2.806394315047124 6.418524059461764 0.2773729230323675 0.09210719964990588 -0.8782078501456811
Ni 3.415149527089046 2.714716727309033 12.633633348077472 -1.0253052899885375 -0.23776764993591953 -1.002080772242958
Ni 0.8884665741853679 3.6092426199051055 0.2696301062456419 1.5026763575175348 -0.09230954546869909 -1.9027711197618715
Ni 2.8717599068607815 8.79103000973215 8.556690219100213 0.478858193597485 0.2713737680261391 -0.05728135021997232
Ni 5.780269174592138 8.379409845036838 3.9926172349429434 0.2973689065383201 -0.8336300635353062 0.14831331452782845
Ni 2.6462454274267593 8.72621998446449 4.170212733637328 1.32969716481191 -1.6495984481247914 -0.6310507885750615
Ni 5.115784262632733 3.364939062038371 5.269294585410827 1.8256670783890172 -1.8802395143182589 0.5707705036277654
Ni 6.621733908221181 5.580465586295074 9.66273122493597 -1.610597898491878 0.02195130746011058 -0.3002727104486764
Ni 8.128685395122085 0.12144502542567039 3.1867807106793515 -1.133745422470512 0.15407541382258624 -0.3563376717630444
Ni 4.545399572857905 0.6583955383093265 2.2922876056171413 -0.1991640786311086 -1.1228858540481887 -1.810950855224765
Ni 6.1686466208384525 5.619145768604201 0.7460621177382721 -1.5000767151111585 0.7517818226092472 0.41738877343809405
Ni 7.778514533473554 8.867060657699325 12.542682550673328 -0.41491331531440795 0.09970172416771217 -1.9114609342263855
Ni 9.147539794594044 5.190813069287451 6.368030346549112 -0.2772317694688129 -0.516328165518485 0.08376371278121703
Ni 7.198166076463929 6.3624118383158885 3.0478963602982976 0.04889364037690934 0.26097494129031823 -1.249552793950835
P 8.480677786429629 2.019602794133336 4.258470399440623 0.7664813336029508 0.32503191967122735 -0.8694303610633671
P 2.1360896158271747 3.7992645939332723 2.469122615678889 -1.4435641247364106 -1.484913891327791 -0.26366045854228143
P 4.624608790080056 1.5075434840400836 8.704520101636676 0.6536816386006999 -2.2885980592332844 0.6150508136023793
P 8.411004276972408 1.7806181028709176 12.952099575246066 0.7030974700296665 1.265815792776917 -0.9749764598269982
P 6.554747155011002 8.407270141171432 1.6749101829342843 -0.33417553384370835 0.1979479468358204 1.367684956909593
P 1.8456922499391335 3.245902098821915 6.395516318338779 -2.6447637241948385 1.8372558116678812 -0.9490126887733848
P 6.600740778901064 4.244346258464641 6.496584802233908 2.3719359973309926 0.20309323848218572 0.12448895841472109
P 1.9808315353412584 8.8163857025856 10.642496508690352 1.137469151179002 -0.09892088013762963 0.19073317425493602
