# total energy = -381169.183850005 ev
CRYSTAL
PRIMVEC
9.21859575070175 0.00000000000000 0.00000000000000
0.00000000000000 9.21859575070175 0.00000000000000
0.00000000000000 0.00000000000000 13.49234671108866
PRIMCOORD
 96 1
Ni 5.70555474448352 6.934651657115725 0.847624052300911 -2.2411974584621333 0.4624650969514423 -0.6505094115203055
Ni 1.9624454102981455 5.889345884732743 7.395883806479284 -0.6564088077238759 0.9933022547193796 1.019280423950696
Ni 3.1196557145307198 1.515066966385082 2.0604971585568 -1.7694799896744882 0.45808522271619173 -0.7705092238154214
Ni 1.245727259073976 7.1407517986892755 2.20939868008198 1.0459913575829791 0.004542110844727661 -0.23569714056013602
Ni 7.493888539900438 1.4977820996565225 2.568321933744085 -1.0237454017005854 0.32081351071450553 0.15059028348746323
Ni 9.142920137378548 0.6728035274189217 1.262494962590017 0.9562734841008564 -0.6753159290410241 -1.2451032428199138
Ni 0.6258310954569472 3.256081710645894 0.4980281736553163 -0.46767903705221386 -0.6150844950537923 0.03370999065793549
Ni 1.2230218581393404 7.687220926583825 12.913025206885477 -0.09068075161602447 -0.06206874430628665 1.8530500983876603
Ni 8.777808440497838 1.8602572781989013 12.229112349922776 1.6429560031076091 -0.46306390687770577 2.3426783860174556
Ni 1.4744682714130415 8.990250975836322 11.260320920924883 -1.1810154112010691 0.5709407106570424 0.18265451101185964
Ni 6.85161976664952 2.2730475514636685 11.336809452242326 -1.3543956959998544 0.0680792121664247 -1.5705779064555145
Ni 1.0287768304926856 3.492769152382303 6.14429352061098 0.5290445846438889 0.011064999564909977 0.43085441202469665
Ni 2.895911181000656 8.35038825603402 9.648849569312823 0.9383703785681905 -0.33428634838995974 -1.4624175099974877
Ni 7.025261233155732 0.8146915414203211 6.3114902669412265 -1.0329275824204858 0.6524675636879408 -0.38178773640503283
Ni 9.17277916848991 4.546703530236182 8.444076843000605 -0.44662864413981784 0.2772351119029226 -1.1199367987221938
Ni 1.1951816994618736 5.74712139199236 10.114713141100076 1.1664146305687588 -0.08788981913444864 -0.5746240730459007
Ni 1.2398457950884716 7.869527872943288 4.905007294274736 3.6730473800854098 4.241848932912262 1.255367086639767
Ni 2.1893887964974406 3.795858138143145 8.817167234363218 -0.3633315865823743 0.0870503539522888 0.24832639928837233
Ni 8.140692862180929 7.70061554597401 2.4495486263214534 -1.631844723685796 -0.18207189903551227 -2.2508228973670397
Ni 4.996156158156673 7.520069351371962 9.979020023334193 0.40596921874724273 0.4788656497966528 -1.2735244742750842
Ni 3.60180670100385 8.317247404893129 3.5605221425200204 -1.6084816234798234 -0.7054891101902947 -0.37252225194270683
Ni 8.563079693453393 0.3667028264792948 7.995537777902943 -0.6221881959781091 -0.3816208718098653 0.898220288711866
Ni 7.822116635831297 5.796892589575024 6.195888156401062 0.31794158848334925 0.5625074922880248 1.0719150194272766
Ni 4.952635168383058 4.182983841289348 8.662909708801081 1.2329936040405733 -0.9649381017543897 -2.206823351857638
P 1.0291547929118168 4.210860874349168 4.149341498548438 0.616665466387667 -0.47680696749541107 0.06925420631113234
Ni 1.8279000076830378 0.9062008523897711 13.291175685366651 0.4963285824681065 0.7484319323004077 0.14784691641437117
P 4.514761096521804 2.788440793629165 2.724752282286445 2.2756692669867586 1.4172190590839786 0.6015386380485576
Ni 2.9406121510096086 6.087582564269247 0.34837810216834514 0.2854927239260245 0.11294290544833452 0.4998620495426617
P 5.810075181266672 5.633308610855936 10.30971778102323 -1.1444306700985 -0.9370794276709087 1.0019889838601002
P 7.351166242998273 5.877214212938191 1.581343137509512 1.1124942264012196 -1.3217817666195752 1.3984798308032627
P 8.54684574662193 8.86317263564795 12.541001407032462 0.7054088917716625 -0.37171363999848245 -0.2791482697652354
Ni 5.459805423283553 1.4162528402712529 0.05308159525851658 -0.8557387225088874 -0.2575548598651758 0.07570613258406317
Ni 4.513230809654102 8.809640251065154 7.59086171247523 0.7173010152235583 0.8632280889073971 0.20414584811641617
Ni 0.630605406112265 5.721705723954687 0.23704420138568583 -0.9164689505094087 -1.52535323028976 0.6668264035127741
Ni 3.3002295649195323 8.609200327182984 1.1992683028862847 -0.3058522614189829 -1.5126792343665176 -0.7871267777674444
Ni 7.092501669378725 -0.40393489034239144 0.6351898136984584 -0.3355050512884093 0.5344755258514731 -0.1004422018781625
Ni 6.894264989842222 2.171384879312973 8.803445354829638 0.5476303180658763 0.8282752269812961 -0.3764658099714871
Ni 2.100180446986896 5.921638625079487 5.10060653361335 0.5279282116512585 -2.118682850164964 -0.7665011310972928
Ni 8.378311382071782 0.3941069455854222 10.375412258766021 -0.36363909052046406 0.08967879271407136 0.41053164130694464
Ni 0.6317180905998049 8.017366490397105 9.19361780381786 -0.4926092246349904 -1.4772404339429333 -0.4735303536266684
Ni 3.3717197737088545 4.308854545455615 6.631555296478412 -0.18805254209897934 -1.305593586895487 0.7735348980156227
Ni 1.9168410179215138 2.5314171300243817 11.243550451830167 1.0182355276259496 0.48623674544974327 1.698426782481404
Ni 3.549076334237258 0.7917925499783255 11.299003991733619 1.4929529595821835 -0.38193994571218093 0.75186332657946
Ni 8.75672551238679 6.600588190177304 11.335500411668749 0.7026002186782738 0.4562805654072852 2.040663238956376
Ni 5.851549642819625 0.31151662584790885 9.497694101166239 0.6306746361825654 0.4152051355232139 -0.1003190460367369
Ni 4.665531227372786 4.677791959505578 1.5408255661786505 -0.7492860527705869 0.44856571326153066 0.042797297671184356
Ni 9.010587197704696 4.70886784523463 2.5758369328678827 -0.9784636470446504 0.4835738539055995 -1.267255867657553
Ni 5.814767446421252 6.386965674603486 3.0803974033572565 -0.4192993601972456 1.083986862990146 0.4718174847006197
Ni 7.732963597894285 3.333582443758961 6.661576574872134 -0.9313317265538541 -0.3019410992900348 0.47196840845618715
Ni 8.32255731595214 2.9784821416874343 4.424855821184765 0.3220023888162841 -0.38025638736217093 -0.05397362600297801
Ni 3.266019356690367 3.3499362323330755 4.410202863496741 -1.3485577491618388 -0.6875800911203578 -0.6758468618438296
Ni 5.019506860782508 2.134132534539581 6.9374273762474425 0.1231221599741815 0.39717913125943854 -0.20889467565531122
Ni 5.288947972645087 0.5492098163630297 2.31857911693515 0.49166125889942425 -0.4223947112931176 0.5878418572877554
Ni 0.4234442041864717 0.8488952966325741 6.067427026874408 0.9100051971619361 1.721784226260422 -0.9898338365548048
Ni 6.680098577128678 5.681438898423835 8.371393747942124 0.8980397972699437 0.11948173500811682 -1.914595108979993
Ni 6.103484641659521 3.5860889955253468 13.010319186586752 -1.1999166189809463 1.1319693044066956 -0.3592211639584265
P -0.0044212384442758115 6.653844016892445 7.587555924097171 -0.8179411920451396 0.6876459113612866 0.14351152226381092
Ni 3.50267914264001 3.2318460228435564 -0.018747857848464798 -0.62988402196047 -0.09362775005949037 -0.4431980211917141
P 7.448911012023829 2.6293739267484746 0.5755427346617658 2.499885660600804 -1.8341650885576992 1.6461362006078037
Ni 7.468952238833369 5.661913912967253 13.032392191864012 1.0140456579143182 -1.7546305833664813 -0.08525135307033706
P 6.677581900533 8.551279891100029 3.8044507910912464 -0.21660310004316244 0.9460044980746805 0.1129894424155538
P 5.441727757334378 4.341285564736187 6.320934718121712 2.1955575491358315 -0.32981828531627716 0.12788512858046364
P 1.6244732588301725 9.300641089303307 2.692182062212486 -0.4151873949114011 0.11031960889287452 0.12380761607698033
Ni 4.7764309323032235 5.229948960878271 12.497340294605902 -1.8025582602856955 -1.1073337652462025 -0.29614737542639324
Ni 6.648128487627534 7.839668841831926 7.784355424581417 0.5081919095645957 1.3118351969298248 -1.170333763117507
Ni 4.194193653525042 1.9583339166656453 9.211602361951591 0.5836869545791173 -1.8757688801414147 0.12001909556882555
Ni 6.021365392156583 6.934587126946606 12.070266729336211 0.05335938945774681 2.1738803212727142 -1.8419321340976278
Ni 4.374647662171204 5.315884708954876 4.693460806427462 0.6814737211123036 1.0869994245642247 -0.4877894346488438
Ni 3.4827577575731206 5.784106397493684 9.276312293685525 -0.23338546170782387 0.6915886980591185 0.4986513170640122
Ni 4.6338745701216535 6.424383954097472 7.264454289173112 -0.7137660054871062 -0.528371212725948 -0.2627844836952313
Ni 2.916505523545511 1.253295726052188 5.334010311601111 -1.8000810023897966 -0.013684182355311917 0.7622541828954807
Ni 2.6216763994320225 1.878980245839277 7.684269132276366 -0.07807591836782038 1.1853166096795844 -2.4892443788368745
Ni 2.2092825257775637 8.979492874784466 7.410779213231288 -1.520608516515923 -1.8963906701568243 -0.7422774826632378
Ni 7.500083436135953 7.458830220877124 9.884493466028607 -1.2293009856803343 0.6620809184079888 -0.8830307254556212
Ni 1.5213356113853063 0.9994248221386943 9.453170128192587 -0.23188419457194903 1.0701458433419957 -1.0491988087766835
Ni 0.6930549382078814 2.2615980557426707 2.8646813447252746 0.9519841126968831 -0.1891509173694807 -0.08153353789911764
Ni 5.8274153595687626 2.66274524277908 4.619712041718941 -0.2972640055293396 -0.09471995468240461 -0.002387012174937824
Ni 6.637324293597736 3.771594794554042 2.500847345193141 0.2208194521173552 -0.2979126948569321 -1.2398911024913548
Ni 4.847930359688134 0.3796143914606391 4.844183922440942 3.0485238511059043 1.5118953050126414 0.6620168979392728
Ni 5.623546118127646 7.451141912156261 5.3459778923941865 0.8492837109121631 -0.5711042328181004 0.3577314667867775
Ni 3.9049509983382245 3.6650001737634637 10.462275397558834 -0.5266907396997317 1.2644903890972738 4.044918371597364
Ni 9.229657903271358 2.6810625922135585 10.133359594397069 -1.642439982703139 0.4016903888662308 -2.226552197745133
Ni 6.326381064395436 -0.014386540275514661 11.821724173672909 0.3258575008963162 0.09945644092612548 -0.7599885267897556
Ni 3.2995473888459785 6.880603031179969 11.441779756490199 -0.9768909032408918 0.335036596292423 1.3513545951806856
Ni 6.877450271488679 4.871345592483089 4.445161621687697 -0.314735937061858 0.03842050875972738 0.9666008341687934
Ni 2.1530029997093743 4.271085959329263 2.1273789914113985 0.8224812460073384 0.5398051655945025 0.31431350481245873
Ni 8.96308377463682 0.062339830808112486 3.7899195188649917 0.002693487671763103 1.7702302375769512 0.7087451552337471
Ni 8.983549056843435 6.681333868937546 4.139262807991459 -1.5937672000877843 -4.012225509350032 0.1591425439328485
P 2.330562369340726 4.817582743010578 11.812926867902739 0.5929069305154886 -0.24009115586277363 0.6230929671805655
Ni 7.455105908259344 4.394559828642504 9.98289275534095 0.6747873102310636 -1.3281321343176353 2.1870891066535045
P 3.314481513699454 6.34839507066093 2.7807589379252136 0.6638904608129018 -1.7768845096686752 -0.9648090323756933
Ni 8.352748216504692 8.185034306961928 5.780782171924447 -1.2451772905909586 -0.8902794365982345 1.3694417916996995
P 0.2915851003258723 2.3080597775090386 7.885372795040913 -0.1601920682432854 0.40438001988325195 0.21271276384982074
P 3.4510273515572796 8.099476521304455 5.8287474466313105 -0.2470503607894261 -0.5731462029487936 -0.05798583248616466
P 4.5918377742377965 8.478895478538616 12.994856836206052 0.02628824427256763 0.4225222380099175 -0.8069055030562685
Ni 9.380289755188508 4.30650380358053 11.812778448513765 -0.08629213563002558 0.11633804717281254 0.46509713525765056
