# total energy = -381176.00981054537 ev
CRYSTAL
PRIMVEC
9.13617096416824 0.00000000000000 0.00000000000000
0.00000000000000 9.13617096416824 0.00000000000000
0.00000000000000 0.00000000000000 13.37170970437275
PRIMCOORD
 96 1
Ni 8.327519319938132 2.726361316856284 9.967205278447784 -0.5029923676415273 0.9960358516004587 -0.013438127782776855
Ni 7.2029297657802385 1.8274169127373179 13.022520825555773 1.9983755339317584 0.7817580572563633 -0.5219784218257268
Ni 7.56576365875319 3.6525589189089342 7.170325512523136 0.5163479630128269 0.7336020663764268 0.01056492000003987
Ni 8.669933870845451 8.453479708778795 3.5787779431955418 0.2672270928476172 0.6935895305392313 0.4125162758371412
Ni 0.26680816823879744 1.2694800891998952 11.686486471861238 0.4266586287757942 0.3878000040373838 1.133697599951712
Ni 7.460176931123427 3.5884138626929123 4.270803606864811 -0.06766732143998667 -1.1085252144511424 -0.4270378664920839
Ni 5.208220426839875 3.70768657440067 6.81704439989194 -0.8808298611495603 -0.9845833867891431 -0.707071109965434
Ni 1.6638063634257496 8.981084444773533 2.555882194227068 -0.1001238993067953 0.179396151975562 1.0226349422452257
Ni 4.245998902744813 2.0013513352185353 9.577647171838956 -0.9206773321638014 -0.31894946092257326 2.0107672227278917
Ni 8.113385745291911 7.285100487273885 5.976445410672099 -0.5416633018491639 -0.32094849363047306 -0.5274001070619304
Ni 0.567755466453725 8.549391231376116 7.906879046151904 1.1103789798304295 -1.4443837924242287 0.1948867914119934
Ni 7.018223797752989 7.58983746919746 2.0174300824674423 -0.8406489180553007 -0.2336430862445847 0.4171357768870235
Ni 3.8578212715660154 5.886307034495928 10.41113273835978 -0.6532139549356621 1.3007000062486114 -2.7004183374446655
Ni 0.8323563357918257 3.7436739517592956 11.482982832111377 -0.39950289429660873 0.8913361599975229 1.71802938720368
Ni 1.5474115455661683 0.830398454357971 6.26325539796427 1.9826262415173017 -1.106859139602629 0.7078141587790455
Ni 6.193026565514912 5.499883548138876 7.773710218434379 0.2280249687268589 2.310298427024853 0.30279676242211073
Ni 6.794524652125685 0.9097132088137143 3.924463243301741 -0.5465882499546071 0.4320474038915334 -0.2258721840499142
Ni 3.4079836226686684 7.863410972022208 3.825566020039072 0.9671585064444762 1.6063962017057043 0.3904999194670501
Ni 4.244400072829159 1.3529572831389056 1.9583135747404243 -1.3027712869553434 -0.04258569588101053 1.816327546155646
Ni 7.118274005789117 1.5582196357959868 7.844566705827768 -0.432560596082526 -0.6649564401835709 -0.32189028871845204
Ni 4.267834351307168 6.878495199295813 8.260747614574965 -1.098529022470379 -0.3687561000320552 0.5478002679848372
Ni 6.162612252433709 7.183652445082928 9.979494341988044 -0.17561380211499433 -1.4481908248751447 0.00881117053372676
Ni 1.5579820953513752 6.1328648798316046 11.13970399943251 0.21745027853480614 -0.13423909582294946 0.48425108247828214
Ni 5.653151951938902 4.981990561860366 11.32963585724121 1.0654535800726488 1.5576308593765433 1.2071663585648242
P 1.8887480283017895 6.496365713283658 8.744964674744336 -0.027079629825611427 0.2547904097461612 0.28172168691936644
Ni 4.04178720974659 5.834788166528096 3.5782023644259064 0.4322217246858685 -2.3940539122759543 0.38846437709425996
P 1.525027926747018 8.307757782180653 4.697067193868666 -1.0788662539341292 1.2559188453781789 0.8764314749715487
Ni 6.217831269634909 9.070079885964285 6.322491589530688 -0.8361705705689728 0.05873556616799561 -0.5447830784250682
P 5.392835033157659 3.889861823075713 -0.014994283757546675 -0.4141586965365706 -0.7993276907090104 -0.39404984160183754
P 2.092649091487828 6.903473490663794 0.6152827413349908 0.9184836669465923 0.6406353469397031 -0.4908115093046192
P 5.023267782197069 6.849496992711329 6.1817013680095165 1.6309155270033076 -0.41581757229623223 -0.4275711132877346
Ni 1.6231869473972018 8.710882189028077 10.578693767988655 -0.5501188888156848 -0.6837936274947319 -0.8651949828257808
Ni 0.25372791229456176 4.963416726325944 13.343842698598696 1.1279954073606122 0.9076122714497271 0.8307072334615564
Ni 3.5453916337054108 5.825332229598374 12.572576283458352 -0.2873151218467439 0.25299577973958365 1.9331978116828448
Ni 8.437089418100609 4.309796784464865 2.1127431858677626 -1.9786541442434307 0.14389744484831993 -3.5893173487556056
Ni 4.00063789580314 1.0110817663174358 4.833351455878978 0.7177622711306929 0.038773007003139674 -0.2945728318504217
Ni 8.548267482349686 0.30979385254251246 5.934992775853222 -0.6195939528883717 1.2823978655053139 -0.2692904031345491
Ni 2.2101767945447865 5.092940221835779 1.8311892377211656 -1.2041715376025584 0.3886428116536533 0.13026314189433696
Ni 5.688280529228549 7.266563196423251 12.528543593964157 0.2548282049626321 0.08683798083116658 -0.055541998931362406
Ni 2.90131899048352 2.908947693223924 6.061449258776285 1.8344859622322278 -0.016745337779138905 -1.6997329028873371
Ni 6.070053704573786 0.574837826171523 0.9359084381517827 -0.2051146397875887 -2.2725461479767444 0.6511416457876656
Ni 7.437345639927893 8.209909391342654 8.133784074164366 -1.1624767289669335 -1.2672273284124627 -0.5029450593433596
Ni 3.604164621404837 5.282872079644478 5.852984678202423 -0.576794341224342 -0.14014774799790056 0.28865980880009645
Ni 0.5277052338751499 4.114063458105079 3.7015571173126016 3.754945243302481 -0.4193577242390068 2.994632757514404
Ni 5.182246292838714 8.989526266728182 9.003145556758268 1.6998177492916595 -0.13179577648877946 0.13791988710864636
Ni 8.767425951016534 1.9973131476601413 2.8935313183686446 0.20420678326133865 -0.37405617208873 0.042507534344907436
Ni 5.00015326970219 3.372955543259435 4.1517958441145035 -0.40692309802007987 -0.016133929447385117 0.03799036320084425
Ni 4.199870375635471 4.007919424047574 1.8065846157448988 1.1239667458171934 -1.0025908791101572 -0.17034484040657116
Ni 6.752836304096387 5.352215617129111 0.4217247372775888 0.7888787274615446 1.6516339904975814 0.753946948581366
Ni 2.089606746562613 2.5297417819146792 2.108879499174449 -0.7652556887259659 -0.19985776226402352 -0.8203287184407096
Ni 3.9305086476171005 8.20570675270722 10.849403994838742 -0.47311897712086254 -0.4319059932176626 -0.2896324571260108
Ni 5.594653049367874 3.838489133843027 9.2585718832318 1.0665686675136987 -0.5720745671511697 0.0036890188158130014
Ni 6.213034779887948 7.7250436630360735 4.409495249919549 -0.5515126838394179 -0.9533007746257774 -0.6049240095810228
Ni 4.625944843900732 1.343793703679474 7.444819941379301 0.2830640598798738 1.2963134471451419 -2.907346376291909
Ni 3.5724164273654297 8.311229527140359 6.471385594681486 -0.2770829025957744 0.5144525457623269 -1.7343561493881614
Ni 0.35872444328117487 1.890191543311351 8.04876652180376 0.7318511451235912 0.23264241289421225 -0.15020281824105744
P 6.30862653650214 2.2458352697493353 5.593680047162062 -0.19805464761701375 -0.7931899532423888 0.9397369198984138
Ni 6.6101841309363 5.359862592211408 5.335138286395741 -1.2628335702201412 0.8632252606939197 0.9874699643083187
P 2.701309936120729 1.1618011784233628 11.428680172856119 0.7085530938275991 0.48147866193946753 0.9838220831430862
Ni 6.251086931880504 5.270885423362549 2.820013464378514 -0.8123577844200913 -0.1504308750914635 -0.1777107938533391
P 8.979065350994336 5.275873772699388 5.580134760116644 0.6518155319262388 -0.9077809358171076 -0.5906626145660021
P 6.688682111709419 1.3111593010582476 9.915737573037253 -1.655809719141826 -0.5173177831252639 1.2378391050583326
P 7.771099100777843 7.672510680093169 0.07293770713502201 -0.4094931727401012 -0.004097052887509073 -0.5257067785199075
Ni 5.450201050531309 0.5662278986714547 11.703882654960646 0.6953947020687701 -1.444538829944854 -0.2611595464972986
Ni 1.8387092200273054 0.4360082269354907 0.45986276927704217 1.2164038180026921 2.1057193480257608 -1.5724255011872146
Ni 0.6408347842384191 7.968047537873526 12.703899604644663 -0.6282871097869954 -0.9481475125596123 -0.48453956025297834
Ni 0.7638414490120489 4.6044748421762405 9.25819730022299 -0.79159664061334 0.6815845356585551 1.1098950982154756
Ni 8.642735489937447 5.771903901902704 7.628640614441824 -0.020124538664016953 0.5368977621397205 1.2684953964916088
Ni 1.4193863820915757 4.131047599894794 7.154626829985606 -1.1716206002497307 1.1348150013856069 -0.6615674691066801
Ni 2.9484799049098274 0.08069522988577323 8.40759603105082 -1.6773470789929694 -0.8611974316306136 1.7590418250602997
Ni 8.963780537000687 7.086105547886167 9.924643512475992 1.0873089853848437 0.5151032919724483 -3.1281372891641737
Ni 8.541397081797848 0.2474559309397264 9.64927932014571 1.1245688981775666 1.9859470783604187 0.1282931626521597
Ni 0.03509568707423824 2.688446207427928 5.8239809899153725 -0.1602478611818853 0.35440497351670575 -1.004478068830541
Ni 6.470227128205458 2.8545874760917016 2.0598986594955804 -0.3379735674335599 -0.19586098239980462 -0.6287342246267429
Ni 0.22727869740417814 6.701491023376541 1.801049009768359 0.29966515877166455 0.8172585641558184 -1.4882480979073465
Ni 2.5200117598565592 3.5675651205927896 13.233473185478392 -1.3498124475045463 -0.12083953458759189 1.1895926113471191
Ni 1.5265262587822594 6.820644964861992 6.4103577999924415 0.17182168206241377 -0.6557264369448708 0.1452056221367822
Ni 8.792431650897356 0.4829242919804296 1.1253295840045678 -1.2981042204969773 -0.6090274902264351 -0.33039601219661807
Ni 3.7968281943265674 8.563945151694037 13.246885084427989 0.4059627909893395 -0.555497636629095 0.4014646460086699
Ni 1.5764554330053842 6.272995469810431 3.8902985320469603 0.046396070766036225 -0.10353086810581524 0.545514557274454
Ni 5.752818440795274 2.7472100589564072 11.4271955450773 0.46849227698212864 0.3525049282805155 -1.025516120447763
Ni 7.900512962236318 6.238351109580955 11.505099674738888 -0.8496158974406013 -1.7555628653727637 2.274201681302296
Ni 8.203495799338146 6.150552506784206 3.6681945618669314 -0.08849325704640243 -0.4649557245837799 1.3088056660748815
Ni 1.8190938610049727 2.6672046099771016 9.975255158668826 1.2027710577106059 -2.4811407758931336 -1.410669688001235
Ni 4.303200469041426 1.9799087420068837 13.127448835260285 -1.2647117610794605 -0.034992199804468764 -0.01347412322703486
Ni 7.717341870928096 3.9900856183598266 12.17282860539279 -0.14817756028091253 -1.4159093391336195 -0.8584183262235796
Ni 4.406183387951409 6.459647442249305 1.3474801486564238 0.2952459466580464 1.1890675920815845 0.11253101472189653
Ni 3.519490589071823 3.8188555024788005 11.253176156206276 0.11681807213302461 -1.1243871211840637 -0.9411116887587533
P 2.61482694194029 2.137900546186298 7.949254434236386 -0.6036109471965541 0.6317809818728668 0.8828731168318344
Ni 7.506214096523304 8.498338308126561 11.379872920425237 0.0016794445849519465 1.016076829411734 1.6222136283539352
P 5.081373829417393 8.57165607997296 2.6662389167080467 0.4612926739098959 0.2780591504661147 -0.3422356851440235
Ni 1.6844267012522076 1.865560426439339 4.338838844669891 0.033758327397367664 -0.06290126750991103 -2.008159609901716
P 2.8462826967012496 3.7574330252048633 3.779232842700526 -0.04767082371340177 0.6289651096906265 0.27084103545112065
P 0.1357607594150721 2.7013647531464087 0.5595301717505082 0.09543266447871306 -0.10140096624700602 -0.13219146926530137
P 7.500202496040446 4.867148893061706 9.540580812691537 0.7400827890047641 0.8276018550633554 0.42416285893713407
Ni 3.3784007011436032 4.267971393871367 8.636038676633595 -0.5194230023937247 0.2984256299376086 -0.48737831525335423
