# total energy = -340894.7230039908 ev
CRYSTAL
PRIMVEC
9.05690080554757 0.00000000000000 0.00000000000000
0.00000000000000 9.05690080554757 0.00000000000000
0.00000000000000 0.00000000000000 13.25568981448843
PRIMCOORD
 96 1
Ni 6.067987635560763 2.0518589741733946 11.544062429605205 0.638407486050449 0.2271258539513572 -0.18475304541210116
Ni 4.490393268111607 0.2036570925741226 6.138166842246986 0.39987313315183387 0.36611994796078884 -1.1103105884863393
Ni 2.8593360156535104 1.6717680212392565 4.684374873635915 0.5828798852967897 -0.5054050908480779 1.1120260285155494
Ni 3.620541351304272 4.232027060988101 4.900244291154313 -0.9495780743585517 1.4808294368457724 -0.20456622348328643
Ni 5.105728160605668 4.586758691878358 2.5338916846537183 0.7159833248533991 0.2589393989175282 -0.39269409890489143
Ni 7.256660571864071 6.180338489115889 2.6656134374900784 0.17208059215075525 -0.8402372844391787 -0.2543044712486781
Ni 5.196197541997217 4.493074110727674 11.684227930992106 -1.4307569456694131 -0.25137778452018644 0.3838088806001196
Ni 5.602462938040933 7.933247283994836 12.422145257795927 -0.16874252891645777 0.047768011412898374 -0.34321064746278307
Ni 1.835969631473391 6.59831445780344 0.4383938456931683 -0.843700817507747 -1.2512178403580838 -0.11598940558414218
Ni 2.598995404170874 1.586524471568894 0.3239653391105898 0.2634521991862172 -0.791228972861276 1.2319615632316332
Ni 0.7761564673757757 0.12400165065414392 4.798625864964187 -1.0475885268667702 -0.5125638133800463 -0.1912723345878577
Ni 8.757905266159682 2.5522436826028323 1.5504381563004501 -0.9073986127770244 -0.17787868688977107 -0.00627760547859564
Ni 7.071872626270743 0.56758872322587 5.162004118981334 -0.9615465595743377 -0.23540094947595586 -1.6881068886126347
Ni 1.0072451008807946 7.559025202733711 2.64253464305 -0.8619505077465542 -0.5926387644557665 0.878129688609578
Ni 7.744709781499306 3.830299172210094 3.7188838965003725 -0.019612889134921062 0.073652335378828 -0.2671237345005335
Ni 7.643788736665386 3.835543117732739 12.552846297920022 0.13019552188119513 0.056957134111334164 -0.2595940017823916
Ni 7.700086431602804 8.652147836335965 7.269247852498566 0.26642747976445724 0.5523909726793133 -0.01577371789448896
Ni 6.787522170952988 0.7850440040620832 0.22952088398866302 0.5450170488127453 -0.9318672873423499 0.5137164389272507
Ni 1.8727315915362899 6.4474446054438035 9.276901905589183 0.467203382967376 0.11974013087582602 -0.36747569065773483
Ni -0.16293726689223242 5.097314299827538 1.2445422398361992 0.6010498713375971 -0.19355033198875696 -0.033829289844619165
Ni 6.344521985548563 2.0036581484885594 7.021339648647943 0.5285373059901671 0.5231963533932279 -0.08114890086618927
Ni 3.4970505098512974 4.297426941159126 0.47645094256045084 -0.3584182084411569 -0.000886773480327505 -0.1937879019208598
Ni 5.984166019305003 5.607734054265768 4.639478005337368 -0.22054794362352342 0.38392766556617103 0.8238992094007876
Ni 5.377534808412431 2.931492343769084 9.190634020446263 -0.8341124024883636 0.23987106943216752 -0.4245858054071655
P 0.33809682131954283 5.477323740655105 12.334432796986578 -0.39085344615172685 0.4344629553115614 0.8628707055679785
P 3.926836677090714 6.118461743328817 12.571046139936872 0.017048727952170637 -0.5894935339585654 2.028205215698681
P 2.252143276915681 8.642746773378269 1.3959564119297063 1.3183295464049167 0.1916271468241151 -0.4889160920541193
P 6.243347347494205 7.664945656770567 5.756707391612551 -0.34388839025609813 -0.19258179742790058 0.9305637380395779
P 4.481408822587489 0.8113026763484499 12.631333399645834 0.8618823735127801 1.6394148227235699 -0.2952721719102915
P 3.9680727461142116 6.118959872868965 8.257883739449516 -0.26804290388069324 0.7445709066831048 -0.31995476225863606
P 4.809938839665977 1.0286737280078746 3.6853996288116453 -0.3377676220703409 -0.02402593060095217 0.9990383858722085
P 0.29822562723604973 5.747355235918797 3.786912089263231 -0.2910555627257826 -1.1176608582038237 -2.054098024305043
Ni 1.5433049412855353 1.2318109544800975 2.764831784986766 -0.004940117614094718 -0.8197419926993043 -1.427608886958735
Ni 2.1029489511910864 6.497212274954921 4.749394363976283 -0.8855190390951136 -0.4968849691922087 0.12066007158693413
Ni 5.923611581024505 5.5082258859457225 9.182560699135578 0.1549192498801203 0.692511209873388 0.2015498052544658
Ni 8.605631594186901 2.324190922222495 10.381246039195855 -0.45570463829915714 -0.11686203799708261 -0.3434057941927247
Ni 2.2787705650617567 5.226655899152065 6.903934138795427 -0.070599150374801 -0.2523422053159847 0.5883414226319932
Ni 0.6737283542603911 8.919815480509136 8.678208162496347 0.22544872335925042 0.28564004813716615 1.5051932104021175
Ni 1.4693191192225101 0.9674400221726299 11.464461329089607 -0.555269836889005 0.04037866092736272 -0.1843020739176116
Ni 4.1476167461848945 6.929253610476097 1.5102735186333065 -0.3253227114387688 0.39080716629482376 -0.06853404031565616
Ni 5.539771071188164 7.89380448131587 8.133836804291722 -0.4063643973031324 -0.4233447339112128 0.09639682816419527
Ni 5.423208758793608 2.90234723722008 4.633565660540852 1.254119587385911 -0.6341366265892369 0.5455194423704605
Ni 0.6430136868148854 7.3611953200892435 6.89436371179408 -0.46952380357043655 -0.9129925619250341 -0.278127798920521
Ni 5.1645074463430936 4.741215076927057 6.9624054899080345 0.1378826061128077 -0.6361953088904785 -0.2252561477324701
Ni 8.28213721391427 7.024758628673502 9.25980157132095 -0.3408043520141356 0.2847622735179031 0.24645849284169813
Ni 4.650356248804121 0.39030804264760344 10.420934283884602 -0.918894529231766 -1.1995695200541727 -0.043251354489467445
Ni 8.168953125491987 7.2553020367545775 4.750097179472927 -0.012564724038888036 0.1828735690012012 0.8206346797169027
Ni 7.377959643340395 6.109096907974041 7.00754055469578 -0.5370556278738234 -0.12102593956678512 0.05767344345206841
Ni 2.2478774766718708 5.190899255070191 2.5203443725418477 -0.029952323387716157 0.4549523335141649 0.17536903309403992
Ni 2.4202936958680774 4.956923281612462 11.320995493076712 -0.2811205630002578 0.6301465315932374 1.0447767684495877
Ni 1.195710148170486 3.364964669605593 3.7705942712180662 -1.0832643830018247 0.6294852438601547 0.6624195326943301
Ni 3.6451036660839176 2.876462614933861 2.7766166242165866 -0.3732694145213765 -0.9505005861728212 -1.044553082474556
Ni 1.188555196593819 3.299773098151357 8.271828649503432 -0.6616731414466088 0.6543712084685569 -0.4121357525692708
Ni 3.9109871008132875 2.6533096378484307 6.8039993904510006 -0.49747786558120133 0.20495934515664702 0.5273368579241628
Ni 4.034151893839984 6.822880311402743 6.077442134232766 0.989774186961463 0.37176583339265656 0.05815501107417727
Ni 0.6737491851320702 7.3833213285725305 11.398766193954787 0.4728963195870953 -0.10846095841758095 -0.46925049530439183
P 0.2574686682611667 5.496832304827435 8.02553800812318 0.491768731011566 -0.20816293969560923 0.20900111932618842
P 8.581250417421856 1.6427587682012017 8.139921230202107 -0.5362418737232765 0.053304882070727554 -0.7508870787091196
P 1.7175778251313831 3.0656884418848684 10.425785159915568 0.12342657858847775 -0.13375778531115673 0.10117290939659995
P 4.016789815140655 6.150505058111408 3.6282542079659037 -0.4017279269723856 0.16044917855941399 0.5096492108364127
P 6.744773599507587 3.9003180717533974 10.433752515487711 2.2485312731193856 0.37894666741181193 -0.07997287828021711
P 6.3493583705383605 7.782549512749069 10.2453753201351 -0.08093832751727997 0.09902629536724236 -0.43509030448291525
P 2.223614039616314 8.411442585635879 6.027136484818287 2.5354465884245494 -0.11507332152777602 -0.7836884415098568
P 6.905488302960688 3.996710666222338 1.3954003182248869 0.5696657005993608 0.24881825132312632 1.1909295849909878
Ni 5.331552923406435 2.689066281930304 0.7032737758216595 -1.5646101189078538 1.0824501146306453 -2.12229396455499
Ni 1.5839251410593962 1.3231135707388018 6.905458415188279 -0.07663224394275835 0.027262178150062724 0.1626857811994166
Ni 6.739203605558663 0.8324333314415143 9.282535297843216 0.5805003293210197 -0.14987140304356772 -0.48517616539571284
Ni 2.9483744067297253 1.8383968808690196 9.122870289184718 -0.5826849956771643 -1.0740199815854214 0.06729631125381313
Ni 6.459725762833626 1.9502043203803485 2.4495719388578117 1.7186703632217886 -0.46869153747712833 2.1143428280287133
Ni 4.147689201390734 6.748785806530958 10.630480173313343 0.14572241387220067 0.8998184864369212 -2.118492331420713
Ni 8.034503434155765 7.403128770468948 -0.18090978070076064 0.22771772189908523 -0.32335736018228184 1.7729226968074498
Ni 7.824021061191546 3.893769932525638 8.371895628598516 -1.0204549038747717 -0.6253789350012648 -0.6713592583861213
Ni 3.0922251610236446 8.171751707817544 12.6056706714275 -0.03459213615257268 1.1189204416425376 -0.9804076581448986
Ni 0.1784924938959349 4.671449770604193 10.282504990367634 -0.5827392459538674 0.7463452249747081 -0.07149029473050268
Ni 8.503560322960277 2.31884735079182 5.8045341672972395 0.7794389222048834 0.6904754103902818 0.1827378147542853
Ni 3.493137928735955 2.484624861752967 11.520241874995344 0.8233520786480658 0.787915849327643 -0.0710516645311873
Ni 1.0292714834560517 3.271805388697248 12.695438143012476 0.2236553789042535 0.45498035853862284 -0.3172391630996859
Ni 3.0846264213112105 8.529372490040657 7.967040391998456 -0.16461745100449068 -0.6555305188839807 1.8376005966018096
Ni 5.492738585697493 7.882528639907074 3.5917087078304513 0.7153778300589164 0.4584639462118491 0.03282810227361443
Ni 3.1825858596064336 8.377225614678096 3.73842234844511 -0.2591653988854053 0.7366151421711379 -0.38132493783600135
Ni 3.3574564989004583 4.292699238978088 9.168483558331005 0.16437499597638144 -0.20689307184425013 -0.0449372268323226
Ni 7.144219149301645 6.1114426452631 11.382660307386702 0.29986236238413516 -1.0414888417269355 -0.8624480162082631
Ni 0.18744886302779015 0.19585366690519096 0.7267003552497682 0.6307461128504491 -0.04454924736528457 -0.21446111399949516
Ni 4.743932147146045 0.5159073305905119 1.551074856421766 -0.9409602507825537 -1.754523625474972 0.21227053410607957
Ni 6.085793502395859 5.795248126978813 0.350293749532577 -0.1067887129214806 -0.7479339096180667 0.22573051626572738
Ni 7.958090362697111 -0.053592398689379164 11.252675668110347 -0.014245197065104501 0.2858771038486367 -0.09008631256513518
Ni 0.062371252566927236 4.841384399000391 5.7290829386961075 0.7137102125485063 -0.3584919991018858 0.5021004519548773
Ni 7.871243741597546 8.490708580824467 2.7381881944193758 -0.3935343354179997 1.6520358539216902 -0.28309979821381565
P 8.551978514262633 1.3964563528499998 3.6180742515454316 -1.0321241126825837 1.3714711634249026 -0.4890076233266611
P 1.7485343118263788 3.2041865678473824 1.6168895426462235 1.0669401919205044 0.7803377798700689 -0.48986817155474344
P 4.689717539376518 1.0881866227044272 8.223750091978452 1.1843406189195602 -0.8070831662847132 -1.0290565295008536
P 8.500634944024501 1.7236459486204547 12.517374040521068 -0.11150128790580151 -0.7796587515251734 0.30931939403197695
P 6.347465478285799 7.718861386816006 1.3535782677241608 0.1285911535085527 0.8501514582290971 0.12819983160740503
P 1.853992863926007 3.253410823314703 5.878407683791213 -0.016907317278299916 0.24234858443838259 0.6217529082129034
P 7.042673178317359 4.115347008884055 5.915483918309441 -0.6533939321569522 -1.0717409557432576 0.14619986772925145
P 2.2732277418150226 8.397775722434371 10.252679710573812 0.6034944762233476 0.15701829850099408 -0.18053566489664394
