# total energy = -340894.9798919717 ev
CRYSTAL
PRIMVEC
9.05020548183811 0.00000000000000 0.00000000000000
0.00000000000000 9.05020548183811 0.00000000000000
0.00000000000000 0.00000000000000 13.24589053146463
PRIMCOORD
 96 1
Ni 6.354140287454628 1.6900987414328883 11.245456931143167 0.7784891566971044 1.6436003215598276 0.9917516224028081
Ni 4.534008192249482 0.35529568571808257 6.305652906039661 -0.07479853316812923 -0.2228688784472162 -1.044485462461414
Ni 2.9322937585100703 1.7607898972176255 4.812921047893618 0.7342684963158322 -2.003900063294413 0.5836010797335304
Ni 3.6682745766801363 4.3518185037201595 4.922106348091977 -1.7196370980104319 1.4556848192593448 0.05458554855536406
Ni 5.151910978218362 4.384344942574384 2.7766166472271165 0.4815923046991964 0.209740054374742 -0.2766237035711687
Ni 7.460527919599565 6.205155803198024 2.698584869696508 -1.0124973395905918 -0.08831276560448016 -0.5406474589901399
Ni 4.950607255504253 4.429595970473972 11.709817549325397 0.5484201609570232 -0.021616035607878902 -0.9958036809849946
Ni 5.3765461309175 7.928667903631967 12.396683806833806 1.587946222530633 -0.8070710820998552 0.7252691210306994
Ni 1.8071903012258634 6.439863834707608 0.5331141249523053 0.26220829947678714 0.6190594205411403 -0.24070487818737252
Ni 2.79927383689644 1.6252902192750978 0.3105514693309695 -0.7228481702940326 0.447098641797701 -0.6467412027271249
Ni 0.31088451689631047 9.233834251134216 4.867547183753443 0.7315099597340886 -0.3572570982535202 -0.9563141075308046
Ni 8.617062740862826 2.3328624421298025 1.2548028584705655 0.15549697676046123 0.11058006164311278 0.47561294718730995
Ni 6.741661040181124 0.7866357238214234 4.807516265121292 -0.6555328328768258 0.2941977078991901 -0.19055628235743957
Ni 0.9463799974919925 7.60181972911324 2.684332605949254 -0.2537933359402145 -0.6949738124812675 0.31017171472994326
Ni 7.771049523252121 3.9465774484681857 3.6742377571367446 0.05436083413906767 -0.7174534816410225 0.20226174371982586
Ni 7.391094742390437 3.757437202053486 12.580920651865307 0.23520374586348525 -0.16889062445854783 0.1661752824099138
Ni 7.990218351780988 9.086858912516355 6.925772992375621 -0.5003497878123576 -0.28469182529128384 -0.061384059534436215
Ni 6.819348004879137 0.7243259634242482 0.434299455327974 -0.16898858348899284 -0.7417727751126774 -0.9788156310674303
Ni 1.930825159653119 6.505523076189911 9.304562512761834 -1.3907636931059273 -0.8397063516363733 -1.425799601664138
Ni -0.054159145251901415 4.838683363097412 1.5111173507816462 0.8092608906623224 -0.47093276810282114 -0.5023614189257478
Ni 6.258733020231136 2.032341315643056 7.081822972128468 1.53698207277794 -0.5414059344227192 -0.8299947807755641
Ni 3.250924346362232 4.297001408522598 0.3236769824835241 -0.038957869320436135 -0.30661999282294294 0.6542452244136538
Ni 6.169389390746188 5.656179382925797 4.766798485196683 -0.026033190838968066 -0.2842387969142653 0.8032586503323005
Ni 5.534698473426561 2.968295476306983 9.086310470058212 0.33258659209003366 0.7976593018676521 1.4224630810917374
P 0.19517854357762082 5.550011421267782 12.555580981262095 -0.4718673641019486 0.19262473485069406 -0.05452589896202222
P 3.972705391977408 6.195182476648954 12.651653438595712 -0.6378030196972306 -0.1331286363675901 -0.8348464524409105
P 2.3521846310429266 8.501419213962638 1.3692942942004303 -0.08203078925051033 0.04306237840711294 -1.1526294038592084
P 6.3567105458393245 7.950687053807908 5.824350303011827 -0.5480172690916497 -1.0006844061160638 0.9881068265613692
P 4.759294959750374 1.017912822395662 12.566243933476354 -0.22498592479021895 0.32299791996033406 0.4056383177703853
P 4.071244030331552 6.201743875694394 8.164687309930082 -0.18210018117028637 -0.008202076194818133 0.12444165011655342
P 4.625949230735866 0.9684715493125716 3.6563165400473916 1.7743941391466538 0.20296005533843114 0.9351210183929572
P 0.28866897725928653 5.731449942733972 3.6163001510552273 0.23177620823917505 -0.8628339387927721 0.5441084209555468
Ni 1.4426842212890985 1.1022878890172345 2.614699419196809 -0.398391663510301 -0.0776570856628469 -0.3782285582988647
Ni 1.9724561053207403 6.432451716337656 4.930027993036079 -0.0797183390672498 0.2879267872888138 -0.5753969466561832
Ni 5.942455485829753 5.525919774014041 9.27789879708228 -0.18359733454110316 1.0018498871790746 0.10033755797949817
Ni 8.784419142446666 2.3894533776210274 10.151094307152267 -1.5731680357801938 0.46587900772899765 -0.3415813393894762
Ni 2.371072410088215 5.3194574341193785 7.0943801323706035 -0.5278716473817102 -0.6814816915321037 -0.4115150882661365
Ni 0.47364250902499216 0.2458750801746457 8.81609395695582 -0.48715180106484485 -0.9176200333947163 1.1259781198202672
Ni 1.34026304474117 1.1727527896624736 11.331038390168542 0.8839696923301228 -0.6458390026278297 0.3462684604525004
Ni 4.0968018108892394 6.628207663031276 1.6026067840095921 -0.4059589343345976 1.5716060906097127 0.029960808028148402
Ni 5.688950177330678 7.869850617568083 8.049554214624601 -1.0847579368282156 0.3419523495756498 0.1973187978922537
Ni 5.220230980141161 2.8524799955007767 4.946293927524865 1.3839577259276876 -1.394810095261159 -0.6586855195731945
Ni 0.7819413821871202 7.488131046618315 6.969471004997696 -0.19910931413377322 -0.6028249609601489 0.2262473080011458
Ni 5.351630914955987 4.702043359251814 6.969947950831757 -0.6380881550378172 -0.4026013307162744 0.37243406310427474
Ni 8.376571627987675 7.234345181746263 9.327331924980347 0.11389524205927481 -0.3558666456638968 -0.10483955961490976
Ni 4.658620472879369 0.1518515893843229 10.460160637747572 -0.5377107449593191 -0.4173928872031521 -1.6405733618080454
Ni 8.217849122527078 7.217638502245735 4.978984175100086 0.1753957725669173 -0.7068088574429826 -0.3534978883214041
Ni 7.324403777472024 6.344728073651514 7.260073106168853 0.4621213404587783 -0.018794506998683763 -1.253153881038532
Ni 2.2627595497077597 5.179061594958116 2.7637155791729433 0.34427045618586516 -0.6250400636046074 -0.5599428168846421
Ni 2.3112505512049593 5.331394655279291 11.42409079390014 -0.10259344389321041 -1.0730046529470294 0.6908834444619779
Ni 1.309257040424372 3.0406880707407447 4.01077598676989 -1.6996174603553955 1.5821134178989396 -2.0170396860001647
Ni 3.7012535258133568 2.5808471252251266 2.573676647344158 -0.7986399206133665 0.47721577289805556 -0.16757241986775656
Ni 1.1266781930551129 3.407049442821392 8.30241786354806 -0.05649356421135432 -0.058719111107763386 -1.2530281540939452
Ni 3.739499694594089 2.614486739365681 7.058417330457686 -0.6624110480538979 1.0059981050194933 0.34006978784095626
Ni 4.175647201901482 6.871269034291125 5.970240521980658 0.5593182959267657 0.35595174917853534 -0.1804500471613731
Ni 0.7540721791243217 7.357147421260166 11.415679532834165 0.3354916815519706 -0.4336252899016145 0.6337866994489859
P 0.2124970169753513 5.501221762986445 8.048785852170868 1.0365818913436213 1.7130972400093851 -0.5587917339993345
P 8.401803601144485 1.9348163003138628 7.964780938957513 -0.2307333687969575 -0.7907101242433285 0.20288009403011512
P 1.7695957472468855 3.2407971663183046 10.44596086519268 1.8001967020320546 -0.18813353184855988 0.3248506568983567
P 4.225540985263568 6.162963744784447 3.6755627072336443 -0.8809959544137794 -0.4919749334851011 1.5082291690149638
P 7.101569615683291 4.139238224853473 10.449325731627294 -1.071520097981703 -0.7639032884631295 -0.37209287771477206
P 6.455348736454847 7.7987431523266695 10.19042107047924 -0.8426970588335809 -1.3653223702146873 0.848603397015687
P 2.269863961087995 8.50997165823566 5.558107735179576 0.8762540688534198 -0.02770672188664906 0.7555808846403633
P 6.935353540002522 3.9370204313757924 1.5452918320719733 -0.20523316764332394 0.031006475683843373 0.23199475200788433
Ni 5.206909077527522 2.854507241550678 0.5464921388405396 -0.06077496519552758 -0.0022036925195381405 -0.6764965796126865
Ni 1.4584768300260549 1.017577964789205 6.833926076027269 0.7500553268364437 1.1985994428314197 -0.001921385392428949
Ni 6.889794805113216 0.613303471493166 9.27089122290175 0.41702701922330115 0.8776123826535274 -1.3053966403933326
Ni 2.4556827820548657 1.4310275565021646 9.117358105320676 1.5581587068555554 0.39093057924656544 0.21170154897648705
Ni 6.411835348026604 1.8586769207700151 2.423826058413555 -0.13239330086346232 0.4113315115004206 1.6275941759395582
Ni 3.930151325340635 6.780441171091071 10.359505156308286 1.6166726439310481 0.663703027392444 0.6117479744813916
Ni 8.152325634128474 7.232869998236736 0.4365194707567278 0.2021902670519421 -0.12819083274634052 -0.2940886931251516
Ni 7.662465156704269 4.057822575456534 8.047831960502744 -0.06112000723977216 -0.9170541335889175 0.3089419560879002
Ni 3.0505075437949554 8.478042532949711 12.307618018660163 -0.947141182782285 -0.2893326664974049 0.42648816463620093
Ni 0.2515857598955738 4.835941150806696 10.180751830837657 -1.011696183845535 0.6457901516677652 0.6615726113130025
Ni 8.67168978174321 2.3002636016309386 5.698461943395172 -0.36109498394237166 0.6868105599441849 0.40699637446017645
Ni 3.79320361450532 2.3315682627318743 11.083989498330183 -0.533923767113061 0.9369860966261542 0.010264872261117804
Ni 0.8441443501584524 3.434353913056004 12.65338836300538 0.7292404469736214 -0.06636300080626635 -0.541029524919907
Ni 2.9693724507709933 8.284856844640789 7.922301084006496 0.5424431174379819 -0.10689592792330622 0.14770062064449402
Ni 5.795570649267688 7.787439445557352 3.6294935407496314 -1.356116278235387 0.6506521077457569 0.04840924454132308
Ni 3.1625038378464363 8.37598336462498 3.4738933562141066 0.39399327733228917 -0.5876605945148847 1.0262792238660325
Ni 3.522864923627599 4.285444295997044 9.185217451779458 -0.5290648963588631 -0.06380732426394817 0.4702717374800546
Ni 7.229765777722824 6.1247809274427745 11.510891315617132 0.33776273697433445 -0.030011201650109606 -0.10240086826643009
Ni 0.5330236228965061 0.23663663031866575 0.21741942379026852 0.34430028098253607 -1.0334068360497493 0.8043117741871632
Ni 4.341772775526451 0.35276072313514756 1.5347220969751876 1.5496534975980214 -0.9212424606386521 -0.3309562555754623
Ni 5.8321334798105555 5.585578729196858 0.4763313251027857 1.4158455757752195 0.26165268408363324 -0.1244316228142244
Ni 8.024753936273953 8.755051225339832 11.455112183566424 -0.8214042108930758 0.11037540183147443 -0.1383564604254327
Ni 0.134029019535791 4.776526551174537 5.7034820924303515 -0.5470302225880321 0.47825269880300214 0.48898448339820944
Ni 7.931464417156162 8.616646431406151 2.6665299465529975 -0.24417843855826982 1.3301818177578124 -0.16630820844335228
P 8.369811124419476 1.569839609686942 3.4916960156103625 0.57764589059136 0.6129214259642025 -0.35383290306331966
P 1.7722927085097009 3.133253573412143 1.5809233964606673 -0.5217866175298949 0.7369547848987438 0.13316231781900292
P 4.7017899534955765 1.1487787950812716 8.3752439628291 -0.9017732961704469 -1.2911930951994408 0.5064283899062698
P 8.416410632950472 1.6454631275127343 12.249494883364257 -0.45008292123700555 0.6547157362921692 0.9624176493253813
P 6.2801277062220615 7.818626453985749 1.451564283004114 -0.1789456947017047 -0.5319375899209677 -0.7815639389676863
P 1.7995609779219928 3.2708347986380515 6.026377137151772 0.9267461640657007 0.21844452412727539 1.3185612027997484
P 7.005284478518546 3.7530207017304855 5.888341591605751 -0.1697408882739851 1.270319079963909 -0.9911008761926867
P 2.195797078621949 8.4155418132148 10.177135368687923 0.6180487198884388 1.255600799917128 -0.1275637406853029
