# total energy = -381162.9792638642 ev
CRYSTAL
PRIMVEC
9.21010986105533 0.00000000000000 0.00000000000000

0.00000000000000 9.21010986105533 0.00000000000000

0.00000000000000 0.00000000000000 13.47992675382329

PRIMCOORD
 96 1
Ni 2.619603872453063 5.1692477516032636 2.287152989586009 -0.3143245605560522 -0.7688002115441146 -1.300025091668774
Ni 1.741327811189104 7.462159822786465 1.8480444313050788 -0.31334162781749264 0.3205936813942156 0.47199026283305806
Ni 1.2363006557429217 8.662356848494207 13.131537714506905 -0.40777079073235584 1.7772267234994423 1.4748153694412085
Ni 4.896085107926378 4.695065253551932 1.6552943344328235 0.09650944248265961 0.8887385744736759 0.29322094580821756
Ni 8.474525871214245 7.7483547716928864 0.18103391631925733 -0.6875420387935707 -2.1217023537175783 1.3140162637415436
Ni 1.4718123709545483 8.916049320259264 10.600398787771674 -1.393708120446232 0.9394399574832852 0.6037238186253344
Ni 1.338238149934087 6.850507227310366 12.099325721691418 -1.348385742360349 1.1560327731138025 -1.6575837803231133
Ni 4.1588342464324874 4.705417416857938 12.78804206808419 3.0175335733719773 -2.1303641431576343 -1.1575389253456838
Ni 6.519422203712246 7.271298719414266 10.67146491524985 0.5168143611262841 2.154990683457063 -1.5083831780943249
Ni 5.9316053721471285 2.8571602320187224 3.1088752932305765 -0.23240201474863204 -0.7635672452799495 -0.6062818091604977
Ni 7.625316916172487 3.1971422215897984 12.310299862632707 0.33596784985744077 0.4989179404618375 -1.8784600538203327
Ni 1.7586612376498714 1.3091249931633717 0.8927571167497531 -2.6125606570997326 2.1128688145863483 -0.31840541549364515
Ni 0.01568481682395682 9.136051210731289 2.031991505323348 -0.6621325975815306 1.0877584142174364 0.7908322516434896
Ni 8.242873191968114 5.633520171614325 11.99300974134752 1.960865195691126 1.2294573087525404 -0.5006158969895508
Ni 8.687785961383781 8.192097857176291 11.439159794366518 -1.3388937437095134 -0.2368541369827147 -0.8858288570260485
Ni 0.24396291187496338 6.419142529267594 5.169632734188842 1.9038715519149019 0.35459652070222153 -0.3456151431392177
Ni 4.364311793903114 4.066954192036836 6.297390405061713 -1.8415312991147832 -0.45339167389526436 0.3379362864377212
Ni 6.288570804010263 7.011417053928892 12.798543435167382 0.02599848094629071 -0.9786783341586176 2.5464676221254017
Ni 5.8436856649237034 0.9106855162973247 9.38246032774333 1.1449214936919894 -0.2381196339586996 1.9229679064247205
Ni 4.70287542657995 7.340245600649815 6.10280749635859 1.5763515757144981 -0.4529988093322198 0.3074131781481996
Ni 6.790282319963418 8.422405860405807 1.927656619576531 0.5287363093748507 1.2250393821905032 0.8792452902712599
Ni 0.5276444218434756 4.880418711321826 3.4863534814239032 -0.21932898361475772 -0.8579791818036322 0.07467460599575526
Ni 3.722100054432952 0.7009971066705545 10.14845686263079 -0.09455283297692103 0.8124673134147621 -0.8843502155979931
Ni 0.8065375957774751 5.798841640780517 7.469307788926849 -0.006989029723323447 1.7109783938941694 -0.034518088381527645
P 0.11140456595472653 6.338296186295961 9.922802727834126 0.12877035939889436 0.18478235598813983 0.2520850949998562
Ni 8.744686019128002 3.016614861304198 5.710339854623872 1.3878210655378356 0.5205535164537423 -0.16753256776875664
P 9.06992262306481 1.8928249056913151 7.646366621898355 0.17944603137689094 0.07870918107644509 0.42792592552399206
Ni 4.115482260061164 4.049206310639441 4.015266135373461 -0.4851831073742483 1.3557303556508782 -1.6802467691382676
P 5.282550521167747 0.8243536319866719 6.247326090738951 -0.9303084274956622 -0.20845090324967327 -0.021147066391260357
P 6.297569081189949 4.886552644383927 11.938362476436616 -2.2288602770530193 0.0667095855124077 0.6180350930416839
P 6.200503735031592 6.508351651849417 1.8057166091327121 0.10060649537016866 -1.8807089977555094 0.08180890304769137
Ni 3.903530005469432 2.0785928183978384 4.7442334242006075 0.15251578264495025 -3.222777796758895 0.9589579729115549
Ni 8.029917035418773 0.8227529149203162 0.06100592464975055 0.6744690076596964 1.1072291213475383 -0.22516538779087672
Ni 2.120986953360066 0.8563081076007166 3.101272347670872 0.15947087380654473 1.022490960468194 0.2789744631915324
Ni 0.5589661629209345 2.6187657524701033 12.5766774184915 1.2291824578245991 -0.5265709262924158 -0.3601436757726959
Ni 2.586871142569127 5.495027752012541 10.077606251719661 -1.6107315958562647 3.3391734366425205 -3.9595564610910907
Ni 4.80689440556396 5.6254336952952215 10.24415082345439 -0.20380234873406838 -0.6055390174572023 0.547457797043754
Ni 4.339508968473333 8.243407378330879 12.89297008489587 -0.08898253797799514 0.06931437012510644 -1.3057766494405705
Ni 7.258607188243735 1.3258966029322652 5.613391476858743 0.24226553780627308 -2.0766052042686236 -0.46140760222120536
Ni 3.1728091117548636 3.3761775441035367 10.290926207602267 0.5477059084988181 -1.0836212521206112 -1.4136218286510234
Ni 6.283026317969146 5.251125626861616 6.583178267119268 0.8479850467053976 1.153962520848335 0.8138258843251855
Ni 2.8169581031657738 0.6806924988196471 12.166846877944966 0.6035340712120315 0.9507908637197303 1.6174753423380015
Ni 5.725354175461462 0.7783030834724124 0.6432773491627815 -0.591410034254988 0.3028106463791817 -1.7490214647098201
Ni 3.7901259246982164 2.509156236896463 0.7012651208629074 -0.3842287417463576 1.052042963093698 2.246548695471718
Ni 7.868067777610555 3.0067324135930376 9.456236069496082 0.4120053976389937 -1.9126654960574478 0.6316753095329379
Ni 4.315848196646707 8.437077565162449 8.198814790182581 -0.5532155254631376 0.23397193033891317 0.6833778801135522
Ni 8.458638431976826 6.777894722413082 2.651905569202905 0.3089211301522938 0.09089852405378537 -0.2432520700892585
Ni 6.502972947782951 2.54402571223146 7.764154714888129 -0.7186809262902203 0.051767876600910846 -1.4857124759696865
Ni 0.8649186391619129 0.8006578617431744 5.4592354236853184 0.6591025525059552 2.207316232333657 -3.0159564586928447
Ni 8.594238877131914 9.203607365401707 9.054278330723546 0.6965079897376069 1.4408102161403573 1.6176190670047175
Ni 7.65791149441088 7.206920052591331 6.011157694705512 -2.9161043249901972 -0.3509949193938923 1.6541354167631965
Ni 8.23424331917654 4.284718025851067 7.667112394004029 0.30066248968792736 0.8592619051707976 -0.3013484600113584
Ni 1.722539187395286 7.858415582641967 8.66569182921761 0.8630331992877719 -2.3768547747888484 -0.561637945198878
Ni 3.307608277365804 6.126288671046012 4.142395121623867 -0.3030754700047942 2.593491299173108 0.7325736251119125
Ni 1.1665524949632242 1.9591100652227404 10.001727841921745 -1.0849420278145638 1.2602681234858102 1.8551540321045406
Ni 3.3303480382221458 5.753776574004462 7.66882455339779 -0.0952935677976875 0.46604664365511345 0.9773711853114201
P 1.3220283568570674 8.249043965469024 3.8967504437171625 -0.9221114935071668 -0.973646428161665 0.5842181444922391
Ni 0.30529487440819486 4.155665968694707 10.388561659551229 0.9075238255009789 1.1356518954646055 0.30031590498178606
P 3.455973934569046 0.28364006447484946 0.9658715726258431 2.0011487258015213 -1.057114206969018 0.7372484048797625
Ni 8.423409762363418 8.548501472347553 4.522083736145878 0.653971401926977 1.222714333601752 -1.6025534309208467
P 4.416321283395118 4.169066678312356 8.402267034529551 1.0805251296937906 0.062773226572479 2.167865996757834
P 7.558552830936513 1.8657103427261192 2.0999842191936824 -0.14833156936027356 -0.8507263568959607 -0.8829633625527954
P 2.6302599693792628 2.9459825299930262 2.897348545707117 -0.7695789986916682 0.8000260023276158 -0.8464737522671939
Ni 3.197473785539101 6.347266833146537 0.19100201805065398 -2.1710906743427185 0.25807550825533615 -0.30434739473868233
Ni 2.535340578781671 7.193896957471497 6.275147990129326 -2.906314592593285 1.0582843160177193 -1.1336099253339122
Ni 3.4419377273819 8.685096609350548 4.365231883862429 0.7993606008294749 -1.2967129965764055 -0.10197946445829534
Ni 5.590545799740818 5.790607802706168 4.259387461135314 1.4379658047130268 0.7975158343112523 -0.1648406227588903
Ni 9.270804325793716 2.4734118011396946 3.236665565357647 0.20127803965031787 -0.6357985876726922 0.304702721195572
Ni 5.647537958582066 2.9716050551863606 10.53053181657681 1.5792790337739384 2.120318071775542 -4.696841889856375
Ni 8.07957794693655 4.80944560595165 0.6405916811734299 0.3608101057121012 0.9260044008036697 -0.24870975076972004
Ni 8.063451044846856 7.077011455232603 8.27415440856288 0.2263486094657005 -0.8701631254643336 1.035172155480288
Ni 1.5837428341733075 3.8431853666963463 8.143830435256556 0.086143011646671 -1.0561467008494263 1.2098459622795166
Ni 7.076274646456375 5.1672215274686355 9.974269741864633 1.4143481652940868 -0.579995107549827 -1.9634846355918443
Ni 6.243312324930448 3.36042825651166 5.3256897540049355 0.7679908282689418 -0.6575089827665902 -0.8277440370681745
Ni 6.024268285867521 8.357944302595547 4.5272331084807425 -0.1036609659257763 1.0286816626599382 -0.80719629482381
Ni 3.0383599303126316 0.27626184559189476 6.502500469155196 1.3696377097605896 -0.1424753676898127 -0.7167693110898042
Ni 6.417503129740487 3.1238389584648 0.5793969492747708 -0.6324713230716721 -0.5434795291222962 2.4738995209496877
Ni 6.782941862530245 9.154720103098969 7.69679565656535 -0.5190298807203643 -1.4037289950173437 -2.1634035901111064
Ni 4.126212037864986 7.567311645263926 1.7233680972685428 1.8390095611341941 0.592307863478909 2.5152001794706877
Ni 2.0821847611819506 4.972529018460049 11.96201956421936 -0.8120088857211046 -5.289704083176858 3.2189126573765336
Ni 0.4131010505020171 8.836860797034143 7.09040111271861 -1.4532394430426456 -2.098136136361864 0.01090559116891025
Ni 7.222402247001825 4.687089298549262 2.701674239004206 0.24807391695793404 0.25874399507727047 1.212274883435983
Ni 4.9969726496114175 2.41552626165727 12.325977311368902 -0.5070930200734621 -2.2740078201239355 1.849462895257034
Ni 1.9756330020296569 0.9415495149225518 8.31927105195327 -0.1866392066912205 0.22485634119089015 -0.2052226261203627
Ni 5.755904109345822 6.6377260628453785 8.40759231995974 -0.006759687321336745 0.23735010278252672 -0.8164895472002778
Ni 4.973809223708745 0.771058411180149 2.7973810939813917 -0.8869745405947176 -0.9977811164263397 0.7223730304298269
Ni 4.153962098399679 2.121852703672134 8.095477359316583 -0.5338957420886031 -0.9976314782223529 -0.36898415688246133
Ni 0.8257701468589707 3.7712451998073697 1.348747806116011 0.6685313020190229 -0.37441715497257455 -0.3453927427157665
P 2.7964287686381173 2.758676528966127 12.215887028068773 -1.1563050529385828 1.395069776680449 1.2909570679292348
Ni 2.2618740014845917 2.5018341996826954 6.454593162524842 -0.19061104685477495 0.31000356458319517 -0.7885946205622225
P 5.722581932440904 0.33321532197239045 11.623228441832865 0.7432570729676877 0.014313074188562447 -0.34037626333778154
Ni 7.968697436223915 1.3288898885856921 11.012223317068877 -0.5021716715124449 -1.247757135502993 0.6951851571611254
P 7.817789788742687 4.892622106678106 4.9524574263846235 0.016325476632900918 0.6589048346728523 -0.4157813197416581
P 0.8331658649503607 5.946627061072479 0.5910210287307402 -0.024269671180642074 -0.6192162578339787 -0.015640020530102095
P 3.2508924218156423 7.855753860937842 10.478634690423181 1.2147395429263916 -1.8967035734115527 -0.21974498810625384
Ni 2.040131400278729 4.827902665796165 5.552044778149987 -0.11700190600905656 -0.6687367331616095 0.6654315800477765
