# total energy = -340898.3001808124 ev
CRYSTAL
PRIMVEC
8.99716104988221 0.00000000000000 0.00000000000000

0.00000000000000 8.99716104988221 0.00000000000000

0.00000000000000 0.00000000000000 13.16825464348551

PRIMCOORD
 96 1
Ni 6.163666993676591 1.9784756723558572 11.367653624021198 0.10736721113276991 0.34745759566459516 -0.2257444002227983
Ni 4.535207870123189 0.2145031114132354 6.030796922147026 0.2715192924650679 -0.23485536138513105 -0.8771099890958121
Ni 2.857327341984745 1.5332961531736478 4.889004126201482 -0.3180621732216135 -0.11496199276089233 -0.5802928412959039
Ni 3.4069908901940966 4.129597864388097 4.868066833172199 -0.25304617336154483 0.7996904733650679 -0.07156228561901869
Ni 4.949473144602284 4.735700602650601 2.498491776110697 -0.07274962105890051 -0.7208889896851326 0.1274354426375547
Ni 7.325740289908889 6.2486811666101545 2.5633325149716986 0.027066774309805 -0.4432291315399657 -0.4536819514421735
Ni 4.943274100772119 4.465003023959511 11.482849672764152 0.26635908842036704 -0.3401998856609173 -0.1391154500786443
Ni 5.630486244156443 7.890546059839819 12.424353072017642 -0.8453044145494409 0.07684178885040314 -0.4766694134762823
Ni 1.866973857860604 6.493286978817242 0.4328579073891608 -0.5619408211512774 -0.7257254918418276 0.042661286313952336
Ni 2.6335139685171494 1.457486075796338 0.29713393643589764 -0.024680276355499433 0.39227783730307925 0.9256848126807219
Ni 0.5455923329217615 9.02604174290186 4.661825814573535 0.843794662773134 -0.2241364323057301 0.7075364796376267
Ni 8.585117880804802 2.270415547829267 1.2317563070662965 0.9226676231209529 0.750912018409784 1.1670898022589127
Ni 7.112759498112583 0.4905306081957469 4.664919938192103 -1.7035959853871694 -0.09148550690550696 -0.17247705625822554
Ni 0.8259744555588443 7.343932549160838 2.661119957173309 -0.17573078730883285 0.07874620496196762 0.07144684308707694
Ni 7.609069882442578 3.9094013495848348 3.8114195687087236 0.8130280710142385 -0.3223937107174319 -0.7884118151274552
Ni 7.366443445623933 3.7721586578789856 12.59917510518914 0.6516507242136003 -0.13136563092989634 0.2886071011852901
Ni 8.085550524244733 8.854897749088522 6.847136318144588 0.0847607865871637 0.04437364101936874 0.6001204175447923
Ni 6.72641241377137 1.011334863241621 0.3686820587154587 -0.2416423023999774 -1.1089455898180127 -0.43560041135011435
Ni 1.7277158021228871 6.637412498578354 9.121346868423148 0.36478194587565566 -0.59791235414988 -0.1460402022229356
Ni 0.041653255901494664 4.858223939195131 1.3746995998908573 -0.02911208687460793 -0.45973869915921467 0.3123651228368362
Ni 6.28412998038497 1.829392716962785 6.63963119844558 0.686898748782617 0.5578957045476263 1.2716694233442163
Ni 3.177446325260877 4.173018162681818 0.34200997535620936 0.3492856500122694 0.18442574397966946 -0.2805217530739943
Ni 5.927869401948067 5.5256963116601785 4.668225495090801 -0.07563028504080523 0.37367436326927905 0.5175486681891474
Ni 5.175121938884617 2.8494008432701223 9.19004558985944 0.20061315237280933 -0.1663200355178942 -0.12277557526804017
P 0.2702738124147463 5.536870785444016 12.418427541877517 -0.9348317692873127 0.25409286945850434 -0.18999141099290506
P 3.938030315430385 6.030724944860173 12.53204368917406 0.28680758608270607 1.154819726642308 0.8816053058630042
P 2.247247858623645 8.41583629928877 1.4443601178227137 1.6091038304448546 0.3624597255003822 -0.11682270011871493
P 6.352769320559608 7.762399497759944 5.936789187221253 0.3702679086908913 -0.5770195698612707 -1.376827285530493
P 4.661357062492909 1.1015493951502713 12.663462518657463 -0.5461645321536271 -0.3315080143138742 -0.5507734916805482
P 3.926405983603719 6.043950771319305 8.100306767765565 0.19806698891218794 0.5719110449901118 1.0058839480391322
P 4.883353009467481 1.007457086912447 3.7941297246906864 -0.14379434361155236 -0.27196820707702835 0.9395777686127303
P 0.31711843013047164 5.48169119791078 3.603111002545224 -0.12528548617408744 -0.3558231940204711 -0.37785574834047825
Ni 1.5381726143578993 1.053054698133454 2.7127789556633752 -0.21068313501430166 0.8583216527447154 -0.9185893392865212
Ni 2.0296425261470703 6.3709525826507 4.763590001873742 -0.124320808267973 0.12510602317342967 0.023440490411127373
Ni 5.981447494848837 5.668589220383942 9.09511564594587 -0.04305620775952585 -0.2465212277588335 0.5356165814344517
Ni 8.462315632273718 2.3608280172767615 10.231351795346407 0.6036734250033732 0.8591896571719655 -0.05001489846554612
Ni 2.2974160275597804 5.160852441766125 6.986285508235941 0.06175378416902914 -0.42028949202465676 0.02550637180122059
Ni 0.5687879133260391 0.09959857068203427 9.231564788064171 -0.5742075543337724 -0.05966553418143273 -0.5779672784865207
Ni 1.5009603570551988 1.1135875963763384 11.316784576254337 -0.7018661687257267 0.4965149874472997 0.110308553149281
Ni 4.088390867665087 7.047611056350287 1.4384075962000187 0.26591377335283234 -0.34179911182723716 0.3392344364238545
Ni 5.742959752024204 7.948262846734601 8.01027577793839 -0.4895532114174859 -0.36943384282537023 0.10358023328651193
Ni 5.392178444548941 2.97023271357362 4.6349485959467565 0.03418590185308951 -0.5280500819411036 -0.3607201171014562
Ni 0.7911113569557896 7.0977522338038534 6.7528388746392345 -0.4291579981588802 0.9263484144066498 -0.010241218112033976
Ni 5.142921100179016 4.443157917399802 7.244199021065956 0.3096896328872021 0.1486033349644215 -0.8836974125053427
Ni 8.030973746488886 7.191439669803133 8.924020236801157 0.6445393099797997 0.5227294410591384 0.18075086623124356
Ni 4.52330462630997 0.20452256087506188 10.387395854094196 0.2396188442120454 0.0899202193009161 -0.06312006838893645
Ni 8.188145149492 7.119057510712169 4.648235603099713 -0.48010389307912804 -0.17355074893837852 0.6121506092364489
Ni 7.311218872286413 5.9593504677851445 6.834324361084858 -0.7338285805649362 0.29496235397935655 0.256147695105004
Ni 2.393073841786645 5.1584951856217085 2.5496901199649082 -0.5098441004560381 -0.18704158433596174 0.12541352711151948
Ni 2.264090543747111 5.25927238437595 11.27610751230578 -0.5692034162509616 0.1945677175096778 1.144370506284526
Ni 1.199951343438384 3.2655285300465247 3.9416795638738025 -0.49110152974121224 0.22644142628982292 -0.2779084838208633
Ni 3.6377140831995245 2.5652435119376302 2.7007299578442803 0.02653198485225753 0.611085144086412 0.17931850466009117
Ni 1.112570917199548 3.414845411621867 8.284253721477777 -0.42419525483696624 -0.2889737404960894 -0.2128217786238593
Ni 3.8825448244280265 2.590498542461973 6.8352591660978534 -0.7981701800657997 -0.33256782303695626 0.4175121863898358
Ni 4.219821393457604 6.801718650140712 6.021737680880563 -0.007950365195328244 -0.3236864613869264 -0.20712241424623684
Ni 0.7412895787126312 7.43059320253115 11.276819187729533 -0.5722190631488339 -0.4028990644623513 0.39454272207785596
P 0.13225826459131923 5.510419132525752 8.042327263773771 0.5649143019573045 -0.29068558098087355 -0.33655971780516875
P 8.54300217083528 1.6672008982017161 8.025418899376051 -0.28030912284255594 -0.10193935524897928 -0.17020651505649395
P 1.6661482303814994 3.3187287421913183 10.389910560553602 -0.39954068951307964 -1.2482345893600437 0.488193612065798
P 3.9725794131195458 6.152573494340461 3.737269467509447 0.09364934732604517 0.4629199251006737 0.49973657970839097
P 6.758388323455556 3.9156903650235653 10.357069123995014 0.379620810660701 0.4056848547376045 -0.31736463293395667
P 6.350115158106924 7.656808817947446 10.174873017785487 -0.942672348377654 0.2140937033577474 0.639739317487995
P 2.3529465043664217 8.400577114476057 5.843347373713358 0.4284386034943524 0.10403814675953696 -0.1665077260486681
P 6.878176523099694 4.027165188036249 1.6726972637689839 0.5383134115403245 0.28862587023836744 -0.3071992623651806
Ni 5.200907801899496 2.9405150912644276 0.7905301403644563 -0.6533530516166877 0.08093909884822834 -1.4579124230382827
Ni 1.5984625892576563 1.1361974616088544 7.032387860181 -0.756719883340813 -0.19570774465139196 0.17301235993640526
Ni 6.8340634434200185 0.8307933349136138 9.296695235504753 -0.3877251849353904 -0.5898372904512293 -1.2331776950269215
Ni 2.873918106604228 1.5938920315425278 9.082487230967615 -0.2068539910761986 0.0005738702255990117 0.347725247503685
Ni 6.464945922119102 1.9387801986567483 2.4848628768451917 0.6172048838309048 0.08634587168609646 1.7687814209455668
Ni 4.053760795528217 6.717712159223083 10.365878244189664 0.15708514718318753 0.37234587426584265 -0.37434619252532303
Ni 8.012106700172696 7.222614832171087 0.19655287578832784 -0.004109137072367116 -0.5109059660616492 0.047666967058659845
Ni 7.69056616548123 3.8317288599102186 8.174760073285707 -1.0971917917161942 -0.6934925999500509 -0.18405241980065076
Ni 2.925624790046834 8.163546911710187 12.302731250990938 1.289503880422476 0.5173985157645283 0.25392137687764654
Ni 0.02449387071587806 5.0622255644565985 10.212033991271305 -0.0958926348342671 -1.1422717147739683 -0.1634357719915637
Ni 8.508525050432972 2.1933278736103268 5.716194098192046 0.8353539882049484 1.2281478459124977 0.725428529426699
Ni 3.4761430685375574 2.5815373702488467 11.386273248413834 0.4769375795360044 0.06682245694118814 -0.015446930682689526
Ni 0.9448908303159821 3.337550802703226 12.553520811854737 0.1931240430846158 0.2062801208505996 -0.17768791103520365
Ni 3.19137393026682 8.234651473959518 7.992195083481061 0.0017205822355325206 0.10419164161826573 0.21415258162014086
Ni 5.698675726288253 7.73701850698361 3.625917905600499 -0.8156863345726919 0.5414604418097384 -0.08319549898257285
Ni 3.1379217976180427 8.328707793553917 3.647158402950647 0.2487388042354426 -0.1237392247328901 0.1188980945905049
Ni 3.2506652203115 4.266354709407692 9.364406968395082 1.2769065033734397 0.5515412230845083 -1.2802054858396854
Ni 7.088917021842719 5.925476157160224 11.379426409001997 0.08622837227162569 0.5150919791185387 0.25767081661774976
Ni 0.5431595006261498 8.997070884943764 0.3031278449985328 -0.016391296873829838 0.26592894286148394 -0.5660165338825478
Ni 4.457652343539707 0.45254279562721167 1.741040597351441 0.1374342057214794 -0.23549479474134283 -0.7493292473036967
Ni 5.989994797662561 5.707483946766818 0.5276411975807682 -0.28483683550958044 0.004447237138076212 -0.862038182364354
Ni 7.784118644067661 8.846503398009359 11.375265222105842 0.1599681251579374 -0.19114686475358691 0.027854303208106865
Ni 0.11421175934524656 4.843765501698651 5.656160542376701 0.2437097264519674 -0.9525207019266434 0.6904437858213981
Ni 8.053313696895707 8.853251268651775 2.2691406501358937 -0.21699699304747144 0.19597153983573992 0.4768833292593014
P 8.526141491390101 1.6803907360174217 3.5486071017923155 0.16787735270268508 0.1874089949777095 -0.5083212360536085
P 1.7857744811302192 3.1669826271847064 1.6898422534972302 -0.5156339676649376 -0.5196698282972082 -0.583330342570647
P 4.7936243242450844 0.9480578309374885 8.086612189225807 -0.05192728499691057 0.7809772132262809 0.9025094030055231
P 8.462432595364854 1.6442761323392208 12.317282359244242 -0.11097344042678954 0.07652374338935208 0.0990913442772229
P 6.254088460284942 8.022687361340003 1.3663376385907777 -0.0273411110171142 -1.1387451896779484 0.6786784177553536
P 1.7880777543094968 3.1175252339562385 6.151761050715115 0.3300661396610251 0.4184514103746535 -0.9708035593962312
P 6.860218190030015 3.9457858680887323 5.92579375693846 0.48239885976089186 -0.24250979260659528 0.46153641448958577
P 2.3674949134714667 8.451465056280716 10.214931077067114 1.126045996943725 0.0902781168609671 -0.7274352754440826
