# total energy = -381167.26311937254 ev
CRYSTAL
PRIMVEC
9.27677749492076 0.00000000000000 0.00000000000000
0.00000000000000 9.27677749492076 0.00000000000000
0.00000000000000 0.00000000000000 13.57750157485476
PRIMCOORD
 96 1
Ni 0.5817096139450602 1.5046283834815033 7.534005951613032 -0.26742172535692654 -0.42236154406233717 0.49469387507816087
Ni 1.1213304880810313 4.2221676031585025 2.926223114018503 0.9516092458559677 0.060427866268753995 0.8300174064833833
Ni 6.690059461803456 8.47522687560602 1.9380116009514645 -0.06816431568106325 1.2744523854059921 -0.8000236883347706
Ni 3.153733300748934 6.071075755605162 7.827320959995606 1.514838189691049 -0.94059721101618 -0.7462125560515859
Ni 2.540241446868688 2.899725854261681 4.128511112225155 -1.681905644897929 -1.601706252429203 -0.6419450668900621
Ni 4.587960219295199 7.700170663666465 12.599731347601168 -1.0133267774704227 0.6944855599909394 0.22194816640515969
Ni 4.8844831373594975 0.7819794710357715 6.781242763838169 0.4386744222897477 0.35731494807464914 -0.43508799049007
Ni 6.765739413172763 7.863831573455301 12.864587985449836 1.3866653546668377 -0.15499715430590727 0.8050098286954523
Ni 9.174899993058327 8.566269170621759 6.124906112777347 -0.2038514568044489 0.725016638700261 0.7164612929310822
Ni 8.477082231118876 3.018654142635611 12.026502563705364 -1.0680565649131348 -0.27770768066396684 -0.15908880787677762
Ni 7.575889674637951 4.212723843598077 7.032806707114995 0.5838893003979105 1.0878226917964684 -1.042212093046205
Ni 6.516054945030459 5.90527191019898 5.830600344550908 -1.2708453847810244 0.403122493327067 2.6317541993090483
Ni 7.851549119960207 0.1907147761995141 11.743656398804067 3.2920376594969816 1.206780178869999 -1.1609626063152523
Ni 7.105826078678869 1.8937613719699005 2.960981344196307 -1.771616833511833 -0.5381935981330086 -0.694092695427895
Ni 5.816251952692253 4.733995251711924 4.150872784543825 -0.5898174929568873 -0.3599778396187929 -1.6735156210620212
Ni 4.735349661236307 2.441870497577178 4.225399632461894 0.9101584349103486 -0.5619737312717419 -1.677077884491983
Ni 5.819693637168597 5.735803737654911 13.030926173243719 -0.479068252725762 1.5231932465239637 1.2168144231775495
Ni 1.7130126379076807 6.445644203317657 9.517231638734987 0.4243958008835465 -0.19136540852229625 0.772421867457102
Ni 3.3676001307155947 2.1710164230332123 13.442079448636422 1.1050989623784129 1.905237579024493 0.7616641147199656
Ni 3.862729579653331 4.866421251441865 12.345845426900008 -1.671627660010689 -0.35268336283990875 -0.6672372657979476
Ni 3.3586758706987676 0.0659949955922106 4.542950222231122 -1.201159233138796 0.01635273032641055 0.7066191100296798
Ni 2.299481238743211 6.426840175194883 2.6616522009188164 -0.20698640288900483 0.7888702428211124 -0.5497519923945694
Ni 0.7739179513324216 5.420801478682589 7.178004046517665 -0.050336029250390726 0.06825713250518566 1.2395568590803878
Ni 8.810229867006909 7.260321532234208 10.142366776136148 -0.27182242552778346 -1.6825134536852573 1.3916592083370032
P 7.717119336276385 0.8805869781551703 5.065887739595511 -1.0296833644515748 1.952539706544566 1.9298458644914762
Ni 3.688094242005965 8.445179393075353 8.209487088533237 -1.266159806379897 0.6951733300865833 1.3362053982440731
P 1.4746458383937855 3.2589968957706956 8.6306880417058 0.2704623119554632 0.39083313443675266 0.07727193440928629
Ni 5.480896443743924 6.461043654074343 1.7874782590938256 2.188738212221153 -2.158018157429477 0.2536719798710018
P 3.353824116032655 1.9595522784556973 6.0222325940515296 -1.5378091966649257 0.9370156643125088 -0.7164499800771726
P 3.8036179530138083 6.989068556254979 4.32849431688913 -0.6368188014070905 -0.1499649911986385 0.19855755539536127
P 6.194382682989428 9.014699321300965 8.1964114705564 -0.34547733200977276 -0.1823907158275117 1.739691702668462
Ni 3.620420149674621 6.5053217133886 0.6693964985158013 -1.945075536957037 -0.8741606766595009 -0.6413681113406696
Ni 2.0586375396196557 7.752120618026371 6.198211209090201 1.3442969170029557 0.191850832799147 1.8764080563873105
Ni 4.55665109501579 4.122739101224666 0.8813152051939653 0.2965312411283732 0.09600807736620885 -0.7343643984637482
Ni 0.12301656424650367 1.621645655677194 9.999545219467686 0.2978047085241581 -0.006497177688569456 1.0397181229797576
Ni 1.1204120871021686 1.155478306295106 5.1897419968560685 0.4425308199213605 -0.8843304181036511 0.5775772421369537
Ni 3.934420516670003 8.929668378146873 10.75133156256503 -1.197114630755777 0.8396485018152443 -0.6573901978005388
Ni 3.371858171617594 1.3289726003020672 2.314529099630212 0.3011142325133653 0.05924670147645925 -0.31264331619888736
Ni 6.457249452050557 7.142840421160304 3.9159819935832614 -0.7855910578492082 0.666210110085014 0.2340611476186098
Ni 2.450080445721556 1.220174553028319 9.14333390204039 0.9041502810430556 0.8125963827934587 -2.1841863311844127
Ni 3.100586642083236 4.46101679510574 10.028112128299096 -1.3639488869059284 -0.6094848894788277 -0.2108119472826821
Ni 6.841966694418363 8.417061480278054 6.319199869761156 0.2512350882947351 -0.35594069343494183 -1.0502344491300493
Ni 4.964745816845554 1.280362285865297 9.18443280968337 0.3339716453630184 -1.2132357046873556 1.1306457004992656
Ni 6.4096224760356 2.83620775827913 5.665199111291016 0.481209467438481 -0.7670176657223952 -0.20817450965983503
Ni 4.585186462803483 7.66500239992032 6.272533967901857 -0.13767460386705965 -0.8909618073772397 -1.7200057942037603
Ni 3.886107059115289 4.2084379723633845 5.502744182585535 0.18240202868142136 1.1240793601356576 1.7140871147264802
Ni 3.532337146701886 4.53780995978276 2.876393831009788 1.1510592311586112 -0.09748054814667728 0.7476472316155833
Ni 1.3982330215969005 3.411423627929202 6.115971648305199 0.2767054646516976 -0.3617948382228737 0.98256995590354
Ni 1.4279279865801262 8.825768469427059 10.201021057641752 -0.4667390417364478 -1.2067526680661733 0.3538059064801261
Ni 2.692102295595774 9.418990564329379 13.183129335062926 -0.3740975668496267 -1.7640606184311296 -0.5694602694567742
Ni 7.416356930865215 3.9323981791609923 0.5505841698614244 0.24067428205975322 0.016824527756506513 1.2908449678314027
Ni 1.69753897293048 5.697314387540759 5.061394068543379 0.9176665703619358 -0.9207796620696206 -1.0711598864288068
Ni 5.425300715801259 4.7067308024505365 10.440881418343496 -0.30843442032386237 -0.356099073389677 -0.5292798405831465
Ni 4.263495647207321 2.5531454444605863 11.291688085161848 1.144544827078861 0.36493518362406824 -1.372981686532158
Ni 1.9645988454506595 6.273374443949179 11.95383570968893 0.6043257138753915 0.07796613226283347 -0.10296136875559041
Ni 0.4916246823739555 5.438566507718164 1.2376816876476078 -0.649916772241629 1.2973318611073268 -1.3358873527830217
P 9.876706769350417 1.4550625609556131 12.709464494053394 -0.24261957871158213 -0.5485754555879649 0.2842871336536975
Ni 8.57331024479304 6.459392387667904 4.999182142841877 0.5667035326472434 0.4466625827015469 -0.39222024459226645
P 1.3574430306468095 1.0359191970468054 3.0553456532578083 -0.27193915361130583 -0.3021426737778797 -0.6968237212058128
Ni 9.079896514022648 2.4786900277297623 3.621499966583102 0.9538437916134411 0.057269008924798144 2.0801661821470048
P 5.879222718798513 3.5959851175703363 2.328881202199893 1.430806567960426 -0.4404461694781899 0.8592094546663073
P 6.575871606764866 2.1903956113649703 10.75938287781306 0.021936652172091255 0.08111753340762158 0.7090788844240821
P 4.970979811368743 0.3876950879659356 0.9347420225421041 0.26329407634179813 0.43847027669874167 -1.0823927790301486
Ni 8.877736977342096 -0.2821550449727585 1.0736599112115215 0.5461894718542916 0.39996774974816923 0.4059841311455782
Ni 5.747511030941019 0.5275703400799855 12.051254861602347 -2.39078938259207 1.5171897206423612 0.5076270382000612
Ni 8.204845916717833 9.045581713812417 9.007233370717241 0.25024521357764 0.384227456194777 -0.6884781774545948
Ni 7.340046158621537 5.368879354655375 11.46402742036206 2.4531082952359493 0.4591589153963447 0.6566970283882562
Ni 7.8280232120572215 6.282558453737805 0.6084823939955408 -0.969994690341691 0.4090661125050116 -1.5093265158442004
Ni 3.8692604310585765 3.0305284179178757 8.107384091627623 -1.24867913309663 0.390199871728128 -1.1250769481622365
Ni 1.254480076460986 7.8127165290761775 4.112978075871542 -0.35497884374230476 1.2869271208342354 -0.8456070333915243
Ni 8.135919459415314 6.751156318841732 7.498392402543803 0.2058314633489552 0.9103839206575933 0.3956698937037637
Ni 6.096549786796645 7.783912134739122 10.424629431728652 1.8008371638295306 1.2963314448672707 1.635997569511905
Ni 0.4931785426159706 8.079609419600201 12.696932495241825 -0.1333734053885445 -0.29912111334273644 -0.40295897116600926
Ni 4.113981823203996 6.583617716031031 10.616873020870758 -1.2888274231807415 -0.044424805972278325 -0.7325615409270546
Ni 4.399066474531551 8.238882413601138 2.591714574861791 -1.1277619511935675 0.683277607090262 0.07886190460422547
Ni 7.385224065359527 1.531512484862755 7.494251249039113 0.18281931872449805 -0.3019549832471058 -0.9843638145791692
Ni 7.108414299619301 1.4273528263711415 0.4712751431089747 -0.35488037049122756 -0.28082694301923894 -0.17739403394386868
Ni 8.148814180229648 4.585288507356689 2.898497608912172 -1.7415588377841875 -0.04098621260437457 0.5157494101968795
Ni 8.55731708027224 8.940281011680398 3.666482133314487 0.38291207981746317 0.7107179626894018 -0.7949696708506309
Ni 0.39803498423906997 4.561781153008831 10.403190798777626 0.3118856120972564 0.756912201857277 0.3308912066654817
Ni 2.230953682875955 4.239403855872915 0.8102940515174337 1.3799190370819396 -0.7389077948600564 0.09792612032452812
Ni 8.517222847639468 3.384084964447301 8.822918643359316 1.1400842202043462 -0.574864728301797 0.20970020227574207
Ni 1.6358298485729617 3.557467937123491 12.288060379452174 -0.40735555757180814 0.853940235847568 -0.1580310560362246
Ni 2.3363007688957955 1.661322433319573 11.257555109791877 -1.7162278152185668 -1.5836105712697566 1.2835558903691573
Ni 8.389908352347438 6.9484826544113005 2.605087977398442 1.198936000235232 -0.01232021212824975 0.562014097591374
Ni 5.489551677211387 6.9952561668903455 8.512713406065476 -0.2311455166337116 -2.131580017842606 -2.0842148982950817
Ni 0.16129625918770382 2.401136167292472 1.2725855632331702 0.15393528870029619 -0.33775168123074084 -1.0059842210624224
Ni 6.244634987055074 3.210599947217904 8.799375109578957 -0.6521749721481865 0.2811524446794577 0.1533681033429165
P 8.926504996997458 4.375215879413815 5.1563817770572005 0.02494998507711832 -0.41553989315481343 -0.1410669173780603
Ni 5.794553569969428 3.6286022674863068 12.527430926298525 1.6275607515984616 -2.806893118670153 -0.5875495228583172
P 0.052712505475690064 5.657563395677866 12.531192659600837 -0.7408911438386724 -0.3035428965595159 0.09509276464079106
Ni 7.291862575952723 5.462491317056414 9.16273628231606 -0.052230932280258435 -0.18492196688979765 0.12638309011364038
P 1.9348203894693559 7.920883755475556 0.9153312931666273 -0.7860065481200722 -0.9665771800197096 0.1875046400153093
P 5.166395130760072 4.679039621421193 7.403485401994791 0.4729194595155468 1.0661840304807702 -0.24733858145380627
P 0.8621159863469539 7.774088027298561 8.149243695030874 -0.6904864661338753 0.6657766220920212 -0.6540349081750607
Ni 5.626319208841407 0.25113721150886825 4.435973206393239 1.6569608020271336 -0.5304900588411637 -0.4720352571383806
