# total energy = -340859.1804719545 ev
CRYSTAL
PRIMVEC
9.31266921180479 0.00000000000000 0.00000000000000
0.00000000000000 9.31266921180479 0.00000000000000
0.00000000000000 0.00000000000000 13.63003273050616
PRIMCOORD
 96 1
Ni 0.3785301946516782 8.748973153345704 6.91590556767012 -0.019661740094985492 0.16260993365615867 0.42744152968840576
Ni 0.13206109667468333 6.746106742372594 9.438702014451241 2.7533928327591677 -0.19339349469591854 0.46727665940747265
Ni 1.0822625161451855 6.970942510243016 11.716866752850727 0.30583503502780235 0.7706496060480276 0.393638979316664
Ni 7.398980715877286 8.165171245876504 5.9878776131086795 2.8252312548577083 0.0015809713338746964 1.8410476746101454
Ni 3.806665209222111 1.9765488083552982 1.344143150064224 -3.2696947730254076 0.600107819139302 0.7535054901685733
Ni 8.560782738023436 4.131733233630219 10.961149250418387 -1.191900176434373 1.2688725773253695 0.6491899213779335
Ni 2.4496789573283664 0.9543809453214838 10.271837596884426 -0.6620950594753758 0.49566703762470765 3.214552580635625
Ni 8.908983432248473 0.2742730025685507 4.877997445752108 -0.7986784871607858 1.493675439570505 -0.43694201297967333
Ni 6.988608643351999 5.995673248335633 9.646097015802683 -0.49496692623388955 -0.046405326737416853 0.4457848080822839
Ni 1.2469477548901857 1.7462185657699052 5.792055465534008 -3.596958667350947 -1.2055308798439304 1.167178248207661
Ni 0.3917690849140562 8.039738907002018 3.566774580632668 2.012713547820985 -0.6981568381949396 -0.4378236442536782
Ni 8.012955670933785 2.118604261409824 6.127094564649437 0.7855069827758342 0.42034117119819864 1.5168050836094327
Ni 6.256819112669907 1.7508376495980844 4.873418406400663 -1.7617854492437077 0.011614958531109028 -0.6491225584751079
Ni -0.0013689623442385795 4.130913718757477 6.073950887685955 1.0684782258315857 0.08538813575851746 -0.9487208685645789
Ni 7.152055297118879 4.589013219950946 6.778964632435022 -0.889674456024384 -0.1721368993099874 2.3965640802923174
Ni 4.505553080297435 1.2140554079524264 6.808037853812427 0.3646996705744945 2.701523911804018 -0.34910670123224385
Ni 7.990884645383816 8.38974625901469 9.596646743367943 0.22051323373084605 0.01821266635328476 -0.22292749959929348
Ni 1.5479052792354797 2.556011012066571 3.217314813557691 0.2965752069924312 -0.05693836505825678 0.4701861197447838
Ni 4.3844697578498835 4.966939953650878 0.9639813758022698 0.8420869360534078 -1.6753812135158503 -1.2570635005055835
Ni 7.250890653305301 4.484515761007401 1.9264820372321998 0.1274765802881353 -0.49236317006245534 -0.5072295456513265
Ni 7.06645324359343 1.0397781201287475 10.436584299244883 1.2271299461709446 1.9709639746880248 -1.3278660251404422
Ni 5.830550314147237 0.7623369475635303 12.42190750433992 -0.5083328060178343 -0.7774990248696932 1.2540879628170274
Ni 7.242481313190693 3.6036397121694215 9.21582376960639 -1.2907503512350673 -0.7659213473344227 -0.6444254101097546
Ni 0.518887948145968 5.006965805049092 1.6995015616891376 -1.3533040055975725 0.9545883830889496 2.0583598849051903
P 2.264515159433838 3.450120363565524 1.0364553598265411 -1.0729650579583456 0.6221730264694575 -0.29787130009603535
P 2.3082753911044307 4.1350299184592005 5.834784784745368 -0.26977017098444506 0.3639674203941603 1.142604929743671
P 0.6235697979358797 0.7040740964461166 11.896129112394616 0.2533354224671895 -0.7692118451602364 -1.3244053202853514
P 8.633412243620148 2.794834408787649 3.6816621843889132 1.9460880373819516 1.2805957792995686 1.49695256765988
P 4.008312431261553 6.382782273677873 12.591097281084295 -1.5792674638097124 -3.2928791815616707 -1.6539181585460676
P 7.975183485435611 6.880069486058798 7.82200311798362 0.3559792599823612 0.40673695015120276 -0.4388618557102055
P 5.330450675725768 4.710822930581155 8.431455840969628 0.6064432744390266 -0.17502579082200825 -0.2626083631286832
P 4.093467476674597 2.3495770781567984 10.67452392367706 -0.7497339389412829 -0.22893745323879927 0.25723295774938276
Ni 5.345527886850409 7.780837395898774 3.303211147423806 1.4144222130651318 -0.3707859859778905 -0.8128020710463614
Ni 2.6752131753744206 9.152882233579144 2.23679693139716 -0.7773491295553902 1.162317834791566 -1.3924462230146728
Ni 5.247772800268964 8.683495777547462 5.941685843559987 0.03250748570940208 -1.5419684702489378 -1.9704129872805614
Ni 7.255370047098353 4.149436617415236 4.683728651368041 0.12254597575573735 -0.8535340015480849 -2.3735033418181124
Ni 0.37656894655850376 0.6919741456034691 8.927235332238087 0.10607831711801731 -0.39166797163322226 1.0108353785071367
Ni 2.380737268658991 5.287277142202706 10.796512437552229 0.6602672622380178 -0.3524452786871737 0.1652676829939799
Ni 5.198182837799098 4.888210649853647 11.538381069902142 -0.7873589483829084 3.6022332854863253 0.0645269760387921
Ni 8.53633698187632 2.302399096960114 12.39245246353317 -3.515348767687939 -1.6135572382305179 1.4566060455220333
Ni 3.0532144104264196 7.762528688628209 3.9433593587284856 -1.3376542148754575 -1.9873413876047838 1.239847136627297
Ni 2.2225895235579056 5.847229304341327 0.20557530582719588 -0.02721949783758538 -0.6668315457190968 -0.9498308137993061
Ni 6.254919328192187 8.871192621412282 8.203834653798785 -0.3067007254622073 0.6579440134214798 -0.1233784989593617
Ni 4.766205373174262 7.809185160360423 0.09347684643897393 0.11683375586230846 2.531388873415408 0.9885709106819811
Ni 5.076438315851948 5.2945317113602695 3.36051199983265 -0.8529534464542665 -1.85848001115398 0.5431483710351226
Ni 1.4766261106449894 0.9778861218987502 0.2006228284485151 0.7122588248139604 3.298592944116996 -0.15729854874557425
Ni 5.589845758286458 2.888249791611167 0.5982588948378795 2.5861585129571205 0.16013164731899518 -0.7077380541254714
Ni 2.0740524528735156 8.259564458945906 13.633848936427432 0.6309299467264812 -2.1092924100889996 -0.3655530197137252
Ni 9.387263487183201 2.6159752878118248 1.555840604497559 -1.0571340044633601 1.058531399031519 -2.0916222465027463
Ni 3.5682608826064124 5.6868465186782196 7.50356478264261 0.6286951438586915 1.3379267518105538 -1.1109708477781575
Ni 4.816959419270183 4.223621338736355 5.646854192888436 0.7528647712607808 0.5511401309913476 -1.253029696755842
Ni 8.226560359980045 8.412953430183686 12.008439900636231 0.34747302228356286 1.4660882739808556 -0.3609090931838107
Ni 1.328154228643658 2.800747953607999 7.751563020870789 -1.131676198646309 -1.364621744603237 1.1869515741798462
Ni 2.78554036511724 8.754840134821011 6.066550109624959 -0.8324792377603146 0.18841481053440454 0.15103457011373342
Ni 6.613894780459973 6.426738071397643 4.752301558344683 0.7662746169087835 -1.0925393805458474 -0.382911822707147
Ni 9.271786391478722 9.628461614501429 1.7400237783455004 -1.24756738808969 -1.4849272610642297 0.21745953450618677
P 3.7777121212749147 0.4381908773872567 -0.25276073715908726 -0.251414808405709 -0.13883442850311573 0.24299007467712347
P 8.092020230815319 1.8189784487327352 8.289690011921262 -1.3324037651097957 0.18012068884641239 -0.24689120950374252
P 4.434106283664793 6.666790740427832 5.230633764225857 -0.27806532111370175 -1.0239032674346882 0.11516510991063392
P 2.4111431329715005 7.313136532957619 9.624152642551229 -1.0965706131924278 -0.47109320494008544 0.7650381733985212
P 0.9384935319931095 3.6700669802065224 9.948001638586133 1.6520507663200257 -0.8472720797987731 -0.10252350988722345
P 1.546554942229258 7.1789409725462034 1.990884731026869 0.15151742328742293 -0.9719356161181455 -1.1243804363158445
P 6.866677868024682 -0.30377181291963995 4.088709634078192 0.21552246538447398 1.4909912078701224 -0.3386564524331974
P 4.684933710737732 2.6553678777174654 3.3569815670115557 0.49155070146348895 0.2691376796067687 0.6363194931731686
Ni 3.5034074556317356 3.5573184965215123 12.55582275341418 0.18084625415852723 -0.36784618662327623 0.4409727314056212
Ni 5.961104620976356 2.9989774261213484 11.36874149124466 1.9627495571980325 -3.287366736383874 -0.35814721416795736
Ni 3.068384748241145 2.300657627855538 5.036910692245685 4.8474360299985815 0.7886265022414224 -1.266707708463567
Ni 6.271952199808599 6.991141689322291 12.227324873010268 0.7470497072409005 -0.34876371607052836 -1.6140287785502976
Ni 6.935610244025049 8.257869553186374 0.5920883203528967 1.2910704535786475 0.8096879508974121 0.38199959530552274
Ni 9.027673398760859 7.138542614387654 0.21765663133182656 1.1020630037655665 -0.15219310919820886 1.0514395251817439
Ni 3.804048349230743 6.888283260124229 1.866019533694996 -1.6845762497515568 0.9021934144270011 0.7562393441599685
Ni 3.6138557100716646 8.234261937250015 11.503488361661372 0.10325653139850605 0.5438387122339279 -0.6416295925321723
Ni 1.762795116604903 4.813848987821368 8.402437564339372 3.659078319499828 2.131730941598174 0.7807249880061586
Ni 5.288180471096523 0.3797967176368241 1.6133183976175627 1.0428070463177266 -0.7592084540906215 0.019128750409650928
Ni 7.982410116586149 6.972795731375693 2.4243466350916467 -0.4611854589080703 -0.6292849549238905 0.26461408070480236
Ni 2.505080025259491 4.982296544845772 2.7048386380240244 2.4320725576115727 -0.12000983959744493 -0.7537541158442697
Ni 3.7292769297620927 3.358902770627994 7.430017047881667 -0.9557466650631088 -0.9205811729055694 1.0317626155781068
Ni 2.6164781719382795 0.8175368618440729 8.18766972293396 0.03521485733823613 -0.3119329203954241 -2.453527899271871
Ni 1.3254442419622063 5.477330091326658 4.461804955096554 -0.10052370584837526 0.839690153686457 0.855840023973442
Ni 4.369075915978956 0.39091511316598354 3.9321143109008116 -0.5197307634421306 2.363955293118361 0.2977954525527774
Ni 4.563179876121573 7.092631156176115 9.325095833950554 0.6190938733235015 0.2778593757504828 0.17468229143966044
Ni 1.283397541389164 6.571773578534865 6.866401281755131 -0.6643180352686237 -0.10700622824892539 -0.49373613915058195
Ni 9.379254591835956 4.613226159372853 13.25361172954651 -1.3139481295077693 0.12125013976244926 -1.3200910091807136
Ni 7.267951462928737 1.7654771652793295 2.6499646671587764 -2.0069838444260597 -1.2044651575835772 -0.4221872232680019
Ni 5.318595648078042 2.2416339316801364 8.801975277740258 0.09425509923084412 -0.06715078681488434 0.9558366536737539
Ni 1.2244949099108715 2.9753046215019303 12.09809855278175 2.7440257897219706 0.13317748732765453 -1.2136254839266067
Ni 5.841939708344541 6.493910352955417 6.993951321562133 -0.32878470184544023 0.5928789054910306 1.2960478521885808
Ni 9.032823304722518 4.797775321112825 8.334192463311828 -3.7965372078116557 -0.16042218197622046 -0.6692769219357957
P 6.028183775844048 6.276468844277685 1.7180924428306579 0.5555228334400756 1.0944275987074956 -0.5964311416186631
P 7.048060722301789 4.038206098778599 12.962283504955929 0.04652976813042309 0.3112603198084317 0.7174102871079128
P 1.8587807960747467 0.4715274386367182 4.175369606802999 0.47152309338865245 -0.2979394343298094 -0.06043352269570882
P 4.161105391682793 8.686885589066529 7.765628876141114 -0.5681274095779635 -1.0999498140773054 1.3478969756493882
P 8.398462917206576 6.200961723957369 11.990557713606252 -0.3911031002686877 0.053622413311146366 -0.9337382791128176
P 6.031517711349064 8.580600097673367 10.604860503159532 -0.8336442046026933 -1.3873842351107333 0.35823154635164756
P 8.805668682269 6.494254921708729 4.704814396536919 -1.327775779419481 -0.5955633943017291 0.8779160299368751
P 7.431845124808021 1.3448052808307234 0.5768444124530046 -0.019610575142075905 -1.0405470466389564 -0.9236415569984481
