# total energy = -381170.35645942145 ev
CRYSTAL
PRIMVEC
9.22908566880914 0.00000000000000 0.00000000000000

0.00000000000000 9.22908566880914 0.00000000000000

0.00000000000000 0.00000000000000 13.50769976657342

PRIMCOORD
 96 1
Ni 3.5004167655274268 7.289740822556592 10.016107729492314 -0.03614456824135711 0.7868861225115481 -0.3948558824429006
Ni 4.143139506629923 8.86375212010099 12.319494574510244 -2.3383473627422693 -2.461493176865535 -0.060684719474566454
Ni 4.493041823992093 5.942340489602458 6.0612563329538105 -1.3436615974118022 1.522461767674578 0.6701562392169556
Ni 1.6681110529798613 7.864925116201583 8.163365130083596 -0.1569491358259555 0.05184346703385265 0.29437665667921564
Ni 4.1728202454961885 1.7610110273044364 11.915965733125585 -0.250822940457981 2.188500128068418 -0.23843793653006679
Ni 1.0538877278036811 4.93035280982516 13.36291005903297 -0.39941084880343475 -1.4765668049146763 -1.2434055434025166
Ni 6.656939348332591 6.647691804693287 7.990925205558454 -1.5254779287930826 -0.7585258262013002 0.6602202110501663
Ni 2.916557131542172 6.975619669555278 0.35862011149558914 0.7952982578346433 1.6883444585447376 -1.7073413113622145
Ni 9.349986488001868 3.560276613875251 6.532850602576219 -0.7753259284777744 0.6617531027549248 -0.6849470243728848
Ni 2.4358232985804413 0.5513400284289199 10.552958093735898 -0.20370181860046205 -1.7375152638424334 -0.45857244676525544
Ni 2.5478828543373444 3.715269875230994 11.631182919919661 0.08303737613815376 0.057605052107978214 -0.5848750613499475
Ni 7.935361496496154 7.618693115905572 12.32075065304249 -0.02527831495081453 -1.1364602502985137 0.7167659686556946
Ni 2.7654585442540793 6.538723992568286 3.969115871038408 -1.582420150506081 -1.0189356390167676 -0.8505759473610255
Ni 8.566612484361471 1.7058118671181375 4.615257065398387 -0.13582186692903706 0.4992449847839532 -0.5993902242469871
Ni 6.752054303169573 3.188649029320546 6.08081553378692 0.6483545699608319 -0.553442039651647 -0.799568603075223
Ni 8.663148718360581 9.304487096642822 2.5976793078904614 -1.7766112014026305 -0.8786109991213706 -0.5222023649110749
Ni 6.421634585231124 2.9639854017641065 3.573205639707885 -0.942360730674506 0.5588799228377666 -0.18594500883767331
Ni 5.9207259714355445 5.777702833932273 10.057035954818877 -0.060771365651101784 0.5653182222639426 0.4019318154530755
Ni 7.768471943971687 7.491894710655687 10.011123100430847 1.2947872403086025 -1.223763343691557 -1.1785268404512605
Ni 5.543182543095617 3.062275162002207 9.354797610256528 -0.8062205611741019 0.7913770684033661 1.1800396775513613
Ni 4.702339024243703 5.982422407791573 1.6091722673617808 0.8867706521140277 0.08315564688357292 0.7652173792888628
Ni 8.146919822687515 0.38978950184790256 11.06770941282548 0.6015301534081253 0.2045006603526736 0.45410618346378573
Ni 7.93318343232562 5.765695793737929 6.173491241334614 0.6247351307696789 -1.0835600598653725 -0.5936173263189519
Ni 7.511884909780168 2.03112790079258 9.49460256565698 2.1878558096161997 0.0208066523327061 -0.9987265110587445
P 3.1441556082775524 6.475855462357776 7.932990544439332 1.0552650695754213 -1.8158845450809566 -0.50108615175775
Ni 0.11521405716999084 3.3360375242503557 11.803568392840539 -0.003520354448432647 0.5875690632423429 -1.1299394184608604
P 0.5965505494128058 7.346195138366588 2.756894875847982 0.4402921603988288 0.07972939481084333 0.0022926526889186323
Ni 2.21546042485226 5.391225650858967 1.6654050851205364 0.26678434888324376 -0.39901669868880957 2.6146270527104583
P 3.3842687249080377 1.1152888334247217 0.7419363327959796 1.3846478100161768 -0.4372443747114405 -0.41178505409807153
P 1.4416292955861532 8.593921348262366 12.576640891281148 0.07005793315935033 0.1812082654836363 0.014878459773729215
P 4.179003732759994 6.263568038414415 11.804054765644723 0.6800588430426481 -0.8015156994992648 -0.21275030195597552
Ni 8.729607362818287 0.4381139162688152 13.396611910437803 0.005586492948841991 -0.7908492209243541 0.7638994318083876
Ni 0.19398430164249697 0.09464427147809609 9.005353978442134 -1.6882205313723637 0.33289126781464606 -0.25870182898542543
Ni 1.1750933072597352 0.2022554080392468 3.9534605733584187 1.5076049051674036 -0.0550401195942794 1.1471606674351535
Ni 7.088048388730916 2.755075823102167 12.763898112525752 0.620402564832596 -0.8243473526817997 -0.04345832829395096
Ni 3.827827801603189 4.658316286559597 13.434825861728122 -1.5515332311192378 0.8888442468136046 -0.4594404511925055
Ni 7.3825392769410145 1.8591162058331698 1.7214210193707855 -0.10611842632733337 1.292731386220838 -0.39840040526104936
Ni 6.0954971629499966 0.46297061216076607 3.589090741616037 0.7006158412583934 -0.8680136832214987 0.8025145730774244
Ni 1.9319890646913898 4.454159686913866 7.9013560081794125 0.6012537598182871 1.5646959937534408 0.35069512876528636
Ni 2.9306499450523673 7.918020044901094 5.772623145290484 0.4802391331054116 0.7480971746688084 0.48621411974192386
Ni 3.8748961374918567 4.838744907466157 9.521306924459699 -1.441071440221544 0.36042366890695987 -0.6241342639608864
Ni 0.8611539672421477 0.01939215438613121 6.276244187305216 0.011666380594334747 -0.42883686737403565 0.5317779244146519
Ni 5.755497654295383 8.166125549547184 10.638637231590023 -0.11397931713264886 0.09123996655360415 1.1340904645147565
Ni 0.17835945994455285 2.5666178978381278 0.45942664334091343 -0.3004043509305343 0.6381706874492945 1.2336096403580172
Ni 4.556076477741034 8.471968212883375 1.2033389233356702 0.5372374048673264 1.2492141796644938 1.1520082253354418
Ni 3.5643466405668 3.1494531033363944 7.132254785215843 -1.5529082570898933 -0.5000823930835839 0.647891257171168
Ni 6.11321700704926 0.539363444216621 12.90160898843343 1.2691263452073887 -0.9016537398734472 1.9841388215070863
Ni 8.203854050941866 1.2988276561341219 6.960112037242782 -0.9386915093530349 0.2154723288728289 0.15188560526011907
Ni 0.19391600641003104 3.755702498667907 9.120925201219752 -1.2801869738969243 -0.6041912451800563 1.065671866731042
Ni 9.08978165230675 4.5465705197086175 1.738913827967527 -1.0179334230044983 0.40344002456748584 0.9489905772861981
Ni 8.737018318449385 7.9238343687461645 4.792450891848285 -0.0924697251956472 0.3980311948470887 0.8321311103922765
Ni 7.079649920954702 5.142298757606191 12.878659021599246 0.42815115416092064 0.018756197561580604 0.21508949161211346
Ni 0.5442585511490425 7.163533078776683 0.462389179776259 -0.8267464490415956 0.01736548786164106 0.9571198912615516
Ni 5.374751733297932 4.5012649391444075 7.469406198094919 1.024044678108559 -0.03318728538524607 1.2412211341566879
Ni 7.170141103972034 6.552355351805065 1.1583148298782455 1.4014512547267606 0.8041971029861698 1.793557856559298
Ni 5.209892579576506 3.0177448246173397 0.5618842585765285 0.11817278638870617 -0.7572649572110055 1.093721830889723
P 6.761947882791662 9.058568885252734 1.5433218196364407 -0.4541275236200244 -1.2848679243123615 -0.8609495772858656
Ni 0.45956415671439205 5.726776740317828 4.186144276186869 0.5927436654647469 2.034889312587076 0.0836554693381269
P 6.1747842362087315 1.2580443274494113 10.966577094263123 -1.137547055604789 0.6133700834658469 -1.2522966752445595
Ni 2.355465651407376 4.558743683441392 5.645205468405672 0.3917584744644995 0.3048736995557975 -0.14694934430076628
P 6.810326748816838 4.36172116686271 1.5853446144995529 0.12678906730280745 -0.4260654752764856 -0.28203741838757235
P 5.051364578486379 5.2242622656507525 4.231516306166451 1.137746573210105 -0.2567917564469061 -0.5341631368173768
P 0.5847493178244058 2.1333769386966104 2.6333534148598843 -0.17453805255231228 0.1126505710188963 0.5077437662835835
Ni 4.460047843442684 1.8663241215839639 2.8299984618429113 -1.0925771757623184 -1.6832619018155075 -0.9303390236232815
Ni 4.041241173973691 0.8375976494926897 5.295315148854611 0.6249814424525301 -0.9616794856077762 0.2674322668798878
Ni 4.17382621581224 4.006632103467317 2.817746850883655 -0.9139053035472906 1.2874451981212345 -0.5602636905591707
Ni 1.5376579298845043 1.6199721431768628 12.379658059769977 0.8921409152870056 -0.8564671160344798 0.9153533488477268
Ni 6.748334981725822 9.158861357037472 8.420699720198053 1.9766353140411892 0.01799283703299482 1.2767704920162077
Ni 1.9086302493709546 2.089326513756098 5.26147855280194 0.05831750479397053 0.3342958614716565 0.5779523660881852
Ni 1.0861895269429631 6.54339390981528 6.226360980348696 -0.30674032045089106 -0.08914477458747228 0.6647985744494679
Ni 8.198390432344594 4.240570961919466 3.956148083046807 -0.752339237774614 -1.364145833408083 0.6679887992519915
Ni 3.400853391494692 9.039197034854634 3.234864597711937 -0.22096600499754848 0.016872093164990297 0.2105136993159729
Ni 5.146304180699462 1.6676772859628481 7.598067032792319 1.0631712117963754 -0.4246881353129847 -1.4770717695755529
Ni 4.408854106349656 3.030388671709001 5.113650753403835 0.6065972835183876 1.5074544956324682 -1.0863669331865484
Ni 4.928645429013512 8.520383995250423 7.426087639632048 -0.8560487975501386 -2.1768327190328187 -1.7505235031766433
Ni 3.010426159840925 0.4296268492721056 7.574118478910456 -1.0023270839258092 1.3399306696144602 -0.11090864862712513
Ni 1.120032583355462 1.8549908046288102 7.838828954131231 1.193549796222654 1.0734278565273772 0.4058851436738687
Ni 7.312139812988317 6.586512197123487 3.6660299355316197 -0.8076477805389317 -1.1447001217098027 -0.5565592451243899
Ni 1.7028862470246657 3.9488303411789394 3.5786895622931882 -0.003158600233639722 -1.7652381836789985 -1.091130930234095
Ni 6.344867052305253 7.417480594524249 5.727872232762923 0.1718695045812137 1.7481133510732538 -0.6039300210988695
Ni 2.4841744773492125 2.89080798308543 1.4306005384514555 -0.7051435539254178 0.10921969096047641 -0.27432796555845657
Ni 1.5661942621526925 9.307071240573965 1.6420231970864305 0.9127279954097377 0.25248413021048777 -1.5774196119676964
Ni 9.26969344442708 6.012970680691866 8.461519965224637 -0.43879089326295406 0.4700007432068551 0.4119316069782647
Ni 5.652676413092315 7.114821965674646 13.193713235141411 -0.9226311134560627 0.09522106268853923 -1.9740816943814
Ni 4.816336687948963 7.2847663454891425 3.6685430155046554 1.9385629326495 0.5537230612271754 0.0868130411305021
Ni 7.380841125214836 4.099245976142373 10.91112782586063 0.39450904062644315 0.5142573990323853 -2.3013743850623465
Ni 3.128401559383051 2.5127938713866156 9.428117156851416 -0.46935848163716587 0.1705530997626353 -0.14869126669253746
Ni 0.9347125471506674 7.7185518206732935 10.569869469948133 -0.8342743819875245 0.925083174540981 -0.6708131560746641
P 8.981949017694358 5.775284813539561 11.04358458341117 -0.41525578625549125 -0.3075553601530187 -0.19715013352487334
Ni 1.9661274518388767 6.236416068966481 11.781564407266861 0.9584918319084137 -0.9162370370042607 0.0572021602426047
P 6.276664110694027 0.7416456166037261 5.914076415355587 -0.13060818393858153 -0.17391687402854564 -0.1545883489032628
Ni 5.022191439320873 4.059090225269511 11.467158998433119 0.030472457557244294 -0.09454589099838556 0.9129151717198792
P 0.7465785627865679 1.8605651722517031 10.186197005948662 -0.2790814210830419 0.6949164768807709 9.950169234176413e-05
P 7.42431011777084 3.879796781875559 8.082034737302166 0.4366990437309317 0.2325323696789092 -0.1799751644074836
P 8.27659770260353 7.779389952080765 7.401395221461434 1.7247584783973973 0.7246890801575132 -0.7889826000292606
Ni 4.470698208073178 0.39596745166042696 9.421066135553584 0.2326257007236639 0.785388712030415 1.2972056199421078
