# total energy = -340867.29886016523 ev
CRYSTAL
PRIMVEC
9.27398430378807 0.00000000000000 0.00000000000000

0.00000000000000 9.27398430378807 0.00000000000000

0.00000000000000 0.00000000000000 13.57341345729283

PRIMCOORD
 96 1
Ni 8.955172288519256 3.6888013429017765 5.325678073539122 -1.2822127460777015 0.36197301567195084 0.2938788911071907
Ni 8.392649512723294 -0.0681081387735021 12.623083982375919 1.0019697005863906 1.6272928426490556 -0.6530532609880817
Ni 0.12177761179857481 1.909800806885357 -0.03775624381463531 1.1271168614104008 -0.35403422044084837 0.16867002380730953
Ni 0.6775044120916468 3.8005064806369115 3.138484984896349 0.5923744550507862 -0.12412694708961206 -0.2063513404081672
Ni 5.944280630811577 8.982660377207255 4.432004512713909 -0.4939459411685429 -0.17297173650645692 -1.09037682567689
Ni 6.094324418558921 1.4121124534975587 2.145753218368329 -0.1558373908190155 -0.6835516866872551 -0.057342542475210916
Ni 7.207833134007838 7.050806036280042 2.866867612999262 0.29544572137367825 0.48107191341935207 0.19758439284881454
Ni 1.3494852392903882 5.322172507572839 10.864200572534266 -0.22657280966136464 -1.246251497491744 -0.6333454981465093
Ni 1.0387047602001338 8.165390533877343 4.778207901234892 0.44937843897081314 0.34539608514987613 0.2611639173726728
Ni 3.3509315564371485 6.9983802045144365 5.096912072287031 2.3840201821890363 -1.20397819064483 -1.9651764214719707
Ni 9.179899469722892 6.009254162980308 4.545247277002509 -0.48481698228408115 -0.4304072971849491 -0.704166020503497
Ni 7.694884227704296 7.220399382379038 13.252524117394932 -0.3039743276699797 -2.2343850635259903 0.1073247879306087
Ni 4.3728040356087 6.7595472935893275 10.498600646398254 0.39368243096008976 0.8810890283482181 0.607489970535986
Ni 6.576413930795162 5.776727561200894 9.997890829010943 1.118801656676486 0.36995654809805967 -0.09660791573373684
Ni 6.082898870224368 6.656114549615897 5.060996714303895 0.8929587832026106 -0.17095264919389913 1.4417044458198527
Ni 6.192628649359454 8.14893848619431 9.542991710575087 -0.05545998074051739 -0.4205103497862113 0.25356630753107295
Ni 1.3735790498205567 8.580475511440579 8.224483432767713 -1.276181709392273 -0.47644444194966984 0.2527723508748679
Ni 8.731177752054606 7.536187812849698 6.653727426124572 -0.4328351899001513 0.06955579671195117 0.060871895784708065
Ni 1.6048629377389076 6.238952199628198 6.200728547018057 -0.013605506598576568 0.4950648852643345 1.987411321610771
Ni 2.8103603008586266 8.231096710785058 3.253099371424138 -0.7548776879257516 -0.023489341371191807 -2.113675369648044
Ni 9.046122249977826 6.373573351920702 8.984717346866836 1.021489515786873 -0.43570351258688184 -0.8548244382247343
Ni 3.4696663740729257 4.271068430714185 4.206156106840104 -0.7779271135460474 0.03801478868087647 0.055565138859813984
Ni 3.00916669667665 1.0573083721799328 7.225983248168189 0.43690087532909266 0.6774054645802011 0.7887694555771899
Ni 5.398349012459215 5.081531169760362 12.42014788146587 -0.5587284848615668 0.9121633811555193 -0.47025785352298366
P 8.46584906873354 5.527535610105577 1.1236665101655048 0.5413730243022548 0.24358168551453535 0.638767697603345
P 3.891864497393144 4.757488893496073 10.595053789984846 -0.8474718545144049 -1.5779279190626825 0.5451134651812934
P 0.06636741196960962 0.32679108513308863 10.280421825323698 0.5707350224041396 -0.7004361211474195 0.756618067655626
P 4.359996663652518 5.159033854364141 1.090332101940086 -1.3173131893252603 0.04923893953147004 -0.23623347267958025
P 8.106825324678722 7.987339314335885 4.598292610901838 -0.9926090853070969 -0.2605872189335964 0.5593743459756817
P 6.162358365460121 3.1123026731608707 12.340906324855005 0.6766436467135121 -0.21469611282843667 0.5719128447623247
P 6.403379936618148 7.266602370855289 11.525660064842139 -0.6188185081749278 0.3021712130229699 1.3737368195306279
P 5.513726647873313 4.533846768424858 4.762748169843902 0.2106761930357662 0.5857842034277781 -0.1596937884506282
Ni 8.111972385819694 9.353647560670819 8.137071496219558 2.768222184462516 -0.7080059630748774 0.9559477253303214
Ni 0.6920469464612995 4.14453419250263 0.40333947677938 0.12519344068091343 0.5650192029662849 -0.13194490047213406
Ni 4.419498545238954 3.0709407043523447 6.588819739242509 0.5236671223820595 -0.5067562055593337 -1.5249940471781283
Ni 7.456598481837417 1.0373785804827302 5.6215237287349265 -0.09195139079833196 -0.24773376000969588 1.8875962117936458
Ni 7.7318410540948745 2.4511881730592036 3.788706263347233 -1.2782085100143148 0.6004626313755596 -0.2496456323204281
Ni 6.187833999611919 0.8841667997880791 8.461978107796169 -2.353959872468546 3.087644985477082 -3.1910722381254977
Ni 6.330143284671749 5.775781614829039 1.0589823262987532 0.21548569860926756 0.2952264062740206 -0.11970413543156803
Ni 3.5009660702004544 8.306262351411316 8.866410987293603 2.456126770347299 0.07372355493639561 -1.358551627149757
Ni 0.9174056859779086 6.966626083169056 12.46436994695165 0.4733066676516364 0.6332202854225546 1.2209011916524135
Ni 8.002372442461136 4.752573681956046 12.543977825932007 -0.080646507308474 0.7699278973906547 -1.2553259489891864
Ni 2.8472522093609403 4.956675522659646 12.929272911969067 0.2591494580458053 0.19673335770242892 -0.47445389388220216
Ni 7.4933420065951255 3.3532593264306327 0.802891458477728 -0.20107620805215692 -0.2516480074624376 0.1809033326487078
Ni 1.14202621636511 3.9483337861992243 8.416045919653822 0.757917760303656 1.2831869370655127 1.002554369445267
Ni 2.2197466274122104 6.686282819690816 1.3969893677271406 2.5362996804534643 -1.1826051242856923 -1.6699741835676658
Ni 1.794126403982049 3.9831946921972627 6.251615824831795 1.8262499474756804 -1.4263320771288404 -0.30498759942584247
Ni 6.303100347217565 8.29953871298392 7.073390969607263 -0.31285954597475146 -0.07694540430780296 -1.6512850917985948
Ni 2.883708240613478 5.636096867251903 8.750208894698547 -0.2402410511770766 0.009612840499415702 0.7231664728653998
Ni 5.733937398850548 3.7562973987287847 2.410312161014257 -2.3266863814645733 0.5979378080711766 0.09461376812184351
Ni 3.4977572717233802 0.4254597835063077 4.915869065494983 -0.17218369338752282 0.2869556816247961 -0.1764434971051413
Ni 4.130558298557686 5.418000584635284 6.824142447209316 -0.6322970022773369 0.6957911661762404 -2.578658862145965
Ni 8.015458033938453 2.3458635363420655 11.8051501217889 1.8587690031493083 1.3005426547351409 0.03387968346658036
Ni 4.214562045971954 2.441478311771642 11.530098593602622 -0.5935597336081391 1.4824255776882986 0.0497683296723788
Ni 1.676393176622353 2.8227874394692605 10.988207650095525 -0.8496768325855237 0.856363757687396 1.1019269924083346
Ni 7.515089499163734 4.6021682088312295 3.26439230178695 1.231145495088241 2.366380871840718 0.4120339368840839
P 9.021685302038259 5.309031272191296 6.770893085661155 0.7698628484806741 0.22274957926053252 0.6302802289576243
P 8.830112613769709 4.11474615577326 10.407237992650002 0.5325844794763472 -0.3098904360440986 0.6558292810713221
P 1.133308671369591 2.2819101424174915 4.8559832409693815 0.7246872803853003 -0.9479148277235159 -0.3241821700764223
P 2.8812506348434646 8.313440415056562 6.5361008495813095 -1.7949547369068248 0.2214874247186573 1.691749370461228
P 5.216847870855702 6.749086239594704 8.088627913199778 -1.3543175344637515 0.36682880110235533 1.57471172611823
P 1.9729937341188322 5.7493878562575 3.7166038196486557 -0.7546311191325843 0.9817747136957542 -0.8557852594761068
P 7.911134987497395 2.3432668208114853 7.479343855088492 0.44101284061493723 -2.4789162574379886 0.09234862623675062
P 2.9422178059078714 8.061354980941458 12.976535916820836 0.16510133261944468 -1.490448705103091 0.6385226714720744
Ni 7.346089688043155 8.895382913427648 1.2466042973672065 0.40286229768714493 0.6845024806362985 0.6517108880275744
Ni 2.005489774187235 7.4045065134971715 10.270485678825612 -1.1028441049059652 1.0986794320053144 0.9613465277483895
Ni 4.707613407340859 2.9437943831942954 0.4485863175013352 -0.6728736381481185 0.24371589709955443 -0.5848177257494508
Ni 8.000897878999128 4.264066572765657 8.437966835723936 -0.24151708967602278 -1.3055087404911645 0.46084170241540634
Ni 4.971940500385841 2.363808695455182 4.191388214658334 1.5593180172709789 -0.8131139458598255 2.4840090985798637
Ni 0.5220130861205078 0.590376259455049 6.490073139403372 0.4653401045063921 1.2940418775021456 -1.2800995563894406
Ni 6.002558346505026 1.0996348353283891 13.210106769202904 1.6019973013070603 0.5308119609569567 -0.06797996758439906
Ni 6.790986099477422 3.349976336081257 6.109257387656564 -1.4800017987381544 1.0521905444151556 -0.7794124398423222
Ni 4.322974919373674 0.11782040280965142 11.99410569176199 -0.8251315391459918 -0.3447489384841804 -2.113757387838889
Ni 6.933406672345706 5.8526165725820976 7.299442475731494 0.5322126979592253 0.957066412315797 -1.3124167804649074
Ni 4.933768782086314 6.257036468501881 3.1669755912588324 -1.2779385441823798 -0.9535391158888288 -1.4287167753109329
Ni 8.757701346402675 0.5073527721535752 3.7530895276501144 1.7263191380162979 -0.6594352532550255 -1.182196575993364
Ni -0.007178991043650323 2.0954474193537616 9.045186504988413 0.13407634499284007 -0.4944905008181032 1.3375721966846126
Ni 5.446833401008761 4.470097402149116 8.382871951352255 -1.4027303785495002 -1.1212894560953464 0.36154826942970636
Ni 2.6508106794725523 1.0018406736499335 10.050963057463983 0.6897051078831605 -0.5198567474970337 -1.411341260146963
Ni 0.343877473324306 7.1842308446316725 2.2634484223934708 -2.1631814467979713 0.5363123219498958 1.1143621328478936
Ni 3.7192571064818667 0.6114207840335935 0.8144820837281532 -0.2252353217968637 -0.1331592324952094 0.610743187365961
Ni 2.7336644528661345 3.711466959890126 1.6287684863931091 -0.02130107547062138 0.33269637819502057 1.0766692462828102
Ni 5.274059078384805 8.180266004273951 0.044052351577888386 0.7283233344759908 -2.0581876209933845 1.0733548371975965
Ni 6.431470834268602 3.489985673099715 10.143804911666262 0.23031890696735818 -1.8218006534550755 1.464169459691588
Ni 1.4590202647606814 1.3395064324657302 1.9009293137548104 0.3753460945447471 -0.3645703440854818 0.31231447210455887
Ni 1.6705969365987363 0.2808004708913029 12.094304597501443 -0.9521031547732506 0.4262680782055949 -0.0226493619683997
Ni 6.984506324393909 0.9277044452518702 10.540908561578634 0.5339222244511643 -1.3857469566176261 0.6051451244528933
Ni 8.468631263944877 7.619774230982266 10.744632023733491 -0.17551224354012354 0.5223646015205521 0.30387379753637345
P 2.43876103444857 2.737884115603327 13.223422355484358 -0.5500659240905623 -0.5869391429678279 -0.648644847507741
P 8.476022629222992 1.770004771499767 1.9188596344934665 -0.06681448652138816 -0.9174202586790846 -0.3289217416439368
P 4.901968290820745 1.0262127037012356 10.026653163105735 -1.9181067216776773 -0.4287725897950035 0.636174225844556
P 3.8386967469045152 2.02021686083924 2.5583444216238047 -1.179331081520111 -0.2854143052796052 -1.3045548612183275
P 3.185650612915722 3.055647904674035 8.203553905591237 -1.8013390431666139 0.8715522925023764 1.0408144413677303
P 0.8016747117719705 8.620585492404004 0.6258399744155435 -0.4428969450115276 0.7325707968984351 0.0046886637249209575
P 4.76621571247563 8.30930421817571 2.541838584833353 1.4495342262769166 1.0971537393894073 -0.8414827268105056
P 5.198735780029904 1.0334278632826335 6.205492592618269 0.32173807941130395 -0.1620383774234048 0.0467367419349066
