# total energy = -381169.624142305 ev
CRYSTAL
PRIMVEC
9.27088419265363 0.00000000000000 0.00000000000000

0.00000000000000 9.27088419265363 0.00000000000000

0.00000000000000 0.00000000000000 13.56887613127845

PRIMCOORD
 96 1
Ni 8.480457808708739 8.925247016023617 4.370127897169519 -1.2932137251738953 0.4436407651560875 -0.3486942962851737
Ni 2.2945716317830285 8.831481294057204 11.748041176738763 -0.01940488688917303 0.9769739498730012 2.674008994213201
Ni 0.9397802521271007 6.014819823185916 9.291708377604875 0.3546507709789247 -0.19972560756153343 1.112339188880594
Ni 4.047121023624744 7.779671678251819 2.002603678264312 -2.002764664138389 1.178143746080229 -0.20817348121857052
Ni 1.4401020553070003 0.6499362581597491 3.303112177234284 0.7149417709627622 0.6680525626103915 0.9008772667187388
Ni 4.752301553153453 6.806423534459823 8.825942867885288 -0.7046092786885026 1.4416036585759302 -0.2865813290045129
Ni 1.824185513419181 6.43036866199357 0.7114485742806866 -0.8273717413304202 -0.517292072093651 0.6086698497767
Ni 8.231404777770855 1.6970538795131649 5.3078861694705495 -0.7562614556471556 0.3051853172589454 0.4059051982785268
Ni 6.069045224390341 0.599767795845229 5.231941868043588 0.25937108713830814 0.4336818541711628 0.753304944121993
Ni 1.7217793274550701 8.73931943504315 0.8654815326310318 1.0055185942799134 0.5472143135743802 -1.157728929869303
Ni 5.701779150067668 5.322433113739632 4.8875906379946334 1.314551053199091 0.977369128428891 -0.35768210160608077
Ni 0.2499050251883013 6.904472404888614 7.117336539673058 -1.780771246317591 1.0741490509641178 0.12984662318220866
Ni 4.1643698950612915 -0.06258681159017888 8.408659446659213 0.1794007799612523 -0.6179322489152326 -0.48590738713478254
Ni 2.404440879461887 3.3086672909976094 12.14687183021697 -2.5689717167651884 -3.108492261239737 0.25422245305783314
Ni 6.538921444127715 3.267421127557964 5.768509119770047 0.029554573728665226 -0.5956947776732708 2.002930500292292
Ni 0.461496267583385 4.244544500911159 13.405017951299524 0.12654558383343367 0.04417746584816262 -0.626450827909205
Ni 5.549375086056803 5.788860564585221 11.913459707874054 0.06960053390695756 0.6808977940041757 -0.7956430427685717
Ni 1.232499147259351 3.168046520700341 5.3851478635306345 0.4511162475975263 1.3977429526372378 0.4420952750458387
Ni 8.130250161162634 9.100503809384612 7.041595270608275 0.12696467364872327 -0.17026642176015191 -0.3702455400933881
Ni 5.371401923649322 3.3515080465055003 3.822963097808118 -0.1393134250220633 -1.0703520458155307 -1.3856230294452525
Ni 4.579890921216593 8.101575316586588 11.0105460535294 0.9352955962976085 -0.15580910868424136 0.6439394716122716
Ni 3.3264303049671224 1.0333049311064553 1.692242290656079 -0.245534438365532 -0.5777348507607405 -0.7392507800217721
Ni 1.1770314475831536 8.09579955578126 4.915012986126377 1.4256507347910996 -0.3937986448229799 0.9127511353381894
Ni 7.417810529369764 4.8408014129410155 8.45026161204898 0.09987861606520863 -1.7807586479121007 -1.192225935204908
P 1.7726764812612414 1.45831934259828 13.471559722054314 0.7784639598861238 0.688182500591047 -0.42582044914521505
Ni 4.784267561591282 1.823443842689765 7.050537038339797 0.4963797474210161 -0.32460485943613776 0.33615219795410495
P 1.8397605987369166 7.177722443373695 2.9712720053021644 1.7194483790383936 -1.0759007435479018 -0.13579975544185
Ni 0.09741474195514135 2.1631197658781645 7.177053085540398 1.1919667680062505 -0.013954405297563064 1.659911400015025
P 5.385447313087637 8.328572914208465 6.616143273386095 -0.19001532225230502 -0.25335573418216367 0.7959824283858614
P 4.005318607138036 7.87184280814999 13.221295913650657 -0.9375411977986756 -0.3016647057001966 -0.753610905398186
P 1.1575625909359843 4.5724371303859614 7.77332390389643 -1.1437750387923722 -0.5838535620639687 -1.2158469170579576
Ni 3.2169318926529713 2.807149543766527 3.0377321922767186 0.024538608571312577 0.2580348848253879 0.9503499195275698
Ni 9.037313463238371 3.118641979237119 9.506544429441155 0.9729805124428922 0.8572137643925172 -2.0623224690973645
Ni 3.8408809355423963 8.755840150540891 4.58674117749116 0.04524601632199304 0.20838405456747983 0.2785432891913848
Ni 1.2115562200374672 6.710803635669868 11.791963844423188 -0.9613313582397379 -1.280250480145008 0.6770624794184855
Ni 5.347093665492713 0.6417157652125848 2.9224784151022996 -0.9169039811642983 0.2668589108749211 0.14939703451031044
Ni 5.430225683376126 -0.020845582938647772 0.5862063465578579 1.7026701311387902 0.20683573624375348 2.948761706013902
Ni 8.140132923632102 1.901671562874915 0.6184866379672764 -0.8388607158066262 0.8830268688008792 -0.40744580329276925
Ni 3.5183005226670354 4.315197908772149 5.3636950376822785 0.7038312628718976 -1.021331135832138 -0.630086110668947
Ni 5.66658687395688 6.389020518828629 2.5216943863404944 -1.2857878650234695 -3.181052391995651 -0.022068292653949093
Ni 2.4860524723499977 1.2604137793377446 6.1228738317545295 -0.3343236293857984 -0.9301870714264495 -0.4997106115664619
Ni 6.038117554973695 7.261800091437114 0.30099594047253253 1.9388876629787704 -2.6195085491724757 -1.1390799473095479
Ni 3.98103816163378 0.8336712750463806 12.954857193726848 -2.935975095772195 1.5083507821944926 -3.0710094338029306
Ni 6.825354679828165 9.580068103024983 12.35622600827445 0.6052158297898286 -0.5835123766744661 0.050332943926597186
Ni 2.7928723822252697 3.236465645488965 7.345062828786587 -0.5468031941788905 -0.7712337606862717 -0.6725512218116934
Ni 9.468261240565525 8.212798113346631 2.3702109211225166 -1.4928753122667129 0.49044846953824567 -0.0332523342952266
Ni 2.400148460115392 7.569537818840038 7.494321281816316 1.5333483326800945 -0.058631179379647416 -0.141440241557079
Ni 1.761180584955294 5.8103875575065205 5.918648306790959 0.7515247122931187 -1.2560216895046306 -0.9489728366743849
Ni 1.849226171421088 4.620664269566236 3.5065227914839094 -0.1362970067932427 0.01460438017673614 -0.647637232178833
Ni 6.527101066877648 9.039343786860147 8.846107040841286 -0.8739794138866303 0.036721009570117404 -0.058997561580130656
Ni 8.226120373823765 0.9041726404078396 10.046558595882573 0.4322530921444362 -1.2379077535127392 0.3112963152526897
Ni 6.374938045853843 7.897652949533665 3.880535288179033 -1.1569378014265752 1.6293702940033743 -0.35045884438476416
Ni 1.1447687708535588 2.458703364202784 1.7651615025954341 -0.8476389762198886 0.5457513558756085 -0.12464425304566276
Ni 7.728366605544469 3.954727392507748 3.969303076517596 1.2752982783460554 0.995766399989156 -0.4379699400235554
Ni 7.788154537219514 6.8492921026200655 1.9594273167513607 -0.5222278188323715 -0.6622740082554014 -0.19235913989413322
Ni 8.288151859455294 7.386178272760174 9.039042483126323 0.6291178332184069 0.8651376472252842 1.4196929745457678
P 6.420430274219395 6.210620895751734 9.789306395030994 0.6056765714763311 0.8749536048744416 1.2326220796337672
Ni 7.987840110230648 5.065722332520528 10.624958858013326 0.7692401272950107 -0.31552732261490174 1.889238118272443
P 0.6859378824540123 4.238240299711123 11.249479914452813 0.6323944470871495 1.2013381819188214 -1.0568717519409088
Ni 4.017389298259281 5.777067999987507 0.26119139951318887 0.8292818138689396 0.5914213471088975 -0.5061404263522057
P 6.585563262123863 3.3509610643425556 13.101143401308445 1.0575980885839722 0.11367824095246229 -0.3551436514549432
P 5.407308057837173 2.0800155606471042 9.365713210074414 -0.5465126595216653 0.3518852924186456 -2.64287422048161
P 4.145670521795892 1.823295508543882 4.942273093786062 0.5768542479280001 0.21038051617221834 -1.376395083089081
Ni 6.625928691572327 4.255956959260047 1.7853247484630193 -0.38035228951008687 -0.6511187629695303 -0.4070462538615055
Ni 2.8415352529590754 3.2380138831366203 9.59628936896572 -0.08432447038069349 -0.7432164495377395 1.2100935595139484
Ni 9.265989090885553 0.5207937694886041 12.75019779138657 0.36000406487103803 -0.9954177584004856 -1.1765527474440254
Ni 4.412245523716228 6.283045042479204 6.433926827317943 -0.8214180948501465 1.3922960705900538 0.5564468879162416
Ni 4.419096707079208 3.716131918854629 12.410541337054818 2.948789473928044 0.19349042528509902 0.15862523797679778
Ni 5.088426727724774 4.108522089136269 7.468268243268756 0.45035931482684377 0.763328389796266 0.12170008281567427
Ni 7.374051956334221 1.8097229341955694 2.8652038201115624 0.5401586922791795 0.19802816525445252 0.5894266852763719
Ni 1.3702830270166038 1.5871753609501882 10.691636910764647 -0.4348974717458188 -0.3858212830444581 0.43311312615188635
Ni 3.577801056934432 6.385886959996846 3.989764844853771 0.1070468516788737 -0.23869504684619536 0.19606332821859784
Ni 7.186557595937862 2.0469741296516224 7.980357579659253 -0.8884205290126247 0.390243837592186 0.2221731379317722
Ni 4.98195989451711 4.427820609033964 9.935239381927707 0.6039619027780695 -0.7482897502955886 0.06779433393615421
Ni 8.503477413972988 5.01114463771963 6.229729115006725 0.4247053617041654 -1.8377371221796737 0.05417391493924219
Ni 3.214159898301779 5.252901482856885 8.414711479811249 -1.355622369318104 0.6309697988254811 -0.06043635090918625
Ni 2.587735529352928 7.9251503918267625 9.825467478532081 -0.5198163811774015 -0.9945752078945322 -1.833500972611139
Ni 7.657796635640539 6.8303794990199584 5.190311890001469 0.6966779396565679 -0.2650575960001242 0.8897940123213838
Ni 2.8455402748979215 5.208577385890162 11.079339722036377 0.6995999983993693 1.1425259968766195 -0.8247235050742957
Ni 7.635166407509233 7.48783351711075 11.370595671654854 -0.3845575858406861 -5.733560049667544e-05 0.448692211537066
Ni 6.189640884993379 2.128326137784437 11.239439546953346 -0.08409512797870679 0.8037253055560738 0.8376427842391252
Ni 7.428954132079239 5.272833883709938 13.217251953998515 0.9537329770671896 0.6213101642485299 0.3807143008351959
Ni 9.323357321805878 6.003166321849967 3.7770462629499746 -0.15600554096576358 0.9916050695226148 0.8372728024942161
Ni 1.9939724851507332 0.9410874467876963 8.494618157110114 0.504991143239111 0.9064390770772325 1.0258454787627236
Ni 8.903006165025257 7.514311162150901 -0.02943969251575539 -0.07647514953960377 -0.3534246118813074 -0.15191671560837064
Ni 6.856634642841284 6.811040434750438 7.452501250649785 -1.2391483107880594 0.6326171046209169 -1.8595627026951975
Ni 8.539745112641429 2.6089843957506957 11.60720995737202 -0.8341003183035054 0.24154665736237757 2.7035440275578404
Ni -0.3831832552643521 4.765188082077056 1.862545650632987 0.6132998923495437 -0.5189964563792675 0.3394648072671057
P 0.38994914649344936 8.276915547904641 10.656153528892563 -0.6858479389205995 1.04302996096181 -0.5757800410272148
Ni 5.342921767639749 2.1450230000804145 0.6900828947430359 0.1297939155674023 2.2430496811795244 1.4390335838559087
P 7.162620173145962 9.043867978309585 1.9568351775520518 0.5301455310175516 -0.13817185521845235 0.19353207715631188
Ni 3.83546673921766 1.1279235744116982 10.441222914038283 -0.32783879299240315 0.08763527992148132 0.4489300385794849
P 4.428302695008084 4.410317179819747 1.9982204042534635 0.5072675979781134 0.04372443747114405 0.7952846309878885
P 0.16189281390533097 2.469986030174024 3.8054865541578424 -0.051961480668955666 -0.14613456170895478 -2.5541089407207433
P 1.0563523490230566 9.138709122833653 7.025245139378301 -1.7342448206212777 -0.5642769254836217 -1.1815098343389847
Ni 2.6790444670281524 4.050467812791234 0.7817830637280271 -0.3706623159158326 -1.0531223122008058 0.9982603700556033
