# total energy = -340871.81435353105 ev
CRYSTAL
PRIMVEC
9.28118228345049 0.00000000000000 0.00000000000000

0.00000000000000 9.28118228345049 0.00000000000000

0.00000000000000 0.00000000000000 13.58394842811201

PRIMCOORD
 96 1
Ni 4.823421230469723 5.8665426055613095 2.865832374968904 -0.32253614983256707 0.663828754337031 0.9133604867874141
Ni 2.779509953374187 9.275697256532176 13.348144603900844 0.7352647987908305 0.18339961670800026 -0.31965188630623653
Ni 6.377972882478916 2.424133477924579 4.128651403842426 -1.8660776209955798 1.3855461534607298 1.564876228085047
Ni 6.378344129776331 2.470762138479785 10.948227587186583 0.4151038340586593 -0.046283970668204166 -0.16182600430228258
Ni 4.5486332621062715 7.5000956824602145 8.731830175121258 1.1539838610045738 -0.6112905752289988 -0.14709949672538536
Ni 5.726350344875326 1.4424071246428423 7.1284762096305 -0.9294507074810574 0.07014637910809855 0.08268770610821888
Ni 4.675404932990737 3.518394168234953 12.926145944693795 1.4562751445451758 -0.5025925610999474 -1.5726332463226464
Ni 3.8367480069499433 4.757561959908469 0.9889452569799533 0.49204872414582995 1.2748092545247787 1.6731759783344153
Ni 9.652058485468112 4.126775676872241 3.8306196421878806 -1.4849578571918491 -0.02982891043597443 -0.9491397012695525
Ni 7.462163489846934 0.23415866413445632 11.900164129205573 0.6599751849188956 0.013396218801247898 0.14330506267995965
Ni 8.132172049854956 7.030718443157185 6.352832015498037 1.7408736387917052 -1.26119526328577 -0.5504564746607616
Ni 1.1148741964992892 0.7966243070275743 6.924458185454847 -2.670192705790905 -0.14323769977713396 -0.8890777029806495
Ni 7.4904525339098855 1.5272835380141316 2.3631728154527036 0.9173143292288394 1.5478665809009278 -0.707371414814672
Ni 1.1387361165405776 5.525171434406647 10.244022510495508 0.4002045483493237 -0.9352760559135828 -0.14074501526226726
Ni 5.452564744214892 7.582698206134843 13.370966103391128 0.3292187040590652 -0.20489095381255684 -0.24113373819467507
Ni 2.6460836746835743 2.9044996372310647 0.5704929375814535 -0.277525903670464 -0.9064017960813938 -2.2088516951415764
Ni 7.150157979917723 7.172098695194895 9.419435857026707 0.3270273528347013 -0.6849758207282913 -0.7191632652432776
Ni 0.26252010142040333 6.41739934546429 8.204297046678317 0.768728734876231 0.3514754585747366 0.15116132549958483
Ni 1.212419423894833 6.750705169082631 12.321579002037437 -0.22227418228601073 -1.6313970946254164 -0.7283601012511972
Ni 2.9636300505266893 7.52913650230043 10.753610472699698 0.21064688245972754 -0.12012039703338023 0.34289697287710624
Ni 2.033404978578718 4.815402288845579 5.348517120405141 2.418008109098707 0.0325337109616472 1.0701088194564732
Ni 6.543966830335178 5.322785970221373 4.653358412233803 0.16134649356270275 -1.9477224876615808 -0.2558975267674109
Ni 5.540726696168296 3.034761032711223 1.691745162650316 -0.5812917148740634 -0.7915390479025272 0.3729372279929384
Ni 0.5409704243728439 2.8891671238478644 10.910572901928118 -0.4548073232958683 0.8029526890561074 -1.01096599054773
P 8.60313637135443 0.6982214983750039 0.5865141147013571 -0.02131727342053748 -0.46733476633891774 -0.6794602902267008
P 7.143401279104788 0.4419207173045296 4.289634441301841 1.065452294521068 -1.4406610921570029 1.1619704787544762
P 2.553912251918099 0.7390178638878347 11.043478506284108 0.12005971899877389 -0.3493658684309015 -0.12918225012533235
P 4.280110091886683 9.096496186070409 7.199411358865647 0.671580887478624 -1.1948916549625292 -0.3417356055791534
P 4.43465106061772 5.463683600772444 5.524293434548263 -0.2230627396255771 0.016303365145713858 -0.32043144478473845
P 1.4714293821181865 3.0270112453777047 6.968851009161376 -0.01699704877862879 0.5137850873816571 0.2704985645100374
P 2.9265702890623313 7.472047949140583 1.121003489379595 -0.600003946571586 0.04829688733317489 0.5900036408257645
P 0.42641278957330075 7.523595636386526 10.10379498131627 -0.4579880350166951 0.5155213533464734 0.5814961175753857
Ni 8.755700448226738 1.9821450079882716 4.917443321012807 0.02523254931454364 -0.19417716693947848 0.39047343710448884
Ni 8.669032766645426 6.144337677033814 2.0634425974124895 -0.20241446724760623 0.026955959763553576 0.729519154556305
Ni 3.5771718965980335 8.104254253089419 3.106662353037891 -0.16927500438116008 -1.0593410394170077 -0.09210334299516396
Ni 3.142793996258714 1.5587467464699731 7.522519019224025 1.7258234293268018 1.9090662087419639 -0.40876117967008313
Ni 3.4640899698057113 6.382771253797993 12.980196766842552 0.19165440051762478 -0.3070519381540389 -0.839385992182477
Ni 6.540542074016533 5.074245185785096 1.1932231542637957 -0.7283426177497004 -0.24312068671771675 -0.9519386041709283
Ni 3.973914602162003 3.6879242465990827 3.4125190796036806 -0.5666580241212886 0.7604358987398193 0.33300953856006515
Ni 2.131646294656913 7.264177306136016 4.975121229257299 0.2865085667850485 -1.5167675455032783 0.5236334409306467
Ni 0.7871742070718994 8.893832286412074 11.834703021370796 -0.600605584711327 0.6879387600113571 -0.848087633721533
Ni 3.1522515211603377 1.4485698297799157 2.453491714204083 -0.16708545292900903 -0.6039256502234954 -0.30579286893595725
Ni 7.020017239809225 3.6184081901583003 6.225265875397105 0.8863518194090542 -0.05409601051345522 0.8643138657724082
Ni 6.58059965740751 0.309700064212269 9.323410887314074 0.36680463273263925 0.13369325062180845 0.1802088776848445
Ni 4.906719842827002 0.6175782323124785 11.684966920786538 0.006203300597234478 -0.46540309653384365 1.9697702114902398
Ni 1.4183874245001526 1.6815739148194144 9.063577688208705 -0.28403387999231083 -0.8581144218299158 1.6479573129769425
Ni 2.3283052692795754 5.599207426693446 3.2604598990558564 0.34052024511481355 0.9747363187917342 -1.7778211625503317
Ni 5.8038574993929455 4.955009835038136 8.877069542815587 -0.497993114654723 0.13648546865496494 0.18462526158498527
Ni 2.7751199540822657 4.313253194363323 11.409878242112182 0.48234100993976287 0.7316464853119529 0.5210422831647027
Ni 6.446718600777565 0.03038937564807131 0.9274657764099415 -0.7353694426894948 -1.0554620160775758 0.2547176475266968
Ni 8.386624947502552 5.640462282618583 13.434198799323179 0.9834557009426029 -0.5219799644876236 -1.109307858253438
Ni 0.13225592158551489 4.692287403840641 6.4548619102463425 -1.4617461949620763 -0.0574052773923463 -0.30769497105467647
Ni 8.634395393796694 8.744887870689555 8.214146237478712 0.768443085315012 0.6359597958409048 0.12926092588206772
Ni 8.057189376959752 6.947521923806695 11.8196925650181 -0.5729659686171873 2.098506118106773 -2.1903412950422148
Ni 6.05495989018138 6.411505794617841 6.810556730253483 -1.483238303397581 -0.8075747612091511 0.5827713847433834
Ni 0.12021265925740282 3.666837400105964 8.672604165646549 -0.5821530344330942 0.5655167114279938 -0.2404673082552697
P 8.405363654839526 1.3927342362488413 10.166648076886714 -0.24015106256643157 0.08283965830505088 -0.3929134140045491
P 6.004906473307528 8.150288917968762 10.961336329258273 -0.40584991956055905 -0.7003983259309486 0.5811557035168314
P 0.9302714778601484 4.028404424239951 12.655146555000455 0.22275215036369378 1.0352428608172235 1.1624703012090303
P 4.433258883252417 1.4245315672723555 0.44804351335713094 0.709742743260326 -0.19497652291232226 -0.29566349381143914
P 0.2644552279581741 6.344579188076522 3.989048498241087 0.27933827428885444 0.7270601514928511 1.248180853303973
P 7.737443360879459 5.290895827373506 7.891214919586605 -0.15581167978740262 -1.0231429922298958 -0.27470540350253336
P 1.1510708079971597 7.88921853724476 6.712304276756365 -0.9038492048628692 -0.13153892328296699 1.3310181976161786
P 3.7476300932056983 5.606780871560693 9.51187457784632 -0.8485144368463063 0.4201146570096894 1.1150558164808089
Ni 4.575947782013511 7.78344090102906 5.494055342173888 -1.0319179102090486 -0.5321661609920061 0.015040182162574097
Ni 4.1698403633722725 0.4258466374447443 9.445354487095669 -0.01168386409583149 -0.20493800500040835 -0.21945008257365428
Ni 0.7654005530785649 7.962224318281236 0.6066524243495828 -0.9744434701416638 0.7382771032545931 -0.035244425024590915
Ni 6.948013826475768 2.6991998817610905 8.551706555125419 2.212409073475532 1.2027862272192575 1.365567653456274
Ni 2.76427025181534 6.033223360917787 7.494753433850426 -0.07434704745300744 0.8535018627585688 -0.5793528459801377
Ni 4.654345930044925 3.1948521485386006 5.960459818742875 -0.9032365109795347 1.2027761999169284 -0.268870284877995
Ni 1.5582919685306407 5.5462304373524605 0.759606310884175 -0.6476264335455557 -0.7238475580928244 0.31422865840813624
Ni 2.0023222986027256 2.538041429953648 4.907377878661668 0.4550202106376228 -0.7808211472643908 -0.36664908099138144
Ni 2.717353874604638 3.841732001917727 8.656072523492702 -0.045435249514663684 -0.16508770577268989 0.42112458633144245
Ni 1.2801998992202048 8.058275275304688 2.8656968697053475 -0.1077564761513886 -0.5621868757238125 -0.24011583845312193
Ni 6.718137499916983 8.80655204679003 6.401055183195636 0.46687813841747333 0.23619567746310935 -0.5092828286359293
Ni 0.9810117022342149 1.761262147209342 12.867462884391555 -0.6789195872318823 -0.5762538953398398 1.2241119852802271
Ni 7.882805240181932 4.92092005195309 10.368832139413142 0.6763870506180157 -0.08982148893952273 -1.2475457908231353
Ni 6.770344151115835 2.0017932712039106 13.418387376926313 0.027503090516275214 1.3651434214346618 -0.6580530281955183
Ni 2.675931957395665 0.14647376495822978 5.258536984812653 1.3776410396810403 1.1562171212104668 -0.46725351947902105
Ni 5.393517861561186 6.032647927606795 11.478504233157414 -0.19484462532014832 -0.3634040916915225 -0.9327450619616129
Ni 3.910412751939328 2.4269642385673613 10.542475637832618 -0.5220812659521783 1.1664315998496235 0.27315322852406504
Ni 5.339176538402204 0.1564055582822994 3.1950535501974477 -0.018814304493025662 1.7881204875938106 -0.3535495674949459
Ni 6.383597279034739 7.468753129376033 4.093672483480073 1.0975658872261613 1.4101968621298746 0.45403419257526967
Ni -0.16466209817678806 8.563932656747506 4.859983520555546 0.15198793516593825 0.279741423264544 0.03561466387981608
Ni 0.5756040847486015 2.0048746237724475 1.9173744201266842 0.9177899833136774 -0.6383259820802362 0.6951949273531383
Ni 8.213651550454907 8.575701196075533 2.567067399901966 -0.4887366290534616 -0.6674254705493539 -0.7288064447599965
Ni 2.289454239605194 8.53221885636591 8.660772514277964 -1.63594280501457 -0.3389870962997388 -0.8182664365950424
Ni 8.55158868410849 3.7110529532279783 0.8972564557011161 0.17564208424976846 -1.6026390486561173 0.7274584153725342
P 8.088040027374861 1.4263692413945548 7.1825400254346645 -0.4599086490781757 -0.3596309978023355 -0.7700767642636931
P 1.1491310408681714 0.7625707205540262 3.758284890641482 -0.4992418994601596 0.46526888494882457 -0.30000043062389625
P 6.753053308238775 4.317754567844469 11.968722367619026 -0.8845564180715282 0.015580885157392518 2.3361315860378733
P 7.374762594853229 3.8934003445353285 2.867014797611168 0.5735791767211541 -0.024706501607744548 -0.12204358219802208
P 1.997737394479662 3.691608876025917 2.3295108948779277 -0.2612708752641823 0.559256589450895 1.0371089674916847
P 4.128047198865884 1.815371440807441 4.352623042135841 0.8533856488956787 -1.5825960139623132 0.7529339339358194
P 4.823291293915627 2.969532882555573 8.590801679897849 -0.7269665633377803 -0.8142552585531203 -0.4116408152107234
P 6.437920039828851 6.981351833783551 2.010873051980415 0.5981962039388858 2.3050204664553657 -1.18225262604228
