# total energy = -340873.81850759964 ev
CRYSTAL
PRIMVEC
9.20106177030670 0.00000000000000 0.00000000000000
0.00000000000000 9.20106177030670 0.00000000000000
0.00000000000000 0.00000000000000 13.46668395842045
PRIMCOORD
 96 1
Ni 3.5719258112669108 5.888845190916791 11.927320809646934 1.1269176009154012 -0.9769649510119368 1.838007602232241
Ni 0.05816819278904166 6.905764946596328 5.755634057940758 0.2556093061030308 -0.9331888343672509 0.10122613123203857
Ni 0.7472044296981745 4.422545575413975 1.9433231454909832 -0.3712402999064897 -0.72416663199514 0.530024432058655
Ni 1.5847724876380451 6.736723038638234 12.852388205280528 0.9714877299474495 -0.30315208887900047 0.46976111639222323
Ni 0.7725505947238746 8.214588388862547 3.557574915129188 0.09388923125099313 -0.6295505498804512 0.1433135473203919
Ni 8.497300214680116 4.778599065085994 10.74811088518085 0.3175122142554145 0.960869331001655 0.6151747407747535
Ni 6.326291273545338 0.9042325112236054 12.645297146332934 -0.37949096995105613 2.266777363813767 2.002849253432396
Ni 0.6897428784577493 1.2310468666092533 2.596578293151943 1.2594895934485728 0.8423227062132977 0.1040412320833305
Ni 5.027119745139779 4.643628689087885 0.8991783679598682 -0.027218726506636995 0.22171033936274073 0.7099980538042419
Ni 0.49073955285955423 4.03183168582479 7.314806431246568 0.10987660781818498 -0.967985887441778 -0.7303038552411294
Ni 5.847422010553883 2.7229714393112476 8.478637700968415 -0.6643781990825978 0.7758632890384831 -0.5716171678987769
Ni 3.886114469608138 6.969417892342794 3.4935806099887934 1.0314432845654753 0.6603083998885982 -0.33792497358381157
Ni 8.496803357341246 8.261559809509514 7.52301449910044 2.0357537174699 2.898211503870176 1.9887745205068847
Ni 8.31632452952729 3.163867920126398 0.5118983146459919 -0.5655010276987099 -0.0342820611113216 -0.010436107731659447
Ni 4.957605723007 2.6521692685221376 3.2589378914946217 -0.6370887672390253 -0.683379679885765 -2.664297166242076
Ni 6.382859401681978 6.305487672745574 4.744205495961928 -0.6558933015400381 -0.3847797291538212 0.36349433741248366
Ni 8.685857574781641 6.905636131730695 12.077716765804622 -0.6023963580631626 0.41814596331909276 -2.4727846906189543
Ni 5.6335433282936025 8.834261501052929 1.5983072495913628 -0.4961658316379971 -0.07804480801956881 0.05024064132310702
Ni 8.87073451015079 1.320039536638139 4.905522192406762 0.7664679638665122 0.6184302715975737 0.2915186184051302
Ni 8.780987353051765 6.335234705645014 1.0620988094818353 0.6888615289359425 0.36389928616038614 1.463583505281131
Ni 5.155787393783693 8.058630390828053 6.070713379067221 -0.8804629647284449 0.06970723468815092 -0.6235472811091648
Ni 7.810404144752861 8.37914017864714 4.780578213485831 -1.0259853467746975 -0.26937216421507804 -0.5805653782310002
Ni 4.486943807168748 0.8902248146921771 7.6107503040832185 1.755069470676113 0.5118048237268348 -0.5280565096990067
Ni 1.831931410540849 6.033485882899224 7.124361013257333 1.7089503077205468 0.08626333927461918 0.4940968649241104
P 5.222467488872541 8.892090174660408 3.82223517774063 -0.43057647577296165 -0.2892619611604696 0.9363309795406585
P 2.0783266453116847 6.344987831185815 10.386516516074238 -1.0956205905743324 -0.9073996412182889 -0.28364692896653726
P 4.874455727240764 2.7257409589223616 6.310420361993143 0.012443367969675344 -1.3781079520151298 0.06569271421211913
P 6.645650928635555 3.737968173068117 10.29437800300535 -1.9540216904067313 -0.0039181041074835745 1.5604783561276674
P 2.0681318688029995 6.918416406613875 2.1551141068218236 -0.09013747751804477 -0.8051275852202392 0.4851766796163451
P 5.269438909519506 4.971103680712994 3.406424471901364 -2.3181616318230143 0.33767917612159265 0.5075118527784357
P 2.5392998430419533 2.463317474442022 1.678783416789527 -0.10284078401732612 1.072380131989153 0.8890147109531978
P 4.291458047508523 0.31932561116144315 9.719565587877918 1.3141818427851302 0.5273330012694207 -0.2939261994053583
Ni 1.0854860684437273 1.7546608932845857 0.16125504933056636 0.24069073711998548 -0.06169182058284215 -0.13251337138109434
Ni 1.6192580673804213 5.811786298082639 4.255929987460701 0.43669827239998343 1.2000991673053976 -0.7812227535781835
Ni 1.5488515422500417 3.1784239999429507 11.608658595043504 -0.11326043668875332 -0.21279889580572386 0.8945783210839046
Ni 4.095383419891117 5.3843233675406665 9.803368859034151 -0.6873101252884227 -0.14209895818700044 -2.367132148184446
Ni 1.4008156584519917 4.234770305568079 9.547003353663305 0.4509450121269847 1.439667875005798 -1.0257752876464203
Ni 8.672433225570295 0.26537978564662146 10.232080373666582 -0.3203167735837451 0.10802772753490426 -0.5552641804620502
Ni 6.403239753637518 1.15328869307595 5.298749812088159 -0.6291857103418648 -0.557251128985092 1.6123207947202554
Ni 7.371706717715306 7.977329808489838 0.11758588977472544 -1.4665798689052936 -0.1619429894961211 0.5395565399188063
Ni 4.122995806445778 7.04719446799976 0.9637606209512606 -1.1720394329547041 -0.5462038700319949 -0.25682158124357707
Ni 2.976727523546838 9.120064883645696 2.2054521959927325 0.7324427559610032 0.07619155686091394 0.5462241817469691
Ni 5.742244672764369 7.942807424500138 8.789771606781768 0.0939257409158834 -0.007071819245116853 0.7850956062700285
Ni 8.147402235372997 0.8705391429048734 1.0428345463263888 -0.34152117557550216 -0.05500386703970528 -0.6711754245100893
Ni 5.812586790461932 3.4836784272463315 12.425924510053397 0.9087656683278801 -0.7966691700402408 -0.8908317095572786
Ni 3.0141022367041304 4.719583454502324 2.714668401115004 1.5766305404074976 0.15188303415695778 -0.42128425183775836
Ni 3.5365201253414402 3.9333895252955258 7.869512686061024 -0.036677557926691674 0.7660442460655323 -1.0033249290627044
Ni 1.435963714646196 9.085257266739237 11.84778683118026 -0.8004949715442343 0.27981315704274395 0.3432260740817508
Ni 5.752816692808122 8.337330553687332 11.451152058302862 0.14655442285519277 -0.7234747481344379 -1.3646312576849335
Ni 0.27251060856560266 1.080177055767273 7.425717870769128 -0.7662208808527128 3.4307867273751427 0.9657490276914592
Ni 2.7247932495537746 4.51681045387199 0.3357228234503676 -0.6721778976326747 -1.367889102500599 -0.9797301724618998
Ni 7.715955245058225 2.7648362706420406 6.632934141079009 -0.41789862319497706 -0.18989859416878263 0.3445648474978324
Ni 3.404843729478808 8.121639262246356 8.100506263433044 -1.7035895576292661 -0.9525808657406175 -0.4032433351756474
Ni 2.8398985330588777 2.7475290733380358 4.021111528685558 -1.9987856248859837 -0.36124050838130045 0.2750771850196553
Ni 7.0294548207897005 7.086418594585073 6.98904743765293 -2.9964111895710657 -4.328396121975888 -1.49896419877327
Ni 1.0270041194462505 8.176072744038217 9.347103844642776 1.7532925812813482 -1.623426160604798 -0.5258003666749784
P 8.085552697745396 8.059348073650868 2.3444011111265426 -0.625337026019736 0.6400306234761687 0.43519083461652147
P 3.063907584395028 8.6893539782774 13.31389138417226 -0.2258408165913465 0.6746821521117671 -0.12039293396847651
P 7.6532132044330226 4.978924583269296 6.38355868238113 3.7814913692221257 0.8012765869052652 -0.5445172263581911
P 8.537159214531764 2.7843057174763173 3.225082584487665 -0.5818334463101463 0.9389511907723248 -0.4199930438301605
P 3.7784436440624374 3.1022576101064003 12.212369705169563 -2.1798517083648004 1.5178780049586376 0.48941848561183454
P 4.242287573083961 6.2526459746504655 7.558216841559446 0.6675931064754695 -0.8970393810298875 -0.30680794046403287
P 1.8669046465602652 0.7281987163801776 4.586200261670051 -0.0996886115415896 -0.07197237657324379 0.026883197544089188
P 0.026484336374187747 4.899096170824031 13.007510746900772 2.4137897001419852 -0.8695848843633605 -1.2466932130148531
Ni 2.4049827424338406 2.0653071428208998 6.728547895201441 -0.48260609067569143 0.9466678426902924 -1.2058270709281105
Ni 6.964338906212114 0.8898954166786293 3.0857021395539834 0.6094589213368987 0.763738223640175 -0.12140646283465542
Ni 6.419268003347022 1.0491142710260077 10.134811348520763 -1.0259768621342653 0.35349377455634606 -0.47146061558183316
Ni 8.15231560239072 2.8855357997403575 9.14828177996265 -0.5413270015556677 0.2435786001907418 -2.657766821322726
Ni 2.515183859983051 1.1112398405085382 8.845267811215104 -2.1650892053436457 -0.11450973571482216 0.8566681763016925
Ni 0.23246022662787183 4.11228577047456 4.758076096672076 -1.5737280220487218 -1.0625438626250219 0.5156157128324926
Ni 4.161023794993068 1.0886052284044172 11.713672153932428 -0.9518121058953931 -0.8539286658833423 0.4574465606909283
Ni 3.98297404750248 1.01032259434675 5.295476994394893 0.0327882501746145 -0.9960728754859813 -1.6267583103018242
Ni 6.8252924598228955 5.15713074881101 8.666282315736309 -0.3956626946149121 0.30142302200303567 0.5512092936663862
Ni 3.7867982082049343 5.501452884648577 5.358622961634476 1.0748885002333037 0.4005287644579618 0.4515474215976739
Ni -0.23079483443647109 6.070658172696234 8.318249391662322 0.2435063521919096 0.21473262249332695 0.7073541884234914
Ni 8.407488650148277 6.069020383690327 3.5904871132984733 0.6782894098470512 0.4478656018707125 -0.6410048144639799
Ni 3.3785562958278024 7.982730831784602 10.794556925197272 -0.24101135368419782 0.03093731300880478 0.2662690998097221
Ni 0.9866758654412252 8.517257317791433 0.9943394298402181 -0.6827399894192371 -0.2880514857921362 -0.3705638426647554
Ni 6.649377358677087 3.355967689032836 4.40668938556071 1.7197216873044383 0.4983988347335739 3.078158643253202
Ni 6.949525196664295 4.36476290711565 2.4241917992183013 2.5530959260751964 -1.3951283978325264 -2.6208468083679253
Ni 7.154488050010393 5.220194826600297 13.217173502630114 -1.279626987628396 0.6540950719890348 0.3492200868816566
Ni 5.971801964384578 5.978527940582998 11.03315978070348 1.519666207207312 -1.9252978401094778 -1.794473683505348
Ni 2.532058607381001 7.805085931014575 5.401002132321618 -0.10259395811384266 1.105535021474567 0.5468967823339613
Ni 4.314138664921798 1.4497285031452876 0.740645912825078 -1.119736766896246 0.32483651583096956 -0.5481761632670172
Ni 6.349496351482977 6.57128794691787 2.1690785583626466 -0.2920474943254067 0.8700654235442048 -0.35918465429353624
Ni 3.557231715522894 2.9055389081608283 10.01523986960292 0.5078898049431446 0.15632178665460172 0.5649639242483173
Ni 8.076958905995294 2.3687121566962612 11.482744824205591 0.6708699774545285 0.14937440880249114 0.9762398999204541
Ni 5.719177610754193 4.595534738897543 6.6625477585819 -2.2442005069545155 0.5080913794309895 0.01989442493108187
P 0.6954668590227793 2.134140286378188 9.639088500573571 2.8430436004487816 -1.054280337064649 1.1965978390203584
P 6.949157154191058 0.5561029760003936 8.002280327856807 0.06376670083399986 0.9418328831954941 -0.5128003548708846
P 6.169302756585779 2.4334048224296247 1.0950956574199648 1.1199866781235228 0.34483095667502545 0.4172131670921782
P 8.254484192961517 0.2615309814827378 12.294422934365553 1.9902835009522433 -0.3098528979379438 0.433236281993312
P 7.5989085375067935 7.07430079615372 9.852953381241106 0.6846770585409498 -0.145613141987846 -0.06393485098074794
P 5.549970083683142 6.770297713259347 12.818020399129589 -0.32564615621645854 0.027852760546210095 3.0820065562443824
P 1.3821651061206692 8.617493685377731 7.132750541434788 1.641344435646115 -1.9593215053530904 -0.21464340521363032
P 2.200369529437319 4.159965672882509 5.797838408453113 -1.048042583685053 -0.5417206374496606 0.48333988351792234
