# total energy = -340860.2617311226 ev
CRYSTAL
PRIMVEC
9.38527671178884 0.00000000000000 0.00000000000000
0.00000000000000 9.38527671178884 0.00000000000000
0.00000000000000 0.00000000000000 13.73630114601384
PRIMCOORD
 96 1
Ni 4.825336871866317 5.00568435246939 5.9242336019670745 -0.0003103321515672075 -1.8401277338990372 0.6766968685489507
Ni 5.4330992470439385 1.532822191249741 7.088234120756808 -0.7369167325719567 0.5542588791259873 0.06145296509915868
Ni 7.112247290192228 5.592048296351476 7.843194240055503 -0.7119425791251223 1.3247873862151185 -0.08919491109911735
Ni 3.65463620390909 5.526848777838281 2.406572698596996 -1.5741383701132632 -0.5921754516661027 0.40956310674608826
Ni 5.695727450089097 9.276614148243663 5.5051659726531605 0.2806495369011102 0.5804478788165294 -0.7453059850769165
Ni 1.6030052917883433 3.9953686811829527 3.5027843009812387 -1.5375070920434748 1.0748159951241554 -0.8387794689467296
Ni 1.6360226958662787 4.89536042269789 11.849167345589695 2.3307242989793733 -1.1059116880876954 0.05868465832540216
Ni 1.8914242357107527 2.9604917402910713 1.224027811212153 0.9840683948259376 -0.06226414814654438 -0.6791630707012561
Ni 4.402858632932755 2.0828369577600694 1.8036728353729785 0.0073847224998453455 1.0298119196096394 -0.09576227990398992
Ni 7.561332789091948 3.8896529223615017 3.9014258136848 -0.12004686348296743 1.1318757162516246 0.6105673239097292
Ni 8.320845706207074 6.051157270963316 11.496679809018612 -1.0222184235330976 0.11757217669022976 0.4378035896490202
Ni 6.268970776887343 1.2003299870800361 11.334124936332241 0.7023058273663065 -1.1889261814077134 0.7956664398073393
Ni 2.861683545256249 8.866909271149236 7.742109176848619 0.8045683702826595 1.3073401372729485 -0.5062725810546959
Ni 0.16833151060847884 1.6684769833311737 12.72492536366244 0.16349773557775066 -1.6648944550519134 1.1028790719089587
Ni 4.48644390886172 9.637834684955314 3.317495472098736 2.592454887488793 0.8858250003713067 1.2688329823366857
Ni 5.618749409086475 0.9242113870418054 -0.09568289783244822 0.3465350838503258 -0.3087259834223522 0.1845653548813273
Ni 7.268437068095867 1.8606874539156308 5.337225828090745 1.0336518621810198 -1.8661871499902505 -0.47909087843358134
Ni 3.810187782984617 6.381997666401435 7.46486903622275 -0.548881673974474 -0.04212675396672099 -0.2653666426001107
Ni 1.0941261938606164 6.735071782777767 10.632295808001597 -1.0534249310428891 0.8171876017085667 -0.9133612581183626
Ni 7.626325831513694 2.398895542105879 0.602224123288369 -1.085700760357459 -0.5875479801964204 -0.48305063441227775
Ni 4.153369817525206 1.344600463340987 9.08138443408562 -0.5254473542109338 0.09384526538693515 -0.19731854078193758
Ni 0.12355060048412932 3.0869771168568296 5.458970701302391 0.503395773727533 -1.8737554492558117 0.310871054789813
Ni 7.108558876376813 6.463321090601354 5.188049667602524 -0.6170207928445567 -0.5724782303474915 -0.8983899815205107
Ni 8.563652204473211 9.339251486167523 10.78138937805324 -0.5872821281295434 0.42681469473768424 0.7617335345053203
P 9.255844530499356 2.6523637149122474 3.366630212169577 0.2689384191117691 -1.440280311778816 -1.4009776575244517
P 3.448441670767463 5.773812953764034 10.825345322339484 0.6015959736490543 0.051826497752988164 1.1536478178213938
P 3.636090896786293 3.9005210729931816 3.929859448532586 1.555314809648857 0.9189156122776884 0.2991180280189429
P 8.736200519985674 5.591879361367563 9.470671641318894 0.6060694360393756 -1.316616934589184 -0.5408809151571846
P 6.417727415498848 7.705199698446887 6.846007632602103 0.9695097802854723 -0.5726178412491493 0.09937776516939013
P 1.384337725667871 8.568082055162462 11.625443930811809 0.733968191466594 1.41696194876785 0.5259734019177329
P 1.8711614229181823 6.997268263086262 7.837946931749654 -1.8432691077414962 0.8998984477452373 0.6576897313188287
P 5.445149942563003 3.276343848545433 11.821200159003043 -0.008188706458379446 -0.4302813131300461 0.9795509665715582
Ni 1.9464970404661042 5.035445065468575 9.264325066691745 -0.768245110371593 0.46980225404280385 0.0124024874294109
Ni 5.40483079306931 6.371260909646132 9.019406881126706 -0.7566157536627808 1.8940432529705702 1.7367123083251639
Ni 2.6232975124024787 5.8806361752577985 4.619861250934005 1.9692066256772862 0.018886809602173923 0.9715139551996946
Ni 9.074154955301871 4.3670162605127345 1.816268815479004 -0.0018470805110677867 -0.9265690150578882 -0.18865957955535895
Ni 8.331713856838753 9.035337450109619 1.3928886514368897 -0.3201491376576293 -1.1116280217461822 -0.12812706938794063
Ni 3.2472025638205917 7.595851837471325 9.875356333808066 0.028669857130866755 0.9720235478462614 -0.7095578809430296
Ni 7.249553891005246 4.560155873508708 13.693759988176943 -0.7711532851573235 1.3784396243229358 0.6190203397730888
Ni 1.3703255072800493 8.443042011236841 5.7951672742582145 0.21963288800842176 -0.1986107772307999 -0.4185712237819694
Ni 0.7861183000259078 7.060797202314103 13.147742411091514 -0.39157361214720304 0.07183327989221823 0.33299899703710395
Ni 1.3676882444756433 5.169598213248566 6.885651042160148 1.983332523555707 0.4014281363437796 -1.3459115697882433
Ni 3.8971611438687073 1.6638218859967064 11.461473758371328 -0.5563630699531839 0.07491577547228388 0.8226835918261315
Ni 1.6042816894445682 5.38852856712179 0.9303746983715327 0.12039061997563139 0.15495061733868798 0.13216447268210788
Ni 0.891084175224327 8.981287640534624 9.316618890961742 1.5786491134994232 0.1243570608225471 0.14853185829653776
Ni 3.879835922740831 8.591047827697627 12.311517056309583 0.03886916626137177 1.0012431068330112 -1.8373123759374292
Ni 5.373286877462164 8.825398191491274 8.32709723913951 0.39434783245823046 -0.5315632373006846 0.8287825056350178
Ni 4.56046558764588 7.251402790551395 5.327212676183198 0.5845336188501288 -0.5881334203862452 0.4022889416821781
Ni 0.7571787987540731 2.796793740880226 8.46305892977505 1.2413378622402107 -0.2373524167753719 2.6008199716240368
Ni 0.22179567890591134 2.8526642941707188 10.891829685258099 1.761283569906625 0.7294605334042276 -2.2085315927979963
Ni 5.599340656490349 7.397503395804727 3.052933902015472 0.023968852110771623 0.12419636687496675 0.6826152909159147
Ni 7.6969875811733806 3.0909095478712283 12.041338398011238 -1.3369708156551878 -0.32513399246673036 -0.9378828974088105
Ni 5.676421935538696 6.41695782279436 12.428715701398616 -0.709504659107591 0.7776090680849962 -1.2529047411422036
Ni 2.2246672620311783 9.141897883850632 0.1730551204641994 -0.8049380949172524 0.32610098436569 0.1658325543585144
Ni 6.766578157277378 3.470384448122271 6.7551149800912516 0.17709552886684338 0.5775720999306311 -0.20623666920717384
Ni 3.8798171521870626 4.254449249565958 0.3773481965091267 -0.22894645209986378 -1.1233034012015815 -0.6620858035039953
P 6.429581020203349 8.087508952316899 10.759864245519768 -0.4826639404968203 -0.3978766715470954 0.08589258619876175
P 2.2042261289778122 1.7168580856682285 9.931167759854189 -0.9355318806781308 0.28043022180145255 -0.04777443917080159
P 5.097181416811571 8.196800501631158 0.20104201613230735 0.7040238384986778 -1.072453665539566 0.06449766546275344
P 3.1658322132362535 8.175739940303446 4.066480924133072 -1.9989044098520352 -1.5869144388320091 0.8707272254979197
P 2.624010793445663 3.032373575945679 12.718949757870393 -0.41393681033375157 -0.25009968913871117 0.9367112456982127
P 8.429799385553508 1.848148723998598 7.386448478163056 -0.8016743365643162 0.06856643621548836 -0.1782422408767769
P 2.6970657887107716 0.5211644253688917 2.2873965756685024 -1.670400215361491 0.6684297434441521 -2.442450815522103
P 7.979803514796038 -0.1744779284398148 12.841601248829033 -0.5637891872139258 0.6718760501215396 1.3894429174119747
Ni 7.505978426030077 3.2637957333515155 9.352236955264235 0.40113168814928335 -0.3952536321019515 -0.3005398480671341
Ni 0.11594195651426507 1.563211717800155 1.3793860535838693 1.2982659428858223 -0.2662120213195415 1.7925512696716546
Ni 5.024135806823347 2.3837101641075558 4.642334296432759 -0.17701942421326933 0.0463392493861718 0.3217182819169621
Ni 3.7434584643393296 7.932238931547893 1.8748676687596766 -1.2998109187754388 -0.7509107328582035 -1.4968091001034804
Ni 4.0081701988527385 3.7871375429574967 10.08263768201286 0.6984000645539972 0.2015958280010528 0.5820460765415847
Ni 2.576371127982445 3.379244024301682 5.8346858596337015 0.3051495789250035 -0.052310122257626046 -0.9222870998530827
Ni 6.191354537056608 4.8710337850145455 10.635056956460872 0.6398557884612013 -0.11795295706841621 -0.06383020708208363
Ni 8.73783355816349 6.727404011563533 6.82497710416042 2.0571905471874374 0.48803883165548845 -0.33916064576312555
Ni 8.072436197641185 8.75099171635487 5.256154867839006 -0.11170209106269795 -0.3098881220512534 -0.8281453862716512
Ni 7.351168283828386 6.056413026018359 2.0709401807819026 0.0002000318259480426 -0.645491903701056 1.3619771078915381
Ni 7.548812829728683 6.9414352509033055 13.625751456292365 0.9464495560318992 2.0921032999042226 0.5890649310615791
Ni 7.90869127184592 7.542083586202851 9.245231659398922 -0.5772368280783994 0.24056218196192117 -0.32637326419047014
Ni 8.882019566932486 4.318926101759084 7.615514931071007 -0.42795137944528877 -0.1231067333552138 -0.16183526027366324
Ni 5.324079870759316 5.9556151522841265 0.9658059956640347 0.7860160612017688 0.9886647559473681 -0.18084651126884338
Ni 3.1460105084572314 3.6229796649793355 7.977095862415002 1.2015639247763823 -0.8725637644860262 -0.7282454300502038
Ni 1.1766415482248032 1.4761914305316448 6.816859778183444 0.3974478115397929 -2.651336749426666 -0.9778165003789547
Ni 7.046672360603673 1.8791482935464723 2.8496919769815534 -0.12761721963105763 -2.2889240751141355 0.29838629205924094
Ni 0.6805752302991221 6.687647978682881 4.105876562381378 -2.5866169406507775 -1.0868389877269604 1.0628539376662727
Ni 2.6326734040096014 1.8658493562018348 3.931755274463156 0.03107126748350778 -0.5826739399335706 0.20084069500258314
Ni 3.2551331227875773 6.557333409148448 13.303374703548243 0.0030773533737430874 -0.438934875039986 -0.09226300850147981
Ni 8.833112889089927 8.906271122400758 7.466696349632066 0.10520671314634139 1.9614596347420155 0.19138931978169618
Ni 5.615473947453956 5.276712378325735 3.793266128762753 -0.658956256736078 -1.93895014078559 -1.0261586391277682
Ni 0.4216410722355079 0.4908115013983256 4.034694868382318 -0.12856004316030117 0.7896940242739884 -0.6438620814071169
Ni 1.262169576468756 8.045003033309234 2.471613605930851 1.9024577022865106 2.399027454231146 -0.3615431272233838
P 7.018413291905929 8.886787287589561 3.187769359424931 0.5483846797333976 1.3662222563211375 0.9354426633984342
P 8.828392094817271 4.958269933651388 5.4248908838811865 -0.6452221949794371 3.606126449893144 0.040071156989272924
P 6.1936070035087685 3.6256920099988137 1.9652253604881396 -0.5221751112175652 1.2717660968230806 -0.8782464166931003
P 6.388257646083068 1.3622729397135716 9.284434899471107 -0.4167002320115017 -0.413271665945927 -1.8891522434268564
P 5.4767595551083375 4.319395365603285 8.171245331203695 -2.62362385689243 -0.6692658661922022 1.040399979538131
P 3.1587463291888285 1.1713294815084554 6.083354401841588 1.3810516080244861 0.06135397762744917 0.11250684635218043
P -0.11319394744262792 4.483243529444273 12.742466446158646 -1.820266733309052 -0.39582518833470537 1.4464226772311284
P -0.10298088913745185 6.765864876234193 1.7001147517071604 -0.40393187660223984 -1.1170373656872117 -1.2597073658863336
