# total energy = -340868.2139190035 ev
CRYSTAL
PRIMVEC
9.25017523893168 0.00000000000000 0.00000000000000
0.00000000000000 9.25017523893168 0.00000000000000
0.00000000000000 0.00000000000000 13.53856648421645
PRIMCOORD
 96 1
Ni 3.939196400329497 4.860597111471237 7.072452777572262 -0.5754681662137509 0.18438512054972114 1.049122189902477
Ni 7.79371669599183 7.417539817195727 6.031837657240064 -0.9921257179127752 -0.03495414747768174 0.9092811745117179
Ni 7.142559856146922 0.1960315649254382 2.118894179420493 -0.42663908839176845 -2.154413470797354 1.1866939496430853
Ni 7.775049842242832 3.776744821766604 11.519628104432245 -1.4896856016848217 0.16909091339481203 0.5830112686683314
Ni 7.772644796665657 3.873991914662157 6.947748389343134 1.7198900945615023 -1.485081527253907 0.7099602585877709
Ni -0.22369606418566165 0.7719086281697022 4.836679858223758 1.5208730830312194 -1.7701194230307 -1.9434511139797368
Ni 4.180783228556754 6.1438276795237 0.9494037668178268 -0.443481613870404 1.0731185528170744 -0.8321709624912765
Ni 6.382463701831268 4.568115818760832 5.080482103434605 -0.377387293344492 -0.054097553175351996 -0.7102127409182091
Ni 4.095727866702421 1.7338898583386262 0.12443890819810825 -0.6174496528518593 0.8343324889189696 1.3933203980895101
Ni 7.49702657352137 1.6553373697179627 11.132370440648073 -0.6535566829870615 -1.6164978089160806 0.3316550814146998
Ni 3.971692266147254 0.8334389442091427 5.356412057486396 0.02318389431563104 -0.4336548575879693 0.10325730272945442
Ni 5.185389266493461 7.737272126330587 7.690826071147684 0.3350324825273649 1.2611122166536604 -1.7151530940971496
Ni 7.347858246684722 8.593015093215442 11.495082764282115 0.657526466268087 -1.1738479469183525 -1.6790936293704308
Ni 1.0700972790382495 7.680901558071716 5.471273334182168 -1.566714052624734 0.43070194560723246 1.1512402368211658
Ni 0.4187646858627 0.16894982670891487 11.167950314909792 0.8962269124309211 0.5559149266721717 -0.3506550195559703
Ni 1.4677900655747753 4.003031860052907 8.183725361909282 -0.5655802176760776 -0.7330629060435052 0.07082540745299415
Ni 4.978018836689172 1.024466164298997 7.957658477795043 0.15943770657576414 -0.3456596232239079 2.089546852030956
Ni 8.076226299732255 0.8755660925459567 6.78807463842188 -0.6874962731572998 0.010193652703550186 1.943321273270092
Ni 4.856684287320678 0.4061363465474705 12.166716717181611 1.7030144018520863 -2.07294678158043 -2.163772800525067
Ni 0.5591222207291195 2.486317617333209 10.240166057795712 -0.04516476946209641 0.4605557957438714 -0.9222709019031665
Ni 6.834621520515517 3.0498475465912667 9.221374876041319 3.07289559508205 -0.6062838660430269 0.21644472008842722
Ni 5.997943164917426 7.31884969695387 12.75089303770219 -0.4034893897481825 -0.8285202531125666 0.9096190174671109
Ni 1.5984025407659865 5.043806083400212 6.106434770903802 1.0012179100220304 0.8279019028022775 0.1266625690272722
Ni 8.696293300404525 4.603525489797089 2.751794873299583 -0.38197105606043247 -0.9501156920295766 1.569119062521801
P 0.29503804116244753 2.2446845382294676 12.301981105529597 -0.3860105162371288 -1.2476383505369415 1.923422477463636
P 8.897984122576563 2.368229879493903 8.315441383013404 -0.4814784048291515 0.5062219303224185 -0.2208215089998842
P 8.526006823365218 5.85792326144934 7.447795290556591 1.5504495111367556 0.5237005467231561 0.18233260889606662
P 3.1929847591343834 4.608233829023176 13.051516334708863 -0.2819129769945661 -0.0710678624811034 1.1287122309219788
P 4.06128946407233 7.528467919355288 11.957586904035866 -1.3120928214665855 0.19732008344383437 1.935559369936486
P 3.0672008754481164 0.5854112189227046 9.949289670499306 1.149706830895775 -0.9576158570613637 1.5107159399925594
P 5.289712743491087 6.278315978164282 5.946328111778655 -0.05918113834584646 0.4708589774420923 -0.9542471976994468
P 2.6178921107552897 0.8572239199498766 1.606283690118884 -0.7547604456215969 -2.321867362809375 -0.8837907435500972
Ni 5.710808473528587 8.581184119010798 4.2380584639596535 0.09329222109694256 -1.9350587761509837 0.7520929260917629
Ni 0.00899857052875427 7.377449557459275 10.110967009389855 0.2831509631667253 -1.542036604482712 0.899594029130941
Ni 2.673217409205618 8.995231215472117 12.858578953420212 -0.727919671279669 -0.27075233239205626 -0.5027979922425341
Ni 0.14647837586033063 -0.09982789180336768 2.4174731876865665 0.7714916423333488 0.26364451770268144 -0.05201881626945235
Ni 5.605115970587032 3.1326273653225805 6.75532531780099 -1.0620437830601515 -1.6345790918978238 0.2941923085825514
Ni 7.224229653842616 0.44503980879333993 13.490761833696268 -0.47733352942284246 1.3091460801334358 -0.678457045773167
Ni 1.3683229306079838 3.9126668975781946 4.014117270128626 -1.020943413475416 0.32738936415981035 0.9062647562828974
Ni 6.663077019635843 1.4094399598023843 4.137602485253631 0.7027015201428285 1.4284599221051206 1.1897129389750671
Ni 1.4331111583869673 0.8849429952443513 8.682228408865699 -1.865156394732891 -1.1944833637805172 -0.8268019848698793
Ni 1.810786565581157 7.374619003818445 1.2843146885972514 -0.24927282236204165 -0.19393548324231763 -0.025261859890582297
Ni 0.7077161116798348 2.459686362653641 6.280960603281645 0.5295431215468621 1.0943376100968507 0.3429321969904158
Ni 4.984678962902887 2.6054043741045723 11.370337675281679 0.24936846739964152 0.46836912114070306 -0.9264836544329335
Ni 4.7272095836909775 7.596484458312864 10.005257856132763 2.263002727262683 1.2812935766975417 -0.19098848479885172
Ni 7.915735758332289 5.58692087577817 12.806455140640116 0.6524585648268764 1.6049725818853005 -1.489652434454041
Ni 3.534001721627244 7.588362804402249 5.546615086957302 0.9486010551572631 -0.4737946630316485 0.7287537371451901
Ni 7.311884314955358 6.252776244169739 3.61960376884162 -3.030364663698375 0.24379482996660592 -0.35519790173164634
Ni 0.772997373802139 4.322523664630049 11.787515031063444 1.1110400104531961 1.021705488452421 0.9368135756040319
Ni 8.70858678337401 4.67692563077742 9.653390438016725 0.02670733408785723 1.5619202307805164 -1.5555642066555015
Ni 8.161179909658323 7.354361119918392 0.6386931536499636 -0.06871993107421713 1.990822661285165 1.396455344174066
Ni 0.5044731100929895 0.015493118604657203 -0.03558912443701601 -1.0899713627083552 0.8268117550618922 1.2609366103077444
Ni 7.154233577371518 7.279564202468241 9.016888650894579 0.5819833416244493 0.8009356586260786 0.5163153100026785
Ni 0.1916895326411071 6.851826846567618 3.2868795885023654 2.836782192920101 -0.6751236105245598 -0.9265379047096366
Ni 2.1038506193352617 6.471515139413831 12.334568548082792 1.2108880303907856 -0.5888407308659149 -0.01636095785652666
Ni 2.213150690642581 4.685916801165937 1.9683993774462798 -0.25618729009368785 1.7247926740694426 -1.0375609674274389
P 8.0486792776983 8.191381732002467 4.073023311436356 -0.048740659738812836 2.282962972434694 -0.5712932089004548
P 1.7004504746405928 5.251111761977424 9.886254350939073 -1.831336875080285 1.326362444011722 -0.23303090658188255
P 6.362446322488932 0.16383632980482835 9.540966582511665 -3.155447804053669 -0.32368029073933935 0.9824437147383208
P 0.1367397913078301 5.635613798540673 1.1725170699597884 1.042660236327217 0.7154140826134905 -1.096043537044364
P 2.204020767624612 6.3418369319276 4.254142668765778 -0.5090434589316136 -1.1361352628589272 -0.3524645619608833
P 1.4450438845198752 0.3981756456870203 6.548428496971897 0.5426179524529494 -1.2751504399142815 -0.88466389018367
P 2.8796443211296316 3.130823581139699 5.345621728002645 -0.6907428051190555 -0.34075575816438736 1.5165531154996268
P 6.021854868059726 0.6096106025167365 6.243107035931965 -0.03721260449455527 -0.14281063954204437 -1.6391677397097706
Ni 4.564619252498631 2.82182147534916 4.177013782123296 1.7479734830612799 -2.4462784167983096 -1.5865876516202095
Ni 8.18649763944574 3.785458486896216 0.6715118505855797 0.14551544006771713 -1.748577692304182 -1.235763967696859
Ni 2.4143050026474024 7.846405694482563 10.19791218205733 -1.2066166567089414 -0.44751130385508736 -0.10027353751078215
Ni 4.493910912529678 3.815318052754377 1.0876319113309165 -0.11352654586594643 0.11416649344279046 0.449178150034549
Ni 5.473189970503671 4.841736004041005 12.42859380492246 -0.20792382710160967 0.2158813913857895 -0.34496285426719947
Ni 8.579824343242164 2.2951442444736645 2.5339051441477403 0.4390660013012116 -1.0850880664741247 0.2205697980003943
Ni 4.319461856606799 8.626741232347676 0.8460265827530663 0.6656249270055052 -1.5514327009856312 -0.18583907938742833
Ni 6.4868426798806755 5.461608751032042 1.2193257320143271 0.060891693279049974 0.47154134822109756 0.9048200534165707
Ni 1.3928451453198747 2.5621783049424947 0.7800228819400798 -0.676539259925164 -0.1829123926589366 -1.5094198468889555
Ni 3.957446996190139 4.871299564289667 4.57427551049099 -0.86478129232713 3.225925084138625 -0.05838281081426719
Ni 2.1878699615563506 8.734283770348599 3.7860467980450943 -0.44246679945264444 2.128304432415128 -0.9493790709738681
Ni 4.648388839986707 0.6598964054653527 2.615407513670562 -1.1780414161744097 0.6272468414479392 1.5319727924888067
Ni 2.514706405319174 1.9089124251299086 11.71398723766402 -0.12298332040347207 -0.05509385565035028 0.541879531625028
Ni 6.35615620328709 5.645992495223714 7.672454297990654 -0.5308800951907309 -1.3839654392371712 -0.09134306779037171
Ni 6.12700161065877 2.187361201915025 1.8547295233287386 0.6167762809339185 2.285712253045057 -1.0594418266609305
Ni 3.0295156612888388 2.006002265045415 7.266067271692639 -0.7797052884923926 0.9569039185960038 -2.192011740766102
Ni 8.758371226821538 5.021513160934856 5.158573008307957 -0.20834111714468634 0.7978629332380259 0.06646995869777585
Ni 2.924997930609979 2.525223854631667 9.427188501343151 1.4219393473777835 1.9284322719734013 0.7486466194143753
Ni 8.255596448913046 0.18624487946139417 9.159963887263206 3.526181339527069 0.9284153242380075 -0.6958659852782337
Ni 4.639120164339284 5.199005524530392 9.606899056974868 1.2198696650641057 1.4619642245101532 -0.9722233225618934
Ni 3.1539212688558784 4.277475310934497 10.943250606704423 0.21320333033299413 -0.7932498599460467 2.1580947763036833
Ni 2.519729250505351 2.540523644572621 2.772088832883294 1.789374157495254 -0.8938504417789443 0.8007829350982983
Ni 3.6834198031969065 7.299331827077562 3.0709804970744 1.7781330373637956 -0.784018828266082 -1.1215601932582298
Ni 0.5820006792907642 7.7255891549306925 7.8768868721206715 -0.06958202196419629 0.1895628080959187 -0.6654446926738992
P 6.317786476155847 2.834975224621249 13.080881941206172 -0.04605925625190777 -0.742745680548908 0.5892410516281271
P 5.7606391678526006 4.203224153826858 2.9430542727893876 0.33207082879587974 0.1696876664385465 -0.11174374293391078
P 3.3666753006829224 6.90375733068401 8.420352246142379 -0.7895500424969564 -1.1718345160327495 -0.6600368913947665
P 8.556735905701283 2.827417831403741 4.6893125405174025 -0.8850598400705079 1.4348498847918643 -0.7798780666248311
P 5.8543341934341715 7.551001346378361 2.166942364964807 -0.3948054888209394 -0.23609026223349663 -0.5657679082068514
P 9.462281816384257 7.398327203104215 12.355214939345313 -1.1028009103728555 0.9633208778659409 -0.1672209500656088
P 4.941388142513732 3.271065488814908 8.895731704891785 -3.576444863668312 -0.4705077647502607 -1.3609278406914174
P 6.5681332203892 6.018164048116291 10.616862796443497 0.22582667552395946 -1.100582562565298 1.3915234540900874
