# total energy = -381166.8903431418 ev
CRYSTAL
PRIMVEC
9.28324520242316 0.00000000000000 0.00000000000000
0.00000000000000 9.28324520242316 0.00000000000000
0.00000000000000 0.00000000000000 13.58696771855662
PRIMCOORD
 96 1
Ni 4.705417044850065 1.6283833181832785 9.60790160310231 -1.9469840668336598 0.517191799070361 -0.523322337448131
Ni 6.399924918365787 5.866296136367342 7.993403234716974 -0.12689114009831048 -0.9071846969940054 0.7645306376344833
Ni 7.594697137991833 5.989104186696264 10.987387193460817 -0.2621766749079033 0.9087584692390285 2.660078500175038
Ni 5.234534169696809 5.645234219179147 10.644940347427971 1.0944399400026699 -0.7462354388697213 -0.5755596974862927
Ni 7.127564241132557 1.8676311126557998 5.906988313237234 0.9234744352929645 -0.8896777984584937 -3.5372738498958047
Ni 7.8017413549761825 8.38899016106563 3.1176794873108373 -0.8009356586260786 -0.38500624334233047 -0.2212300572922125
Ni 9.055722112284432 3.1584477867911076 5.22902642033857 0.7150906378358007 -0.32300948992455986 -0.17137148189887258
Ni 0.1556057555078536 1.195227098639283 11.486939039096168 0.15870237107163634 0.18957154984666705 -0.9588918955603098
Ni 4.594770045691366 1.0009102107804122 0.5496795128941074 -1.0739665026396665 0.04189201224809559 -0.939547172485111
Ni 7.717867234882312 1.556716665485472 1.8659666267971577 -1.6419615004048236 -2.845112567162668 -2.037677673965491
Ni 8.25325055021753 5.65700537405231 2.7793089142313083 -0.2352266286816207 0.9871920280565837 -0.02706805986138564
Ni 8.463831683610929 8.206639376228452 11.764819058335776 -1.0491725835244383 0.06914287754424865 0.5538811840715945
Ni 7.417944149991026 8.732711596660057 6.235222510917703 0.2727014856986272 0.4043417104461488 -1.286370991220449
Ni 2.322965004906409 1.7478772499871855 1.4693622567780773 1.2876022925243888 -0.38144397991236884 0.9755451878462746
Ni 1.2481694458330121 6.885661438541956 0.946657069368946 1.6084574551101072 -0.7425739308577339 0.7674136156092332
Ni 8.575425573776776 7.138564886656767 7.548729292892905 -0.284216171206446 -0.1910342504351226 0.3154260211503471
Ni 3.2069713092848167 4.077229127569254 3.025165450939007 0.36407155007219233 0.05375096846921065 -1.913563325281369
Ni 2.86295280984501 8.071466043335608 2.291265507630865 0.43960207631033965 0.1586686896202235 -0.7292926403677956
Ni 3.6829697052796377 2.71508928080736 7.195590005075431 0.4250899987370937 0.408680961251451 -0.2889950806523281
Ni 7.082159889015333 4.680101635276629 5.668564870935641 1.6122151223803265 1.7963328482012741 -1.8457170550613569
Ni 2.9780743331747375 7.309042400923931 6.89853822791464 -1.1703993262481198 -0.5479092827588757 -2.07105599231562
Ni 0.587499453708986 2.285739191782289 0.08750851057718544 -1.1004799755491628 0.2756896217926736 0.5971623633577329
Ni 2.6705204207552655 8.549367504589892 10.77041640241821 -0.45750903849774754 0.5516093573182823 -0.2558039386123401
Ni 0.8917448175505438 1.0916260825631796 7.383538586748978 -0.2722769965666988 0.6590724705989681 0.17723025467249476
P 7.489155923675595 2.3121407410403934 7.863674525115226 2.7938257439632337 1.3195528772890563 2.790324415678194
Ni 0.6272196748097768 8.464973522766607 6.255168491485904 0.939679070077285 -1.2966808577868894 -0.15840566576682397
P 6.17592949570447 4.922162253035088 3.3283590231030185 -0.7373353081666141 -0.3908925269197784 1.2850322178043674
Ni 6.119171734746649 7.97068713379061 10.495293506993528 0.5787612351427258 0.2752967572296291 -1.2110464103455207
P 2.7809724717654336 4.818960416501213 7.160983923737751 -0.5980077420771637 1.0480163584328082 1.9949739644493774
P 6.885280825490064 6.396452984672915 1.0997192157007374 -0.004040231507644655 -0.9370233776219928 0.07213795561683059
P 8.171855056583544 7.053261146807007 4.802069551917838 0.7460161237700635 -0.3852461272672784 0.8915811861287934
Ni 0.9036747159160816 7.393872695270118 3.1449350951244073 -2.4061648366068757 -0.9656351278214143 2.0211256831440805
Ni 4.922180819525424 3.228480588339327 4.779718282526581 2.3473652499701636 -0.8697468638625214 -1.3964725705652465
Ni 5.97061196232139 3.3870198493203025 6.9460387367908245 -1.7619903661656622 0.5414846101794545 2.625533672320633
Ni 8.04572360448444 3.773017183410301 1.1890732354173432 -0.3639363100459087 -0.6952478920782607 -0.2245758338359939
Ni 6.390149661203768 4.53689829531337 12.543963681944252 -0.02647362081049634 0.07163144829405729 0.825727520858778
Ni 4.588754502822431 0.6860086098103815 5.379746403914448 0.16070551754459422 0.6004371774542626 0.26998562942936083
Ni 2.9537893638149626 5.861784479215641 10.378255921861102 -1.6937669151118895 -0.7075825023842137 -0.030325647566734868
Ni 3.3830094874076795 8.425371198879452 13.547728490613858 -1.571820520613364 0.2246023161985551 -1.0465338603500105
Ni 3.667327437171373 0.5811376457952805 7.857438969335806 -1.8258434560658814 -1.5153364694837064 -0.5786676469876549
Ni 1.1171457235303128 8.850042532339796 13.033937075215144 0.11808614021217083 -1.0694272200084163 0.24597255434421508
Ni 8.84928130623601 -0.24587695984706845 9.507561791053764 -0.891086248770246 1.9278748568080346 -1.2081107247559644
Ni 4.131619661009208 7.320757856326087 8.772494015503474 0.3609754276453719 -0.15638477868205325 3.031679011634424
Ni -0.17796630814427927 4.063044328952382 7.3961879366150445 -0.5320823430289482 -0.8430917231688384 0.17138228053215002
Ni 9.105860919437392 0.46268158080116806 4.554120571749247 -0.11806120051150634 1.3071154228566522 -0.22870528262333517
Ni 8.525918027295246 7.736693656083238 0.967841434842572 -1.1325231200276367 0.2271006571403766 -1.336199741817118
Ni 5.329390368824553 1.9471513907658267 2.403126755257553 0.5452754446804544 2.382417613588607 1.2891395551045217
Ni 2.629497760357389 1.244344748823751 12.626410038931267 0.5731935112469612 0.7068749347942278 -0.6875914039742674
Ni 0.5184181847904983 5.829042473507718 5.836757778566934 0.07857059861605177 0.07311600325938375 -0.729613256932008
Ni 3.0224482450783015 4.049119461200218 5.308441797778197 -3.09189090523763 1.0412150192402585 -1.3586092198605697
Ni 8.450398827852675 5.522324053153376 9.167398623332273 0.4021920110929976 -1.5243055057515362 -1.7908695110938577
Ni 8.33006012073847 3.337224522238563 11.60405831678607 0.7159349881139669 0.687610430137661 1.1940449906915178
Ni 6.665583545341581 1.3786640231611293 12.182727547691151 1.67170993531185 0.23001680234590707 1.2983507892901445
Ni 1.0965554857474458 6.3309318402763965 12.428869080025512 0.8729877393973223 0.05948504273951045 -2.3445092685786073
Ni 1.426816215848114 4.364341334128548 1.1775053836133618 0.09749648898627726 0.15703526778185858 -0.020977373582615484
Ni 7.475880883085199 3.210693890597229 3.334024587629116 -0.7308473864494252 0.4611995999754573 2.529595786070727
P 6.72388232499731 0.7425166514731816 4.08951457422473 -0.19492227263561915 0.6371394179713027 -0.9398096821178782
Ni 6.7132901422604965 1.1815900114873301 9.895293235341166 3.462385071006714 -0.686566819364495 0.44960495315932253
P 8.576613829158292 0.6272744459562686 13.320785637611666 -2.082228463992672 -0.8179085390349914 1.4347969200667419
Ni 4.216069342303501 7.157057111031641 11.81995503636273 0.06990649518315056 1.1388331214060645 0.28900665061655384
P 3.326103194527168 1.8610678583219462 3.4760489554560245 -0.2310724973039311 -0.22883280934013495 1.0117555763285608
P 4.002239073101264 7.967261616323578 4.880221479690086 0.7833937930875734 0.05647530937890919 0.7194725689535802
P 3.1864553374632942 5.976033377499566 1.5679902384176245 -0.2030706127743664 -1.068652803736237 0.5118367054060347
Ni 8.555735810775214 5.237124195098711 13.269249702060906 0.2687026489518792 1.5675324347609714 -0.3023751015036599
Ni 5.862564271809762 1.0503899075264365 7.763565865871365 -0.03754736212615469 -2.3391112374914877 -1.7971813122444986
Ni 6.8130943110628435 3.953177122387805 9.93131222659343 -0.20808683504203515 -0.7628869313834733 -0.391497507493629
Ni 2.017082076617197 3.4684803256704653 8.855822280781458 0.20773099436451323 2.123147827914853 0.060825358817488795
Ni 2.189341973956639 8.98619060597529 4.3253433495018365 0.3723451029348942 1.4114376765155112 0.491188947248696
Ni 4.930619289383237 9.074956996272753 2.956837053203653 0.3624499553083693 -0.7134153070159068 1.0421850964630117
Ni 5.359579482111246 4.631401731124726 1.274385330187754 0.017970468435491632 0.6793556463280364 0.4440904510989965
Ni 4.703606812042284 4.030552970863998 9.01915169626918 -1.263261144675863 0.5045478850541052 -0.49853356053922526
Ni 3.39002762075477 5.397445839151965 12.988611630681849 -0.4627242641500999 1.163463261249919 0.0857833143144071
Ni 3.686126008636795 3.3857944609581128 0.09218169619481181 0.23733956125956543 -2.2845295455908654 0.7785138392874528
Ni 8.871774609278338 2.595316851648409 9.508214403189083 -0.4505760588233402 0.26566051969144566 -1.1856991898299838
Ni 4.882838426502976 7.424953000092948 1.1940741195894038 0.8722079238085044 -2.200149025161256 0.9378497301780301
Ni 0.8790704029225237 4.588643103880413 3.702543427716597 0.49568272135399144 -0.08770804214094573 -0.2403374675456248
Ni 2.947894503133213 6.28883232343902 4.239296950038629 -0.6130960038688538 -0.4952386918380374 -0.3938256414061734
Ni 5.437215261452146 7.674198849611524 6.993687777589697 -0.4786825872515691 0.8506453671463802 -1.7851799169082483
Ni 0.3050288697337462 2.1793903351364254 2.7240104794139133 1.9119849250506555 2.858044187622671 1.630587197129611
Ni 0.6359208605058458 7.328537215776962 10.169818289777021 1.6311587533623648 -2.0324632196440864 -0.011486403373044735
Ni 6.419466149444658 7.096827416380945 12.755228062182024 -0.02363435158948833 -1.4954854961960504 -1.3444038748944653
Ni 5.871578302867997 6.9338507642096125 4.315927353927823 0.49571048926813344 -0.7347616339021669 0.3580343427391769
Ni 1.7558608408317598 3.5235671024980277 12.162115958444398 0.055210840844188785 1.1264763996129246 -1.485897081176667
Ni 0.496227515540649 0.15086573052501684 1.948235673801462 0.8810388918365729 -0.8461845031615491 -0.36061341632026284
Ni 4.981547172375485 3.064770559799713 11.549343798089751 0.053963855810965126 0.16028668483962072 -0.15747544064307073
Ni 1.2135336581107952 5.839300459418479 8.30829462411732 1.8990237369042975 0.3283267883724152 -0.4787772038479045
Ni 1.548417444305182 1.4750519577416117 9.580334078251093 1.5046602207167827 -2.8979032286011384 0.9667795258385027
Ni 4.7818181525836065 0.20917379342591344 11.713705510440166 -0.8661295788249084 0.03668732811870456 -0.006706465485898126
P 5.9731741379877885 2.643162697244846 0.2781575882701361 0.1907758545674134 0.9862718302351595 0.06841011314328219
Ni 4.736070320395163 5.18184247012262 6.236200964958423 -0.01264468534720403 2.164863976706717 0.5239260324704009
P 7.009165732258486 8.36615337795208 8.426569665830653 -0.7763998782682435 0.10363525489416346 0.6123053896467583
Ni 6.3472425020367655 8.894787774050082 0.36811130562460165 1.741337465802001 1.976362777106093 0.591800070604555
P 0.5163498777670434 4.9366162657618355 10.74006297569204 0.6577740635025188 -0.08317030217159224 0.37749039458125955
P 2.117610338542656 8.516987545443525 8.557398439984823 -1.0782466180722592 -0.1306133261449041 0.6930940789600515
P 3.205263192173885 2.3013350436647135 10.75795735907809 -2.721930500484828 0.4047062928744191 0.9006633509357198
Ni 1.9983299213776153 2.1168119794581983 5.562695029740452 -0.4646574766170707 -1.6865089479978956 -1.2141016522320769
