# total energy = -340892.5286744584 ev
CRYSTAL
PRIMVEC
9.02970355649304 0.00000000000000 0.00000000000000

0.00000000000000 9.02970355649304 0.00000000000000

0.00000000000000 0.00000000000000 13.21588389135377

PRIMCOORD
 96 1
Ni 6.35992730282834 1.8898537696474285 11.262603103066844 1.0203134932009008 0.7612226563071729 1.0385788671689922
Ni 4.664266340250606 0.4822602194057316 5.91717384290793 -0.5001752099077064 -0.6068147988458322 0.2651002763126015
Ni 2.899112778249067 1.7869151478398158 4.786542072461816 -0.9804642224144469 -1.359671342576497 0.31944465539143696
Ni 3.414582441802521 4.116659961345109 4.457625183705125 -0.5706406629181205 1.2328581069039735 0.8737585561250759
Ni 4.998311197719977 4.677043370939885 2.522845929401607 -0.3479977844387814 -0.8843594715693738 0.4872790706713285
Ni 7.119108668363152 5.865370432968433 2.40353284296365 0.3800440142410487 1.5487353566591262 0.8227990343580733
Ni 5.151238259029953 4.468619750890471 11.370338303462546 0.06528442303010691 0.8272987220006397 0.30158088773713865
Ni 6.0154441079195315 7.600211279758731 12.308640094705536 -0.9615866687836535 0.7595848635934338 0.18687189152731687
Ni 1.8847248979643825 6.670377544614966 0.5084273976633 0.03818576704110198 0.021378465675776087 0.06461593620817259
Ni 2.818829682942796 1.6534470979329452 0.3429508541964625 -0.2659867926826129 -0.7993716565730685 0.4314671059080311
Ni 0.20355751274308717 9.188355560769514 4.852093206234831 2.1531063219501565 -1.2373151142340626 0.21887055592110047
Ni 8.502368973162115 2.1169327574735552 1.2500125796615764 0.3291006904239623 0.898018457113705 0.5364074527668633
Ni 6.917719187470591 0.7859670784935919 4.846343993909839 -1.3916090718253582 0.3770121693932604 -0.5881028242586259
Ni 0.7259710184167216 7.656962967307928 2.6870799856438197 -0.09799399744798608 -0.7946680804498121 0.20675937447986328
Ni 7.704233466006424 3.989630090153048 3.7835361336498066 -1.1821091584858803 -0.9562014932123403 -0.8049020994729944
Ni 7.640646292781055 3.997513021454631 12.537525926235496 0.9498362131159449 -1.008907308246488 0.44250562311037983
Ni 7.878199736861289 8.889057003012045 7.029012994081588 -1.0587378586153702 0.2955413664112781 0.002689116796388917
Ni 6.828975259828028 0.774885826153039 0.2610731132225407 -0.005308556697106987 -0.8813821341086047 0.26360517982431375
Ni 1.946433892826946 6.209745271433234 8.925426843443335 -0.13461010600912302 1.4466936715043277 0.9005988162463715
Ni 9.147631597229836 4.752631020339142 1.5164701051809486 -0.3003290176079086 -0.8377098900316348 0.04809402729374943
Ni 6.235344481330126 2.1279941444660397 7.0784145028455745 0.9045459738195777 -0.7341347989514453 0.35285999762708903
Ni 3.1710874527091804 4.3130831052206355 0.5409596140359727 0.8765538594820259 0.29790523865776436 -0.2496435754378991
Ni 6.076746766117065 5.64176788105423 4.777000384596544 -1.5314328608249368 0.1208315641677919 -0.4145356202600151
Ni 5.332608886892032 2.8089331277233978 9.306625716433894 -0.3263205565756638 0.2583668142435099 -0.2222405008345979
P 0.660196850963124 5.29799803273514 12.668191156124028 -1.0339215709026388 0.3738749093158593 -1.6744304195668065
P 3.8492452872369998 6.15213576203564 12.662218007148084 1.3654344703125194 -0.5706301213951591 0.6202007332344351
P 2.2065435366681823 8.70285548368794 1.4649673843735733 1.3582394952259769 -0.13127409965735456 -1.329133064778324
P 6.2566004037630325 7.9813731309642515 5.7853329456019145 0.4452207080486978 -1.9048480568955581 0.729519411666621
P 4.833943501863488 1.053251724868892 12.648843210076029 -0.13057578803874934 0.2630189683035406 -0.9032956463522444
P 3.939524264503009 6.2338545802250165 8.025187059098894 0.9910494541294609 -0.17579943576323917 0.5835517145528337
P 4.732305157383972 0.9031599905104587 3.654508892006531 -0.9092606056864275 0.884850038052547 0.2791133027622419
P 0.2147227413277462 5.708109113898137 3.5088697045264605 -0.49521400924768905 -0.8717592663068598 0.21712246288174217
Ni 1.3782759083745952 1.2241659558841982 2.7412257007146237 -0.33663093736273636 -0.014854291404013125 0.02640291547356098
Ni 1.4643741328426294 6.668562574177832 4.981635140987144 1.030888954723902 0.720421820240727 -0.4593039256146413
Ni 5.911900495966207 5.774369079409036 9.379127916090022 -0.040215910097253324 0.1407892382366414 -0.508388341846118
Ni 8.803952045947417 2.3842390751376565 10.21116002784252 -0.953625762065364 0.3963738617493238 0.4419500077172259
Ni 2.4539754765604807 5.298955181323878 6.7515455508806355 -0.4831794466806582 -0.3543612647629639 -0.2897545845261719
Ni 0.5673633705296253 0.11832433388638386 9.231268324478153 0.4879028202982565 -0.1279254949000958 0.005235794477642595
Ni 1.5952777469079766 1.1997767262787278 11.354744005229058 -0.16392453870252416 -1.5015427581337237 0.7872375923136958
Ni 4.084378770734388 6.713566617255826 1.653227676133829 0.9277414380994345 1.260969520428209 -0.04897411590585759
Ni 5.5348110411146525 7.851471814005978 7.986120949152537 0.678992863671979 0.02586812601601351 -0.12996257993478263
Ni 5.199222104318169 2.7401538748893115 4.976586633666737 -0.6147975599409928 -0.278699612263591 -0.8337275083451189
Ni 0.7843272843076039 7.781004006586101 7.086026543037138 0.9406386057770768 -1.1673859933430928 0.1811211050864687
Ni 5.220577353491414 4.593031008019006 7.317978861932525 -0.2455035851275965 -0.4657018587211851 -0.8362142793227146
Ni 8.243297745242621 7.156834770285275 9.246401204854239 0.18873157044387495 0.10916441224250877 -1.163263743644603
Ni 4.587757661077282 0.17411345502464298 10.627936836252742 0.4006339225772584 0.6618382062695634 -0.8487604914188414
Ni 8.005283786275353 7.140680630424414 4.68152842475145 0.11998207168330305 0.23733981836988155 -0.23795585468732566
Ni 7.292226147073287 6.025358722546264 6.820850332468161 -0.16782387375693034 0.9528014663918558 0.807274713470229
Ni 2.30455194027343 5.414517328858424 2.5586478014722216 -1.125205760430617 -0.4972156130587501 0.9631162180543026
Ni 2.5600835243553277 5.045112151827771 11.29629021853857 -0.10783360924622719 -0.3556696991617423 0.36629452586544015
Ni 0.946258766114646 3.3827798254861694 3.961303006778253 1.7765052719523857 -0.29517935508616905 -1.2441992429484057
Ni 3.396450796838513 2.670381354651818 2.5967359945114046 1.182534418948757 -0.08146437522407905 -0.28347286528251825
Ni 0.8981755940860902 3.380260538162983 8.223808935817415 1.3099657478212536 1.17043583591301 -0.34769927936175604
Ni 3.585677266891174 2.5895384177181726 7.179991445340154 0.6576426801309772 0.5684107451463372 -0.28959491901985607
Ni 3.961051078045934 7.067223991090648 5.81324466260801 0.6884977178386207 0.6603680494819401 0.6251336517596783
Ni 1.003416790328873 6.8876412445547 11.151497114292129 -0.7531529919251609 0.7883765910141455 0.9323977059245232
P 0.07079107081116859 5.647501742882987 7.970116702372553 0.5581312175972001 -0.49999137603167443 -0.992953098910077
P 8.505249448631995 1.7150206472404987 8.039394394849076 -1.170993765299009 0.12992324205641495 0.5876317981594783
P 1.9109110385996524 3.165841194878459 10.449125226409985 0.280199336737569 -0.24850766206124295 -1.73928341148645
P 3.7716078951052574 6.185988121084477 3.9411613497778966 0.8646504231762207 -0.2876411377275949 -1.3960228846223377
P 7.031520542790007 4.030146370508378 10.388200009825747 -0.026645627611986366 -0.3903626225582374 -0.6170220783961374
P 6.400253959406656 7.852799180445077 10.151041163795774 -0.5780634377447529 -0.6041822463189918 0.14241854630994827
P 2.345799626625814 8.784881311802007 5.7313326087601535 -0.7347567488061605 -0.225471863287702 0.3344174746511854
P 6.903100097233176 3.8717653681833317 1.449187977214906 0.3011080618657782 0.31148580555567645 0.7235796491434184
Ni 5.20334867889414 2.9064268382196077 0.598194390731372 -0.6899676175159278 0.0442096046376787 -1.0624551595659573
Ni 1.3487939259007484 1.3519362627769806 7.107885649675021 1.8545855611955802 -1.3715467538578443 -0.8272568130191109
Ni 6.914522672372355 0.7877558627900908 9.253471462825761 -0.44368087436540365 -0.6125668708382611 -0.5204586427470907
Ni 2.904331946968786 1.489720511036837 9.311899063375616 -0.3509969762764213 -0.13365365563312467 -0.35495441826227253
Ni 6.138717622385981 2.1141064602256794 2.663265045191592 1.5114157942730615 0.17809054579026104 -0.08198862315866526
Ni 3.9994002295211035 6.916409880438827 10.657724925680911 0.2871922231156344 -0.7602641490486456 -1.33644733905155
Ni 8.146887599186494 6.656724632669957 0.2850244022001453 -0.007126583742452243 0.4754617663214263 -0.07899354508608332
Ni 7.557753613114923 3.9337091353412457 8.18414776839938 -0.1386865900713418 -0.18615892462069228 0.07657310857004877
Ni 3.402690322072641 8.322108998851117 12.63371123267031 -0.6466401583728864 0.4159103891203547 0.042541472906636416
Ni 0.33725762603420817 4.858423028505632 10.108935655594992 -0.7971327399402208 -0.9564046103620818 0.06636120103405346
Ni 8.608621496215639 2.219618547578482 5.83211674327274 -0.7004055250198002 1.9262136670555277 0.49323785935792475
Ni 3.818426908620387 2.6129614690312386 11.473250739129522 -0.3449947359463994 -0.16831906822579398 -0.1614807051477219
Ni 1.351511866704616 3.2711185099359112 12.607094375170108 -1.7247589926180298 -0.1689181352623736 -0.16848130483527113
Ni 3.1654980661391003 8.328005395345887 7.910460159153574 -1.1538146824165614 0.26141948502690465 0.4518502975500734
Ni 5.6764690322477955 7.9792421208987605 3.63002033566072 -0.9459037108307581 -0.9812877467570067 -0.5150387572831001
Ni 2.911320937607303 8.379068369584664 3.5021299337091625 1.3795598539703078 -0.25526760649289587 0.8901866197741121
Ni 3.397055786984225 4.269397398878071 9.003083197952778 0.1501691367896446 -0.2398782685210191 0.7532782046491155
Ni 7.579885416803561 6.035408782728007 11.269462065972553 -0.5743132266737012 -0.023979650744049022 0.010411425141311102
Ni 0.33357892476013606 8.635259122034276 0.4148570934105469 -0.20216866978538728 1.78267206288473 -0.7327381757142348
Ni 4.552623084107684 0.3136783608476977 1.403196084555705 0.2440681382326506 -1.0286572371799059 1.6395251230491892
Ni 5.9451388351656655 5.538702843395274 0.26514370363577505 -1.0991052066888232 -0.2802808407077818 0.2103226663510894
Ni 8.192379246262524 8.514035350300311 11.26159809704867 0.12967461638071862 1.2451382098229071 0.8243270409668255
Ni 9.044060896165508 4.687671332156338 5.6000064045631746 -0.09417488081221201 1.1311257254594775 2.0698347183140093
Ni 7.781536759102473 8.807952204672048 2.590603922750918 -0.18856007786301718 0.9322033305255301 -0.126544298281853
P 8.464010791983277 1.7582638981033636 3.646857121118832 -0.8710180172654611 0.14657781989396046 -1.0214195817808862
P 1.561317031415132 3.1177489931462357 1.6059544685242328 0.5422651970992209 -0.09261833495836952 0.5217940737290626
P 4.6920597681386615 0.9067538125700577 8.146667274417009 0.5496337216491501 0.6484129340025929 0.9173783496975555
P 8.61102339739115 1.5388420989871363 12.315789814069332 -0.4221548273681697 -0.6355515046588925 -0.014058277865279013
P 6.3955043352776375 7.74093018171047 1.3207873970061437 -0.5174242267961411 -0.312438656387249 0.12518109938573924
P 1.8985042257607347 3.3813621620103977 6.063923683939083 -0.763210376161163 -0.9683263015003322 -0.8035011053604099
P 6.7416851144759065 3.830337087757601 5.821266651346071 1.5507948102913163 1.3089280505853587 0.7717945182857483
P 2.3184125354027882 8.335301395909093 10.362337132581766 0.9318462042964273 1.3290003958552015 -0.7235495672364313
