# total energy = -340897.51507551613 ev
CRYSTAL
PRIMVEC
9.02978639991886 0.00000000000000 0.00000000000000
0.00000000000000 9.02978639991886 0.00000000000000
0.00000000000000 0.00000000000000 13.21600514108499
PRIMCOORD
 96 1
Ni 6.432937089621451 1.8709717045724383 11.26989558418325 0.6586844911319301 -0.18415346415488928 0.09572397046688676
Ni 4.474313250221384 0.42680097244763715 6.020392343656337 0.04522236217290922 0.22947507090982414 -0.39169368266483506
Ni 2.6469192939417376 1.7312899415510532 4.697814003820442 0.37295136906032544 -0.2089710374192014 -0.3484927217973288
Ni 3.553266026099312 4.383645166796616 4.963667163722375 -0.4539233780290182 -0.07291854253659699 -0.190911094593697
Ni 4.9114632606545925 4.815657228871226 2.711712524956021 1.0374010448108069 -1.1249627911818756 -0.29610392378296746
Ni 7.174237389268527 6.245045297976937 2.616253236963463 -0.3337960390171026 -0.20764743351177142 0.5135521454352446
Ni 5.138679771282759 4.630483402878625 11.609243077100075 0.18558891104983521 -0.48918065856941556 -0.4867491663097875
Ni 5.636338379169347 7.714335992384315 12.334893854251039 -0.521920572004598 0.7175504122302029 0.21988639878012453
Ni 1.9193442693475087 6.536933137505431 0.45989062404708553 -0.0990599768186552 -0.41671797262331456 -0.3033495496017872
Ni 2.711229431393306 1.6191580562837724 0.26320472360390795 0.695796308382563 -0.4177993786129514 0.4564448588992913
Ni 0.41984803705902335 0.25046098631306296 4.613455935005495 0.4445784464790085 -0.457102032867316 0.11696539634416629
Ni 8.612519797799933 2.3542007140810965 1.1804458928346804 -0.8266541464381054 0.07579020765743721 0.230124531568365
Ni 6.831430585251211 0.696940571867721 4.865987451298571 -0.4958413584190428 0.12818131966464374 -0.5405312451272497
Ni 0.6730224741308896 7.464617254498453 2.4963313551250694 0.4066842425363964 -0.488431696218533 0.18083031331892727
Ni 7.550878802248359 4.042445664726277 3.8096451343002933 -0.5025316259550249 -0.34079149649832924 0.014042079915362915
Ni 7.570888808509617 3.9528340662891304 12.602517755230515 0.5601006826187451 -0.7071186753739177 -0.09708974046616183
Ni 7.821727239886632 8.66233712837004 6.976623226802039 -0.2674538641464426 0.6147345679135413 -0.023839011401126684
Ni 6.952718673744536 0.5716540940366318 0.2576685616730519 -0.6290995783859616 0.34012815188271744 -0.23704825527139178
Ni 1.8854193625228048 6.3869122692633145 9.128703915093377 0.25968321906208824 0.5753046440526931 0.5566278935787962
Ni -0.06103954888305391 4.896988513345569 1.5375233709924714 0.30031539076115377 -0.20853343566115054 0.05527511842322093
Ni 6.429704426155056 2.063035257450121 7.041169944652544 -5.11649529095893e-05 -0.8103446106448045 -0.5785768870460616
Ni 3.647952364391525 4.144446129855864 0.5729959202687721 -0.44484481276651777 0.5682539078534987 -0.1736044849944494
Ni 5.991850092396767 5.767216100627228 4.898221079164459 -0.5077049426258482 0.1860797346433247 -0.1701347812782941
Ni 5.496448931064925 2.9008639717780826 9.120615935577037 -0.29371819715961023 0.05399728015206184 0.04409390499542083
P 0.26354243760849777 5.595243822086774 12.529816237445651 -0.12043355739842483 -0.3621967016469827 -0.13808366638002023
P 3.987698070880608 6.100821552487405 12.806533133147639 0.030392753359244434 0.19747743495730505 -0.5483643680184234
P 2.409553303603438 8.517553536134931 1.4417074064442639 -0.12213357080866707 -0.061513643133765034 -1.0946044906049923
P 6.175705569601398 7.8451414755524445 5.802856666833537 -0.7419378399356319 -0.5404746808577015 0.6870972379466682
P 4.702667513913142 0.9255079385142475 12.37822870129454 0.18717193926623896 -0.14551029786139455 0.9387753273160928
P 4.005956298615383 6.235573052233227 8.270681889843912 0.04340999155451878 -0.20037583955102264 -0.10104126891474212
P 4.662737799252818 1.043762018837996 3.7514291995679145 -0.2715331764221388 -0.38354457119513946 0.895825049006812
P 0.026670376576376227 5.743187839498525 3.710274142917674 0.0473967441164087 -0.8115589426678799 -0.40866296352932197
Ni 1.2030564775270034 1.082788754876423 2.3454183440045178 0.6736498541925109 0.8911088744780654 1.0531356819372444
Ni 1.7474171397381495 6.397197195766732 4.769840996574749 0.8629504097659783 0.4522380199067953 0.5232693727230084
Ni 6.055735829896043 5.600417889590249 9.226727662372125 -0.3320512884118539 0.23853461000893111 0.3443576165830327
Ni 8.733058414037083 2.3305607337598104 10.140560990283856 -0.0020237152982481277 -0.0346723545712048 -0.12239530911048599
Ni 2.423693948822359 5.202484240706065 7.049998366638841 -0.4454629059664909 -0.05472953033239606 -0.13103010196734852
Ni 0.40497688213498695 -0.10476809460570327 8.985641400111605 1.7260741118850274 0.6604588094235335 0.40607874774191355
Ni 1.613270635668998 1.1379878380330413 11.41669823661692 -0.5399730586309346 0.2794889409341058 -0.7360325301947905
Ni 4.036802048339416 6.850853655408235 1.6466086063894685 0.6106053762365161 0.9541240418580212 0.4052637080397859
Ni 5.548550797548434 7.911176302171838 8.024744826426558 -0.23107841084120206 0.25943047962133386 0.059851682050309836
Ni 5.259335774740757 2.8429288633971135 4.94139790494913 0.032801105690420926 -0.42842651930949444 -0.4472184552050169
Ni 0.5874201007749691 7.26300921758731 6.90109357997339 0.7305113432662451 -0.4642229601828134 0.18029320986853464
Ni 4.953153783627618 4.520329040793301 7.190140648757394 0.6598795398812958 0.19378995880338884 -0.4618223211611208
Ni 8.346014687332987 6.982002270452685 9.315420028572179 -0.33339571825489034 -0.5394606377708903 -0.05936188689808486
Ni 4.653951817261751 0.07479642818766834 10.339766201082126 0.2659698234017484 0.39085961679931397 -1.076022870948063
Ni 7.9751703971057415 7.37143889050481 4.788079358779842 0.9534558121464032 -0.274252889346147 -0.48516382410053865
Ni 7.234727927149468 6.1569958525556725 7.060372688025826 0.08427459097936453 -0.554628089539948 -0.021932024186400938
Ni 2.318325373433094 5.299554442560089 2.6613461833838 -0.06091868986224347 -0.7135212364661518 -0.3579194144278675
Ni 2.544232565059509 4.947031588571151 11.45916170929029 -0.6099546300263946 1.2906680759339062 1.3072946287469938
Ni 0.9348357076784527 3.531729985967047 3.8981532928614815 0.449240113620736 -0.167709202555937 -1.562616742626909
Ni 3.846679899498814 2.5922168490271633 2.5336135364659897 -0.35136130159437556 0.5980473370658476 -0.06502499872113318
Ni 1.2653078237206443 3.363342532555528 8.387233855465384 -0.725656586277105 0.17914264120385923 -0.9091996705415052
Ni 3.480215055587772 2.6323723083429624 7.068672867518311 0.6197384488860358 0.2690145237653432 -0.12143937295511988
Ni 3.980898641857717 7.0278464950864405 6.0171678069975405 0.4284884828956814 -0.42777654443032137 -0.2400649306105285
Ni 1.045017159122434 7.31783807950895 11.331693635108696 0.12619642802413106 -0.5350977328165043 -0.2063076316544253
P 0.2211764866262923 5.39372608303782 8.087626451698284 0.29842100195191834 0.29759413517524874 -0.34563494063355954
P 8.52287208021791 1.5008949461738053 7.830139388728233 0.4183557653370537 1.62025213375219 0.030477599763566864
P 2.0169291690160143 3.240113040025122 10.458934998749857 -1.7821010208726082 -1.6919949108131314 -0.31153337096416023
P 3.9875897134459803 6.22511655979165 3.9988462449465594 -0.964584575069713 0.794168257995258 -1.3605740568964244
P 6.909014508444678 3.8998111616112863 10.428789057457797 0.8284852861095732 0.4251370499249452 -0.10821361829346525
P 6.454409921250182 7.662324423762997 10.086878008233402 -0.530346334174448 -0.008532462951043368 0.9276997862282217
P 2.100969389356051 8.359478098585486 5.7302346111674 0.6313960877296223 0.3008193269807658 0.2565878679662162
P 6.846085928284614 3.910041909397389 1.6959040153161185 -0.2997253225856386 0.13581183962670804 -0.5637537059903001
Ni 5.515068350248459 2.693964480142618 0.2623044539178757 -0.07928562240520538 0.050252211287332815 0.3110425473706708
Ni 1.5225935224580116 1.0602233191151944 6.87558714284064 -0.8411577393709192 0.6014087973389127 0.25659198173127423
Ni 7.056163904669159 0.6097408293296631 9.167453436694881 -1.155797774284861 -0.03945357800993205 0.3875722042972938
Ni 2.6714803124573603 1.5293387727635888 9.06952269621419 0.4885522809567973 -0.8087268725357233 0.7548944000962999
Ni 6.328354105633236 1.8017854825626216 2.5543098064798895 0.44971191105083197 0.9574667330780092 -0.28056340494520715
Ni 3.9543962193050137 6.7175830406023245 10.631403915532356 0.2994296457220908 0.08643920273085112 -1.0024026743587513
Ni 8.033159684204024 7.128004883827355 0.4723002592478283 1.0200324716253724 0.0804691011903453 -0.5268231515125379
Ni 7.736314492041311 3.795878322230838 8.109459571797153 0.1103679456323067 -0.0018763910871064456 0.18292396262316238
Ni 3.0657117489917622 8.319539354138943 12.293395665724477 0.5647554077819371 0.4532235237485162 0.802121965624696
Ni 0.11995438906878207 4.803629553627546 10.310042853785115 0.04030332760473704 -0.32015376564331954 0.4949682117854701
Ni 8.506609435237529 2.3814887280348516 5.599634104146442 0.2096382386895551 0.3527468690879925 1.1799517458232454
Ni 3.9479128327997866 2.5349680043988365 11.076557928470068 0.15618448974578908 -0.1548554865217204 0.7567599925501289
Ni 1.1151966576163383 3.494364730592912 12.885961841665642 -0.26905643274687213 0.11250067570459334 -1.2707577101632244
Ni 3.078055466753107 8.310401210485335 7.8408442002908325 -0.5105763506363722 0.28590538598341086 0.6728659248386347
Ni 5.47642086523123 7.979622081711699 3.5525680236245845 -0.2552727486992184 -0.027604649091146006 0.24635410605334992
Ni 2.825131154759506 8.526953543588888 3.5872866486579364 0.8833104614795692 -0.384175519910919 0.5499965043052076
Ni 3.5404888785994566 4.332283742783064 9.326072467374708 0.4070724791137505 0.21980746591307307 -0.5943822295094344
Ni 7.309332020890672 6.147063087714796 11.543004177312133 0.16538749640129582 -0.6377230583889145 -0.9639672532006882
Ni 0.5518481609439234 8.956048984714768 0.24382319046349152 0.44728376122531355 0.12210554578420904 -0.22662268906269356
Ni 4.532167090526382 0.39070079012278125 1.5293432876566984 -0.03152146764704894 -0.7308730974810381 -0.5245662371575611
Ni 6.086662847696046 5.563576361816815 0.456198344462145 -0.8916151246905224 0.3775559577118724 0.579439235046357
Ni 8.105235437803914 8.551017923862467 11.457285319713987 -0.7329238093624796 0.42647890866482036 -0.6861896385307343
Ni 9.17642994717517 4.7902744998096765 5.893611436206007 -0.8504355651284192 0.47741323362084226 0.3598102036926771
Ni 7.946699481157301 8.92429122658262 2.3901934419499473 -0.5553541690726951 0.1964101700350553 0.5718560233824603
P 8.310590835995933 1.8016139166244611 3.499769960623593 0.4704560855767188 -0.14703007694003065 -0.34280467027361605
P 1.9265951876813487 3.2190646083486816 1.653758391117656 -0.6766431324928798 0.2564677974485841 0.8014948735636583
P 4.729458889624852 1.1054173991411842 8.167292643593846 0.0792714813378183 -0.69451075680192 0.14765511211853924
P 8.54560005213108 1.5358582784136916 12.201808350062619 0.1516878874270162 0.45388095482685703 0.7433244358705134
P 6.231762482448819 7.831876719596766 1.3863196007556688 -0.6583757016422597 -0.294787261854073 0.2962196234252253
P 1.8349699469173695 3.3573377247199065 5.888087012997237 -0.5698963285529282 -0.45792401454797904 0.46760807460496245
P 6.777847833827789 4.045976311137898 5.984405033659218 0.9235104307372224 0.01572486693442453 0.6603225409559854
P 2.455903196265457 8.507765247873559 10.024709736072976 -0.6236447259189776 -0.20935207490770397 0.517875969621579
