# total energy = -340857.01910370745 ev
CRYSTAL
PRIMVEC
9.33494780356734 0.00000000000000 0.00000000000000

0.00000000000000 9.33494780356734 0.00000000000000

0.00000000000000 0.00000000000000 13.66263970150158

PRIMCOORD
 96 1
Ni 3.207366743455759 3.9008226830121293 10.267269284931277 -1.537291890708875 -0.5310585297501241 0.20320071059432745
Ni 8.857736026577133 5.5427093290128795 1.719429257705686 -0.8189621771104864 0.01624422977300428 -1.8865490014760542
Ni 3.562822889518644 1.4402144316107461 6.3890194394314825 0.8234382106039689 -0.3142602829770201 -0.07772521989662098
Ni 5.798570915951206 4.523865110573323 10.885981230162553 -0.3968369174286714 -1.2516245888781992 -1.6135258707719502
Ni 2.2743573709389984 1.5819282756514168 10.348042722103738 0.517639685241057 -0.13791705889516895 -0.4194202020458261
Ni 7.029271776937565 8.695728005806048 5.271361063511647 -1.7495469981959868 -2.662990788725827 0.4838011394250571
Ni 7.687180234898068 4.64673169480778 7.276817792288288 1.8135394418875477 1.5920885268337805 0.7822044007651626
Ni 8.230754251002951 6.489011667336499 5.334154457537625 1.3215524242175885 -1.354532735798351 -0.20564428703881357
Ni 1.6192867371395114 3.539504189669253 4.606632492616811 -0.11803806058305477 -0.1816561516543323 -0.8198198971250913
Ni 8.124121141163245 3.240897876305643 1.0729654458682238 0.26589731829260016 0.8737837529360564 -1.4278590552963282
Ni 3.434336666649545 4.806088590375812 1.0395603348149636 0.28490111308861255 0.4478131513662223 0.2735034127746322
Ni 3.947068014899191 2.3966731932474703 0.9094675674126063 0.2561523230906943 -1.0049385534067272 -1.1606458464057816
Ni 6.739991076524132 8.606028491453449 9.476775628479631 1.5139984673985734 2.6792612437510757 0.4320337770447785
Ni 3.235885009284377 7.751927433519113 9.811346695610153 -1.683924732210487 0.7717564659589612 -3.01593948941198
Ni 6.298709419486349 3.395148555373428 6.148338344765004 -3.3514946772120346 -0.3559532918404321 -1.2382803063608094
Ni 0.24560341269313266 6.887025840866705 3.4853260190584083 0.7014061983701727 -0.5336584292668164 0.421565530523603
Ni 0.8525654590051026 7.937226149295894 12.974261350670071 0.4404639100900027 0.2656484355065877 -2.3994522004733905
Ni 7.347630840053502 6.551313109608248 8.736041911798672 0.9538437916134411 -0.2993759096660199 -0.627858764000325
Ni 1.2752565673038698 3.1227081009681203 12.026770673479028 0.08144432061942103 -0.05266930536925768 -0.0817507961162463
Ni 0.41090947055660715 8.19944483575281 5.713059992720473 -0.018474918875735925 1.4576748531061798 -0.3141998620527298
Ni 1.8160394339872297 5.434675976988461 8.922741803254956 1.0433801452123772 -1.3687321672271846 1.1779406289304875
Ni 6.065018333805949 2.3499984537570975 1.8660710207417506 0.6554292174194261 0.3924279897276983 0.2025797891808769
Ni 3.5901556169642066 4.4857598532533824 12.401277581212302 -0.6417198382531336 -1.5737691596993024 0.9730067376951371
Ni 7.432280147593243 1.290015119930726 13.234466488865374 -0.5621971601364576 0.766621201614925 -0.6913590985468159
P 6.459625251353359 6.499270775076482 6.249632797901802 -2.3047142480688567 0.03828526873344374 1.05544247569355
P 8.594975913142129 7.9342856407080005 0.6855240343273761 -0.8075701332234607 0.10624698148539766 1.943809011539788
P 8.90157294190649 4.5485560477637295 12.744182889826227 0.360853557355527 0.4466250445953921 1.389893631796148
P 9.056766450711981 4.51156164924366 3.583314033649707 0.7554081065079248 0.3832460661181142 0.006956376713175116
P 0.37803271755437823 1.573349458533086 13.522843566322273 -0.5318859107474259 -0.09228486287835075 0.45125714405076484
P 7.647488036435454 1.7997126101134973 3.606390024853748 -1.022625429163529 -0.18120492304952662 0.31604874233601055
P 1.0966976839094988 9.20969156717824 10.862686801177698 1.2564271524731652 -1.2358778675669038 -0.591927854431671
P 3.6997572402355003 3.582995711926383 6.5405377792495 0.4805124413714564 1.9269394894779586 0.17868472773083421
Ni 7.901398619263083 3.3193394434931642 11.501128158791555 0.08296949901469582 -0.8395803675814703 -0.7122176871633799
Ni 1.643641616205588 1.1716013058436494 5.279967885473671 -0.6976117643247469 -0.9501619718864798 -1.5366416587193859
Ni 5.722715129331451 1.4167837123865787 4.946859604678777 1.5951802783852271 -0.32038696470004824 -0.9920987213295817
Ni 0.8711242689212648 4.42075127609119 6.906068201083987 -0.1437202958405073 1.3432306805219705 -0.25176653531817283
Ni 4.504644452851187 8.256808090586478 12.2699526006874 0.5600022093676679 -0.09798268459407641 1.2082133117721
Ni 3.5780295196446077 8.742029347380498 2.8207066670539804 -2.085999243889014 -2.9026281448806333 -0.6474420854488915
Ni 4.437022090277535 0.19216456995581477 10.146996882717694 1.9434675690399688 1.0772258901172287 2.5302444753983195
Ni 2.9420021795571922 8.062389130713278 6.167794243174171 0.5417298934210412 1.696289424423427 0.05556256775665269
Ni 8.480846840140268 0.1364489334261565 11.424713208792706 -0.4455994315443551 0.17028724769575834 0.3413419696851605
Ni 5.222725984962678 7.70370309267766 8.027566041074301 -0.651258116760872 0.03946437664320945 -1.0054224350216814
Ni 5.613757617465125 6.9009629180785295 10.55443001867706 -0.3253643633099816 0.04219617375207572 -0.1802721268226121
Ni 3.2092990776706607 6.409627270411272 7.714746336041082 1.3628219723903368 1.0191323284086062 -1.0743164297799175
Ni 4.399943677226382 3.363680446009018 4.602301076792105 0.40473328945761267 0.37877414638968965 -0.06983964650095714
Ni 0.2521192063259887 2.296714571154887 2.700639633694155 -1.1048002001910715 0.7212851966822869 0.7416115669444648
Ni 0.7083489154329583 6.610141951261914 10.791641313209821 0.924653286092414 1.8851395227230372 0.28194048779839187
Ni 3.153046681636863 6.623826984880491 11.5318420043658 -0.4318859386130046 -2.2398692265690134 1.5210654015476837
Ni 1.7144378610645856 3.1094244701091602 0.7049061866481484 -1.1147814797734994 0.3871376878630365 0.5045743674166665
Ni 6.2584291193061565 1.8276987839119248 10.952791452269075 -0.5805710346579549 -0.5452507620901061 -0.17177668775709126
Ni 4.349310919827226 1.3852315884910866 3.134564418293465 1.6411297485321477 1.5863315697453453 0.6312220240456032
Ni 5.373812116693015 7.315331920326163 4.300370588481989 -1.8660876482979087 0.37611536861060385 1.0209606398665967
Ni 5.352621784964386 5.865483822484605 12.652123500644995 1.070988393847949 0.05421376703824212 1.5062974992098896
Ni 5.795779766529682 7.565816577275199 0.4692640968570511 0.5537569997889044 -1.0950127817870046 0.3185673949928062
Ni 8.440379841002116 0.8551764439321942 5.5525511645818195 1.4728587599354697 2.18598096119099 0.030583529213811845
Ni 1.2732682234015797 8.754603522199204 1.4278549605936954 -0.2695606260768003 0.6439250734345685 0.8451126102536091
P 6.533623383341396 5.2313048020810085 1.0671096330517615 1.3587640002708792 -0.6816822375786841 -2.0115341828009035
P 4.17823866464711 9.149397138704575 4.894927422532208 1.6809587076036274 1.3097351198676863 -0.7890913576929829
P 3.8297277198203927 2.2977600853194717 12.200573400919332 -0.36453743396501737 0.14898977176956277 -0.9739817000138968
P 9.256291627085428 5.30489219636153 9.276522326170134 -4.501393312403641 -0.6705843278933096 -0.24312968557878126
P 3.622006459192437 6.296534376626098 3.3603394681562975 -6.239510985716763 1.7875802988196245 2.6815736939343364
P 3.858021946899457 0.2308317911392194 8.232614706119039 -0.8386419149276008 -0.10774901995222089 -1.6003821343011406
P 4.07763593114956 5.629290970767521 9.572905988439214 0.8681576649985306 1.0453562951021418 0.5298488257127391
P 8.300346287583098 8.348262575143915 7.46094870608302 -2.263471696479302 1.444232611558345 -0.19831381481567137
Ni 7.68135522740967 2.0388273005226782 7.349421283060353 1.4669120554337316 -0.2905541976093319 1.4185030680027249
Ni 4.564145410753515 2.397139940642374 9.312687781316857 1.0399538931396477 -0.17723256866533993 -1.597065925443714
Ni 8.431754349144294 3.308893636795218 5.2821541302714 0.35250364272893486 0.6672035843465347 -1.552977933985564
Ni 5.703466466765621 0.7660622308128044 7.0917029749850995 0.6876549102223511 -0.8016357700168968 2.1350654052880453
Ni 2.771004603960262 0.308979307467951 12.461433852457075 -1.2291117524876638 1.1363756610045075 0.3343686236911209
Ni 5.875322857569175 8.758421515889516 2.318686238022585 0.31449862424007125 0.4176070600964872 1.959990763505973
Ni 2.878123131090668 5.405373575536405 5.408533455399904 0.5569400255025764 0.3555727685725618 -0.3007599344977401
Ni 2.297433362143039 1.4873372486002268 2.445065563151089 -1.21345193446322 -0.6864927715934499 0.1363340306787652
Ni 1.6017090302474368 0.5206819233744359 7.725826919196097 0.1404457388542936 0.20955647760902618 0.380510412354506
Ni 7.559450142808712 7.490492882685635 12.49414257639714 0.11618069565934185 -0.13085398140080046 0.13284581501984863
Ni 5.6316247077420405 3.347241602760509 13.04447416128544 0.9267852448337522 -0.37768168465645924 0.4579432978216887
Ni 7.660781002242313 0.6507224150685641 1.7337341318646957 1.5387656470409241 -0.19358581321238272 -1.0560957930068329
Ni 7.164889900000794 6.6682426669795305 3.075474198098653 2.1532513321684528 2.049621476590928 -2.192171663382734
Ni 8.693599637685287 1.337576679471416 9.4314983306896 -0.22503940373597373 -1.0479973322694145 -0.3395676513935571
Ni 0.6111730413087915 7.658577954538368 8.444181031786211 1.2390809478852338 -0.43535538521884376 0.9062498438845619
Ni 1.427192179292932 5.562032671161894 12.728976259700264 -0.6584636333703757 -1.7027300378424484 0.8956365871450898
Ni 7.908670543675684 5.797198678610189 10.998808077932631 -0.7626840713440478 -1.409706038536385 0.062481149253356905
Ni 5.136667100290328 5.290525711546394 7.636882602128452 1.6651101706071452 -1.7384686288946383 -0.5118073948299959
Ni 6.428903937820795 5.116933020433798 4.344446478477539 0.24524853169399696 -2.087119730646702 2.5002697834131005
Ni 1.8228632809007224 6.325855447973949 1.9241502660792011 1.1553748278148295 0.40799679070023276 0.04213960948252743
Ni 0.4843120328687474 3.173676916491608 9.804132647874521 0.6859824076159348 1.7712188267424658 -0.701364803609276
Ni 2.4189930536717665 2.9542776360431606 8.038537405338909 -0.8297250720539453 -0.6694900663878663 1.382453373468019
Ni 8.748433121638577 9.009923682159442 3.456551975657383 -2.4433645855856243 0.3407308184637229 0.08365598355875915
Ni 5.152060429374253 5.707023081914789 2.5035284748471507 3.094673353078773 -1.5558830234475012 -1.9594901697204703
P 2.7233776997842853 6.906293173328331 0.026670879639588953 1.0358146741602936 1.0776398377261958 0.38253361343212183
P 6.360264065926253 3.3599838066413805 8.318170437099683 -1.1944980190685364 -0.6587053170675365 1.8334960875151327
P 1.4302353723077044 6.675850649516461 6.57312328187731 -0.9416649901590621 -3.0060474271092485 0.27847206963381715
P 4.762690417597663 0.2132886235543678 0.6760667986118366 -0.5726456091632912 0.6719377565974105 0.16389239991300805
P 1.3688954296694562 8.880531969344231 3.7056765306976693 2.8884567384762576 0.2634105473150044 -0.23652632132965068
P 0.5061156706742803 2.326063647346434 6.680976469407295 0.180899733104282 -0.5588511264823601 1.0334595436645555
P 3.425935213541278 3.506253105256312 2.7946929677464163 -1.5298539463735912 -0.4042033850960716 -1.2026134490868192
P 6.34287305799214 9.098801721097011 11.71738062830356 -0.0024116947652861693 0.6398295632089561 -0.8803236109371033
