# total energy = -340871.0990910134 ev
CRYSTAL
PRIMVEC
9.31568966947123 0.00000000000000 0.00000000000000
0.00000000000000 9.31568966947123 0.00000000000000
0.00000000000000 0.00000000000000 13.63445347561212
PRIMCOORD
 96 1
Ni 4.102741466945033 1.3458376695674705 10.524175763175839 -0.03528607689580374 1.9191287351842883 -1.1514294700138363
Ni 1.7213903781640167 9.055483711366458 6.554013326795978 0.9824987363459724 -0.28391586635720784 -0.0066478443338208095
Ni 3.9727782820060433 4.04898062254084 3.3703959853716197 0.9905995110762358 0.2244310807280135 -0.49730534455907904
Ni 9.367112158257653 7.448191898834492 7.636384664455736 1.2425365105340018 0.2700547921043994 0.8560840216634482
Ni 6.721046435168966 9.330874125900642 1.543624663858249 -0.760912838376238 0.35720310508713315 -0.5022151231558706
Ni 1.0266169356914514 7.3466881454766515 13.10510897962429 1.2812105300654322 -1.7405342531744155 0.3840945301613385
Ni 0.6836467828717391 -0.09249082371634687 12.020147880269095 0.3772055163509891 1.1929988088151906 0.5595036724646945
Ni 1.8640415322727362 8.838800772388543 9.449712514376715 -0.9660657876009299 0.12803270990192145 -0.35137467133081424
Ni 5.9191705099178495 3.1748149463667388 5.214005415750105 -0.5051520942970075 0.9363726314118713 0.2013664855990661
Ni 6.507605356155123 2.7302981880172474 -0.06059669739740073 0.3991750786435448 -0.46798011323240046 0.5499342836087044
Ni 8.87723730747981 3.201346030210638 4.0485055223736905 -0.6002888248018564 0.48054792259508206 -0.6915457606363251
Ni 4.118401141081829 4.54994114388548 10.834536344719018 0.5203974504918522 0.2527322416655518 0.6673593931981087
Ni 3.668704859341464 1.6041337937738613 13.33937621420043 0.985046956689123 -1.7942296858153421 -1.58879982878018
Ni 8.405062266850637 5.998018506285394 11.927733445207073 0.27370807258627056 0.2672916275369655 0.9249595044789231
Ni 2.639442267817264 0.14971058365117262 1.5099885035930918 -0.27765548726979283 0.49003555037054314 -0.5561378413162551
Ni 6.46098964563726 7.004448342717811 3.810924697023929 -1.1947224763745166 0.09430189330837953 -0.9787392693035403
Ni 3.8560433762307964 5.3242705751315365 8.285711515449206 0.3433330319732603 1.923165110037191 -0.5620362090785611
Ni 8.801603224007682 0.5454503915067532 10.271569662147767 -0.007158465421652186 -0.1940031032554594 -0.7608961262056896
Ni 6.572899024224608 7.568429503881265 13.14434945872389 0.14253964526884486 0.0481819590218654 2.515631353470835
Ni 0.18698079441053814 1.0363052528254595 5.109238376342224 0.0983521521183532 0.25272041459100986 0.011653525078528317
Ni 3.9719491856359217 3.9449988957621853 13.340235120777118 -0.8011068940966203 0.8174423980318503 0.3348100821039137
Ni 4.75077809493556 6.523684236321755 1.5318719899195328 0.8150612993941834 0.1210555072531399 -0.9102003438918777
Ni 3.1573107656986603 8.955610203680205 11.444282693944242 -3.9401155787576587 -1.52018634137684 0.07357623072525392
Ni 8.721162244726758 6.0434511242301605 3.1573163551123917 -0.05447781933290617 -1.6768994499325893 -0.9035378442700374
P 7.718216476186763 0.21716735483461533 5.949107409861934 -1.088503519913577 -0.11892791938717581 0.67957856097212
P 5.537674391387172 0.9925680903791436 9.04461882264204 0.19396350826677564 -0.8278923897205807 -0.556595497678964
P 2.187510220584436 6.492458044943683 7.227460361177307 -0.2123201563970924 0.46190819600670774 -0.5161415034289756
P 0.10700839431407613 7.2319095345073094 10.010824443158175 1.1290598440693844 0.8717348408268276 0.19454046381616819
P 8.602620095178436 3.978703060561072 8.489765174101569 -1.8103584730564048 -0.8736978780904696 -0.7119070979014964
P 1.514824278039499 1.4607280688114357 -0.14390877219823 -0.1713848516353113 -0.6719742662623008 0.22909866140701188
P 0.7556980521421942 3.9641519534809557 2.000842433342843 0.29901492678217534 0.4189656310069107 0.43930228568173374
P 5.819054794303247 5.868670156856832 10.66338290685721 0.39698758407392276 0.8863518194090542 0.5750297931247516
Ni 1.3573984403014172 2.387313130094252 7.64426573781667 -1.5019695612584971 0.569829736981051 0.1273886485600193
Ni 2.288864922909445 5.72123073831842 1.329252947458168 -0.5913347009323623 -0.42890397316654516 0.5440302594194437
Ni 2.4364906552388956 2.7574161603029186 11.522994681244327 -0.07808311745667199 -0.3860493398948641 -0.05356482060033355
Ni 5.202197779243033 9.232509759921802 11.889733815955791 3.1338309971148415 0.32075077579737016 1.678522330247993
Ni 3.1194983818073725 7.403886479325508 5.335147574252371 0.29555962124372326 -0.24298159003669123 0.2791066178940225
Ni 2.6250961059072906 2.736791223634943 1.4504062847878962 -0.279323361890519 0.4848311233514682 0.32622234043490267
Ni 6.706812061533616 4.638710349625831 2.9585949971595547 0.21728367104995483 -0.8291041506404947 0.959066216354645
Ni 3.7550985642460724 8.043865035853615 7.770561335779064 -1.124406147347457 -0.3472015137897311 -0.40280007699064174
Ni 4.134275076078319 0.22189320414430994 5.6450451660248175 0.24965334562991198 -1.0475381332448088 -1.0330509953722273
Ni 8.343727766840722 8.768318265238634 3.261988374486843 0.031451533641061964 -0.41388178872610015 0.9339087432524109
Ni 6.173209363999009 4.137796406728949 8.670489551409029 0.31635933159789387 0.7946261714682831 -0.23617870818224487
Ni 7.138724691919344 8.899231650511918 8.654142379383302 -0.27843684552050757 -1.034188194300464 -0.8350122885948136
Ni 0.5187199519064424 5.510425999447773 5.711949516817832 -0.6066204234468392 0.5542604217878843 -0.27172883737271264
Ni 5.271077987790011 5.7107599032620495 5.998150789077031 0.20768034363223586 -0.752911051117684 -0.4818180475567573
Ni 7.520109022175399 1.949382564257976 8.804189259427298 0.019830661572681974 1.4858487444372346 -0.4088599100314765
Ni 8.952536026128069 8.714548105144887 0.7014984387601045 -1.1068593967129454 0.9180265248045157 -0.4507763477596043
Ni -0.11516148580992615 0.532211865084504 7.710829134372083 -1.205202292859918 0.05661157784645734 -0.20829509439809935
Ni 2.679974833057716 4.505160624209348 5.868963601077717 1.446311862684877 1.1204476769203413 0.9359897941511558
Ni 1.4278436846931193 3.8344309764703164 -0.35823856799532716 -0.8509402726789796 0.06935113690031282 1.1733722928335146
Ni 8.85012865088369 2.3836893268585513 0.7999075200487932 0.22146017102514765 0.7458819121850445 -1.1155229859252143
Ni 6.302678817391745 0.8882314358285612 4.220844847515459 0.22333424811940894 -0.05929786642936885 -0.2827131042983583
Ni 7.165199881625932 8.07018185883782 11.03598533657266 1.0145876464607173 -0.10597187344714007 -1.6778327603801362
Ni 5.879168938981858 1.343080225460099 6.848681629288928 0.24003382026227693 -0.09513184540884262 0.41306700613428865
Ni 1.9300431927481674 2.756428697210414 3.6641234032198247 0.3850743775761046 0.6192908198256559 0.6649343286963838
P 1.2022642621931103 2.9967455405815775 5.658952558956895 -1.7197774802430381 0.6476819693738394 -0.8386262311983169
P 7.430324406273888 7.14946568197272 1.727157721565617 0.10196095251553408 0.15279808977205944 -0.5840386814915813
P 5.709642020515817 6.688162051050649 8.008128187594497 0.5326551848132827 -0.21061628633210824 -0.2639509931995067
P 4.524518627098261 8.655067427355808 0.6557015773538565 0.5516805768758499 0.6981984900661523 0.01773392694465333
P 5.128175310063389 2.729059201306841 11.94607138009005 -1.7803117901826693 0.5010370436873693 -0.6763250870318288
P 7.644836789586202 4.772492967281112 5.02192334974093 -0.7446308133867627 0.4814704344093514 0.7963506103585576
P 1.694514613806696 1.7564639493270369 9.783797362501796 0.7357198840503781 -2.4388389298011286 -0.33074285401307557
P 8.71138077069723 3.8052728681727728 12.528153857621861 -1.0952986884585396 0.8167307166768062 -0.3463527926361906
Ni 0.17093545072629218 3.0844341263339037 10.30085632696113 -1.283955182690105 0.13960061724517892 0.31586285157744953
Ni 3.282616105861684 1.2091299253928833 8.079122126100808 1.5880238698461038 -0.8635016542837581 0.7395310302663521
Ni 7.075098532279656 3.985261306005631 10.965250374235893 0.3521598862362709 2.5688387907317503 1.0733424959024223
Ni 7.86794755435495 5.769551220024287 7.131023411366763 -1.710231745536132 -2.7782134913472736 1.6195072851663659
Ni 2.213025894267175 0.36007469040601275 4.021372644984736 -0.05184963768143974 -1.4975161534728338 0.2248925937454643
Ni 7.860215532026848 5.793008126316049 9.736758719678274 -0.3100195054227951 0.6013609748201126 -2.3128885563495327
Ni 8.958004335895051 5.58108550469917 0.5596353919874786 -0.09325005500509746 -0.19990712744472022 1.0493708155781734
Ni 5.727304567906279 8.064955756999188 6.347396921947879 0.5916509466212004 0.7215963001648025 -0.12155661525927453
Ni 1.0069142522891172 5.193003193655277 8.621856062534219 0.43001340418064005 0.7685382161319796 -0.06915187640531317
Ni 5.039862573111083 7.932179233815514 9.694927547314284 0.11629639530159971 -0.062466751075653706 1.107016748226416
Ni 8.03597464680313 2.8058484302834077 6.482432499847895 0.8274707288021298 0.24018551534879276 0.33184251483515753
Ni 4.8483506273024854 1.6004820434695046 1.7561723682440618 1.0115115786385547 0.49533510820658566 0.04068282243134284
Ni 5.935929435421774 5.179542022252736 13.24836658512284 1.1299165356427252 0.9866891202782363 -1.3236877253930364
Ni 2.8019172092924927 3.536664275632394 9.178386535194038 -0.030827526903817872 -0.5994866406155354 0.2293866249610759
Ni 4.063224311865742 7.235216604298245 12.605202062767972 0.6523073839609927 -1.0561253606931875 0.25011254465451765
Ni 2.7470384821420675 6.650563928019056 10.207405987220934 0.4015417791035084 0.7339543075095231 -0.019157032544425072
Ni 4.4786481717445525 8.75035761578251 3.0236445941627785 0.053787735244417045 -0.7281785813680104 0.056915482240121336
Ni 7.798601561330376 7.311064948630067 5.645795079033748 2.0570979874736315 1.5827849900446676 -1.4660281101668817
Ni 1.367934485184651 5.029568736156199 11.083705887871382 -0.32332702116497863 0.1792043476797301 0.6785056396229153
Ni 3.226060554591911 2.162935431546442 5.932350347495921 0.11312056867677937 1.3756360934358696 -0.27928376690183515
Ni 0.502580519757722 1.238865606442647 2.527623251418571 -0.18195851338609953 -0.7351506418104694 -0.07314377117352563
Ni 1.1628030012511306 7.861855093387988 2.2601698043826324 0.3140815913073107 -0.5968605158465979 0.015424047864554083
Ni 6.862141869122513 1.9220875938708182 11.086896511542916 0.03139985446752012 -3.7845597237348048 -0.042019281854579246
Ni 2.2153827637238135 5.8123288664467525 3.8814426037941363 -0.7759599625173476 -0.6050191403979903 -1.1408771484192868
P 7.293979973991825 2.162553488274813 2.3793621890616787 -0.26473260856053765 -0.35388818178128734 0.15392706117018007
P 4.285273088025569 6.510390747331151 3.557487636487825 -0.45851459694412644 -0.128593724611714 1.7933688804769439
P 0.5523514543268236 7.357662027768827 4.251795294482794 1.346912757359248 1.36496755797843 1.7723069176003219
P 2.569183337216601 5.697475729960996 12.849054210324095 -0.18006618145939313 0.14367221621139128 -1.2584426402412972
P 5.348463420897901 4.213234860720486 1.4143564293598334 -0.8761797639720588 -0.783612851076915 0.41676682358337896
P 7.513848878796501 9.76070004182674 12.528480838325136 0.8382307955321112 -1.4430025958059858 0.5610108531378403
P 3.926460673553843 1.6155268820958728 3.6656232292376854 0.28987774036759756 0.4799848510027605 0.9736873087019297
P 4.587949157257359 3.5700423912969628 7.301344958151583 -0.6109846139528059 -1.0557371241158335 -1.5997401298417675
