# total energy = -381174.8466705545 ev
CRYSTAL
PRIMVEC
9.23959721249056 0.00000000000000 0.00000000000000

0.00000000000000 9.23959721249056 0.00000000000000

0.00000000000000 0.00000000000000 13.52308447328355

PRIMCOORD
 96 1
Ni 0.39225970084376766 9.097344208336914 1.0706900492671232 0.6094951738914729 0.1572422415863421 -0.25742939003090504
Ni 0.9321921854098902 2.218806073847186 8.541193459078698 -0.20820330601524145 0.5127124231427685 0.5764955790370007
Ni 1.0138609836856336 6.264298962572867 1.147105212663402 0.06769457513349633 -0.1580390264560246 -1.7797826571520767
Ni 4.942787116098747 5.057117889926561 11.49493278915506 1.636150035929369 -0.7828137522143872 -1.0814270726827697
Ni 1.8848408386761553 0.7738199483100819 4.619986086036504 -0.4469263778858948 0.07185384871750851 -0.8383408387474143
Ni 3.4874212272419265 3.109004290690128 11.500828576029113 0.15472487448112707 0.1493235009598977 -1.6719050820417916
Ni 4.917128755106356 4.532872393222476 2.1095737096684903 -0.218631700437417 -0.42520724104124835 0.5554253886302628
Ni 7.827435511355953 2.1596172151805484 4.152560415316866 3.174885601063306 1.463635698675305 -0.9160508891353837
Ni 1.0504220691904549 9.1439210170379 9.402627886362616 -0.2623291413253676 0.29268127125466364 -0.22029391863118836
Ni 3.528158610610832 3.3327041747328963 8.868059911840492 -0.5464872056003686 0.36456751587200437 0.15893968389342303
Ni 2.987919371422834 8.620396208903284 8.37273620180489 1.940964085891825 -1.882358360433474 0.021607808077762785
Ni 4.604072728046877 1.3510046402399494 8.005503797475379 -0.06115574557371403 -0.43397058905617525 0.9665776942403418
Ni 4.753911273316447 7.093303328190529 10.159338872825522 -0.8829901020256729 0.4336240043500339 -1.5802928197504333
Ni 7.329541345422592 5.929437486488526 12.135656342040084 0.2266928801789967 -0.5940981226101123 -1.202970832426238
Ni 4.242176191010525 1.638956682129704 5.652717098765984 0.8264168336163186 -0.6988119552804352 1.0908010576985019
Ni 5.722535189872537 8.261696572444304 2.7731384704070576 0.9379343194720362 0.7318789130377331 -0.36862471666051355
Ni 1.2918527399614894 2.1989871381868773 11.709422642863936 -0.08695445180437282 -0.7670423483127435 0.5261461800501713
Ni 8.310786551541376 4.303656469744182 5.168522483370403 -0.6512725149385752 0.8814368986059399 0.11794318687640333
Ni 6.02461457564323 1.7567985028344026 2.295056772416074 0.1466366981563539 0.34173277736567603 -0.6270933465892103
Ni 8.603552423491282 2.9857757849085256 10.384957821174417 -0.7589328318317317 -0.46585998156560415 -0.5238530131406203
Ni 4.963603928239854 7.303162295860735 12.41237950164174 0.2801877667733433 -0.09379255777212879 1.2693333190118719
Ni 3.0376746015071054 3.2828657882752244 4.4881629070841695 -0.929981897394179 -0.6541922596885315 -0.43169387720685654
Ni 6.67888892155362 2.5809151216155604 6.135437074473273 1.2183917949669982 -1.0248774584224993 0.19417356739505268
Ni 6.9426055003958265 6.855124995579135 9.443818933946401 0.917529016342807 -0.24109877119168155 0.19836446554794868
P 4.057504364883443 2.5904873441535927 2.6123214359292923 -0.6601690460972566 0.13930391194036654 -0.2587131418393351
Ni 1.6951149529657679 7.6250421380976485 5.6403702252355075 -0.9554054796736062 0.1455429508715429 1.120305237805206
P 4.044337939095126 8.564468927993328 6.292845621601346 -0.02906117903201447 1.0092582638280039 0.7584062699043003
Ni 8.467065095950916 3.8053557615408664 7.894046538328383 1.3998216895431375 0.9207956029092206 -1.1697241545579662
P 2.902203629641629 2.9593320581673583 6.825195168873103 -0.9042089021951331 -0.07414830117864005 -0.21469765549033348
P 1.9700484026199163 6.979508450991292 3.049590909815311 -0.04326703821875129 -0.8664969894666561 0.2947525519613956
P 4.938065682009041 9.521404754288211 10.107207218381422 -1.5783040714551786 0.15051597860610208 -1.1909020741871619
Ni 2.87733987399506 7.636859582717478 13.636813673849117 -0.3599027634064834 0.19647624738630035 0.35792224264134487
Ni 4.2523120289682685 6.716170695627907 2.108749537612127 -1.2065217830022898 0.5956785797233548 -0.30460810459923665
Ni 8.374493573162743 7.304123213953357 1.9528682958754977 -2.4255892638800742 0.16647558725915199 -0.9332037467655864
Ni 4.68951128191675 1.066785395556146 12.247370461984914 -1.083344601420457 -0.8092562626766321 0.2232637998927897
Ni 5.267485035434212 7.397895884357307 7.72742796086642 1.407776168503524 0.6143386180267032 0.5893490379609011
Ni 7.805057207314337 0.2583816355087512 2.7449151972751324 0.5002443725827449 -0.9230026378628685 0.007425345929793665
Ni 8.223952818517796 6.956196947648187 5.1811668719257105 -0.0474939318159053 0.0364664703571501 1.295220471191279
Ni 6.507549833961654 5.971015673188473 3.503222786107316 0.41492539949926605 0.040899309317523114 -2.057805040842985
Ni 0.7103439166148272 3.542914247090791 3.4192172937390355 -0.5538773274168526 -1.086659524726303 0.4347236651721158
Ni 6.154929852357913 2.047217517135021 10.719180841102988 0.596245250860102 -0.04454796181370392 0.549493339416544
Ni 5.071134358642966 3.9821277321949586 6.753387792522883 -1.4844351519191596 0.29484665433709867 -0.28716496942212477
Ni 8.310906666302953 1.9137607774252305 1.2220448124116847 -0.12891665516877152 0.8668160633689717 -1.2198056445953895
Ni 2.569947719923818 8.915398063337939 2.326700544373848 -1.8628326316957209 -0.4859258990775438 -0.9364747042073743
Ni 7.374168599147203 5.94768569065128 7.312620871355121 -0.16024888962314981 -0.49920641823653383 -0.6669899256738319
Ni 6.343482309243657 6.423913001515446 0.6547834477075382 0.10911376151023144 -0.7577665794377724 1.4892186893507322
Ni 8.787826946945453 3.662530070428021 12.76794137094443 0.04919240256425077 0.32279171748679897 0.4226798466337043
Ni 1.53798636562814 2.799274518566645 1.113779834043541 -0.2665511498265151 0.31734817787372444 -0.2872251332360989
Ni 1.6522617018736878 5.203759534618757 5.105816110108949 -0.36253917258806595 -0.2560548782808816 0.5798385273673046
Ni 8.40410648169015 1.1344284855184399 11.906183557763956 -0.567774654224235 -0.3686987644315585 1.5269863950178089
Ni 5.817028548845953 3.5293967166147855 4.115953131826822 -0.7497740481505991 -0.255447840824502 0.7092434350264043
Ni 8.760588614858465 5.255150173379894 9.888552154324914 -1.298189838232248 0.18723853083811626 0.11603979920610337
Ni 8.190902779889859 8.02922831080637 12.92270000164016 1.3466718449930355 -0.6099885685881237 0.3850946892910787
Ni 7.511441292436344 3.944716603762049 2.4161832698700683 0.7025148580533193 0.16901480874123795 0.6658846084247952
Ni 0.28402521314587054 8.235807221525803 3.7960782821485513 1.0320654915305065 0.7522327941037368 -0.9093007148957437
Ni 3.7965504255575215 2.9470249149041736 0.10124473253378355 0.2561620932827073 -0.029491581701213725 2.489864528919376
P 6.612511656386412 4.127725302421134 10.271850369995287 0.6746685252650122 1.4832434456039036 0.1871230883061745
Ni 4.155176145240144 5.450151869002652 0.03142848934663887 -0.7115389159288005 -0.14605331484905815 0.9267325372189459
P 1.2104241712089014 9.137397861524532 11.748761151240316 -0.5729963076344905 0.6984365742188874 0.2237937042543307
Ni 6.467034200921816 8.467665669758805 11.082478101051276 1.4367658708676547 0.7147576799764142 0.7211263025069192
P 0.30762776379587464 6.789357543816861 7.164800254080056 0.6470242811851824 -1.6422690043429138 -0.31562913830008865
P 6.0470945152523345 5.410255288964791 5.405528311116858 0.1742521458807773 -0.4839993714787923 1.6803462708306094
P 3.173395042492782 5.6883024828229125 9.377893485074669 -0.33415085125335997 -0.7769274686369393 -1.522737389933468
Ni 6.4149228735912125 0.16124667574033147 6.8309699170258735 -0.14157368181114974 0.14889412673196292 -0.17309566367883092
Ni 9.249668205211437 5.816298620679443 3.419447359705442 0.32121743102114353 -0.6618711163900278 -0.1238091587388771
Ni 5.147933889276293 5.090315762107209 8.79941709747799 1.3002719175722572 0.46799939650611017 0.15276749364444014
Ni 1.2403142676476422 6.743067162624252 9.49647816938174 1.3602344141688187 -0.6661807995089752 -1.8803125336480393
Ni 9.023224160846473 0.12842855099820988 5.848544814364514 -0.4228477396701363 0.7869007777995674 -0.14142610048969192
Ni 4.037288126550223 0.6237134547262234 3.655993055519085 1.8511472249379926 1.6526696308509472 -0.8062483290882437
Ni 2.7386073243728983 6.086020937600531 11.383002462639391 1.6153894063432501 0.1837953094845222 0.7910086293203538
Ni 3.551211405236692 6.364169767026143 6.737281326955028 -0.9126642320513378 -1.0496292114458825 -0.2523524897286299
Ni 1.9957991595827511 0.8725321072939864 7.0010625829765445 0.5872268494115758 -0.11388367209504903 -0.6023225674024336
Ni 6.182463851550323 3.840715699429911 0.43650443525073956 1.100288428363647 -0.989732020869618 -1.9639595183457337
Ni 6.3167151966059345 8.757816735745134 0.296696396532606 0.1973743337205375 1.0341925651758381 0.4998970165456552
Ni 6.658016671830246 2.8121914752347625 8.483247326214537 -2.1423480549923877 -0.7943870588742834 0.7997434380901903
Ni 3.5899068376587775 7.735085738896845 4.349645640073144 0.4333380976784989 -0.22227958160264943 -0.555723893707288
Ni 3.221598020273589 8.420525245638109 11.378809533500627 -1.001200940741166 1.0604478993279416 -0.44699014124429465
Ni 2.393305103628348 4.904683017887505 2.443796729597061 0.6919946752482856 -0.667104082654193 0.015988919229088593
Ni 2.3741606585522828 0.8993648210707242 13.455820131305423 -0.20291917479816662 -0.9593932606767607 -0.520377138776878
Ni 6.3715429654676 0.7058396130556661 4.486648537128588 -1.98126689927593 -1.3674278465934644 0.8170407917180574
Ni 1.5956968887676688 3.9989807572040044 10.337329546329773 -0.07236035604028183 1.392220737267428 -0.6538091653174999
Ni 8.101186292588414 0.5301394356587281 9.677416274343168 -1.010350468450918 1.3121036200998628 -0.6327137780997814
Ni 0.6249053627449551 5.938529249980247 11.98603677522047 -1.5054410647468655 -0.623631613292855 1.1494782598247366
Ni 4.403324003062481 0.3984141964350645 1.0819337149104937 -0.603913051818005 0.46521412045148913 0.4056519446171401
Ni 0.6929651585339531 2.5205528341242793 5.821093047585799 -0.1363682263508103 0.9116854130778362 0.45036419992285026
Ni 2.8239996802575478 1.2279886451903685 9.952489241912685 0.9372604333334633 0.6016270839973058 0.5543529815016904
Ni 1.4578051424765506 4.773499219050645 7.720869694884281 0.5665089001379341 0.46796957170943926 -0.04233758442594644
Ni 3.915251528787352 5.345846057968048 4.242677901130038 1.5998655996760383 0.9677737714309719 0.9357121150097369
P 8.248548625850075 5.148867088577781 0.8351440778536882 -0.21686201013150394 0.872441379975549 -0.884674174596315
Ni 8.983336820405656 7.773910525677553 10.739316694941921 -1.814709808046565 0.36135903623703575 0.7467704854375848
P 6.47811247777809 1.6689022161507114 13.17028054820397 1.218925298872965 0.623493545053094 0.43434494167645843
Ni 5.889476229271352 7.605574307125028 5.094754464527354 -0.3843431558370348 0.262455896711219 1.1616951136059024
P 0.7329994085677769 1.4305760499866065 2.7691756072347005 -0.31556974581706293 -0.6569839635010557 -0.1037560967427439
P 2.2066929621219344 4.692329359015302 13.013277619386145 -0.5883427081835739 -0.9866765218727458 0.6224057113055539
P 8.200900023891935 1.4881849375586462 7.51391288464573 0.5496928570218598 -0.2583786413180518 -0.14441809323848032
Ni 8.350073318174305 8.338505342674676 7.858264350854408 -0.3618424036313575 -0.44074775987900866 0.7352010354324305
