# total energy = -340894.9375064317 ev
CRYSTAL
PRIMVEC
9.06047802909200 0.00000000000000 0.00000000000000

0.00000000000000 9.06047802909200 0.00000000000000

0.00000000000000 0.00000000000000 13.26092544273395

PRIMCOORD
 96 1
Ni 6.615272415824979 2.144542651174932 11.570409762454503 -0.6743095992636967 -0.8378700697585827 -0.0004422297437411739
Ni 4.700267913488477 0.5492778860861519 6.187402216365112 -0.20500536790323404 -2.2100269463966007 -1.068648947081495
Ni 2.7389824896920127 1.5751369132831206 4.819842665421859 0.304480834992753 -0.72920136620557 0.1130066688067344
Ni 3.5418223819484456 4.44088455022383 4.870856780572246 -1.24606714939508 0.19677860911806755 -0.0792110604135281
Ni 5.024660206172708 4.848361425873578 2.5195359012142142 -0.9313908619265637 -0.2712184733951974 -0.11176816841394299
Ni 7.168450837676306 6.103156080124113 2.5897129272666803 0.2257773103432628 -0.0555877645676333 0.3867407095349339
Ni 5.2207651913096385 4.4557799760030345 11.396373383503954 0.2762519220540468 0.5152806980905771 0.2495350748844928
Ni 5.596430728814138 7.77440654369057 12.526668009997763 0.10191827220305671 1.5892513144953018 -0.35594994940632246
Ni 1.9498511006009922 6.4739470804818895 0.07550639919317684 -0.5846562604709222 0.603616860733825 0.7062380725411772
Ni 2.6873740071869325 1.7413966839938333 0.39732914032571565 0.36791586351894706 -0.5907238068212407 0.2017662921406461
Ni 0.4906330363912115 9.027959912459504 4.795654813438791 0.299026239636085 -0.2791539261921902 0.11447502582214478
Ni 8.529715168527472 2.3458483506654284 1.4767899551806993 0.6620004428790406 0.5584248375782189 -0.11634498915134801
Ni 6.795603108819819 0.8892985972171903 4.742398229991352 -0.2593723726898888 -0.926308819417966 1.3756705462182308
Ni 0.6218423480831561 7.283201791139585 2.3985033183757993 0.3848108395020728 -0.14682130336333424 -0.27220140613375704
Ni 7.387415408726213 3.909306307847944 4.025605696995934 0.9234379256280741 -0.8393355985605158 -0.9564740301474365
Ni 7.8469809722133395 3.882786288835941 12.602175315238737 -0.4964121433208482 0.41904996319060084 0.46352156324041466
Ni 7.853649483997703 9.015329606172271 6.9203069973308216 -0.33349239173375467 -0.6724033833799193 -0.4135336613580621
Ni 6.816668720095155 0.6414863703653303 0.5797401190619823 0.14091985027723475 -0.24659193309576888 -0.4046695260992127
Ni 1.8057260775658257 6.37514256824209 9.130146701124715 0.964067012003346 0.9910425121509254 -0.02007465926268801
Ni -0.1633015246541978 4.949911262937647 1.3853162756647164 0.6699343530141366 -0.8441299346253657 0.2152447862430551
Ni 6.275549794419085 2.0191275151434502 7.250450881429067 0.812953251912245 0.2917780427141039 -0.6716883595907658
Ni 3.4144411221979327 4.562720797457996 0.42631179724939017 0.13090797456718745 -0.6726255266930544 -0.3140959894850139
Ni 5.846862339846514 5.512594126177287 4.721273725609225 -0.0515174511530016 0.9349762652849769 0.7321907878511971
Ni 5.511633715512691 2.749963788989091 9.499715443004625 -0.5608954106058985 -0.0932719093819684 -0.4126677138133409
P 0.1714169947700335 5.6267289671387495 12.6022423627757 -0.3388297447862681 -0.24653819703969798 -0.7694350169146361
P 4.197384204836887 6.165800224794078 12.42752916612095 -0.891388353391697 -0.22169594118503755 0.24271110998412396
P 2.1692505745933577 8.503838443451189 1.4353092749481227 0.584188062585252 0.34132242930113477 -1.051555739044634
P 6.473838354746275 7.695507901546217 5.7680515843384494 -0.13570745283835983 -0.17727422053655276 0.6255293445362001
P 4.902316572172341 1.0794472241380317 12.78396927542539 -0.5831020286099249 0.3798041303161007 0.44690349506775934
P 4.000128538998036 6.3259532333544355 8.228205112951137 -0.23315431953362425 -0.7170482757828037 -0.5138043706553668
P 4.705006543465682 1.0229007811404538 3.755162208275889 -0.18245576473749223 0.009123302457506867 -0.023405523408133885
P 0.2821559685891328 5.4151939880225095 3.570080200634689 0.11452979031948017 -0.17543588177623334 -0.8120554226883241
Ni 1.5772117627377666 1.308496107166196 2.6637614955548243 -0.5219938484446945 -0.341394934410283 -0.6697248081064917
Ni 1.9197612532696418 6.436491064562648 4.8059710736530254 -0.2444931415852112 0.7405373600436794 -0.42372242896560575
Ni 6.026132956919112 5.419434291711481 9.056257597248807 0.2782663813809143 0.4895776368975181 0.7802812156005208
Ni 8.810191324501359 2.408709946806623 10.20965281836954 0.18478287020877207 0.08517062043107267 -0.1403611495602873
Ni 2.3303096309505036 5.5173418166324595 6.967475845631637 -0.1140559360068552 -1.4729726598055148 -0.21806297241814057
Ni 0.5190765948757967 -0.057997931568033456 9.083083860416124 0.3771402103306924 -0.11480901212279582 0.9463608529728347
Ni 1.495703702938662 1.1304848965311352 11.574652784286865 0.22378573383453074 -0.1349852299603546 -0.8762013612386136
Ni 3.9781478194479436 7.011804234089521 1.33021679099861 -0.01580559957368891 -0.844354649041662 0.5522433913578554
Ni 5.786003109336222 7.73051758841413 8.001801889489595 -0.4114713795123946 0.5767699157443099 -0.0970102933784781
Ni 5.144448785386133 2.822927818064479 4.9973800130592005 0.37831983246109036 -0.4376395532673302 -0.1210022854177013
Ni 0.6441274996929692 7.530888077347692 6.917561672506552 0.8246563992817864 0.5928241409936952 -0.5533021716396729
Ni 4.925846633454942 4.700521606871578 6.99154409930553 -0.4667038176231382 -0.6250184663380526 -0.01323681040524817
Ni 8.145460297909416 7.0944176722007075 9.063060204107096 -0.32810875882433815 -0.002036827924370686 -0.17558140621516213
Ni 4.881151295639359 0.38626357858353616 10.769197132041104 0.014403062799207453 0.03055576129966996 -1.360055465388793
Ni 8.343585769633185 6.891598872889574 4.682048198342855 -0.9777414241666451 1.0729825414598424 0.8440815978859334
Ni 7.333641471986808 5.823314157607977 6.898465809141435 -0.8956592128529091 1.2920551860894198 -0.35624099828418
Ni 2.2111462247168636 5.374811437719641 2.3715973230023644 0.3353952651834224 -0.5508994757354513 0.9143182227149931
Ni 2.6165301299560304 5.2210098242147716 11.246882745416205 -0.4378442130789686 0.24819732990967577 0.13019166522645323
Ni 0.9865863854451656 3.307826477949815 3.9190408853766407 0.5270077567195182 -0.16088575187620036 -0.5640900062837962
Ni 3.614722987678058 2.8675959744461585 2.8322555801324176 -0.23371636268468138 -0.11664015179426364 -0.3744930025158325
Ni 1.241049909173251 3.2595431908589494 8.213777207835076 0.3487822280132896 0.3546371441321699 -0.5619076539204967
Ni 3.7706538135053806 2.409860627508545 7.171110994007678 -0.5995650592619545 1.5569351188610994 0.5418304235546475
Ni 4.145368000823252 6.817302953552907 5.9966700946631395 0.5056015231296003 1.7150775036642074 -0.1843321558245987
Ni 0.5862129245222402 7.028249001601234 11.059744009276296 0.12010214220093508 0.9574806170350801 0.6335396164351863
P 0.22970304953744572 5.643200916084367 7.698298528760326 0.47055250194526704 -1.3788605139104382 1.6401272754095624
P 8.6163514588564 1.6565634287805142 7.961925819905131 -0.06677129198827855 0.6421350714136812 0.9086183441167384
P 1.9824235188955432 3.353935250328388 10.31686726625913 0.03788777618470894 -0.7097519992317067 -0.23756453278617795
P 3.8827228654901655 6.347227235623032 3.7414111208640275 0.06107244183128837 -0.6222311334009025 -0.42596314537066643
P 7.129653871017817 4.045594017440889 10.40925605404987 0.17670754939980535 0.14137082177172428 -0.19861411966490958
P 6.421187917274888 7.79721176673574 10.261423483430244 0.06637919875618245 0.24331069124133578 -0.03838399909483712
P 2.4600013125828273 8.568992340518259 5.740495046646919 -0.08093035709747998 -0.5131883343379227 1.0065244098366086
P 6.85625394833685 3.9608423065292806 1.7241192585568708 0.10340205583743481 -0.39551305641092527 -0.656828668870114
Ni 5.064326978716115 2.948542284611254 0.7600119189500311 0.8783844849328614 -0.49989136011870045 -0.7171140960237328
Ni 1.4484895522480068 0.9502991711837813 7.142798812453627 0.5393356821572518 0.9299348462063275 -1.2482171058585472
Ni 7.097733807136954 0.740916055584914 9.226872739718681 -1.0751438107772195 -0.6779880765565485 0.5746613540417392
Ni 2.8552193615420256 1.486942220743716 9.42424800386671 -0.2479502468958762 -0.27351318296664506 0.06716492788227142
Ni 6.418623802009976 1.8551962872704844 2.6379690329236425 -0.29866062876655014 0.8316423436813161 -0.3904654666846888
Ni 4.237830178485531 6.941531166970594 10.314255130460989 0.2029430860575666 0.701126976566857 0.12841503294200465
Ni 7.908999943903521 7.187206027069831 0.3094053560775507 1.1346638205197233 1.2828272397332487 0.9165856785929312
Ni 7.833689251034451 3.7520707731932457 8.184059746148206 -0.21490180108133958 -0.1212128587666106 -0.29654255398228285
Ni 3.076449052083904 8.402578541682091 12.428789478606282 0.6152876122035339 0.4631173858234605 0.2797059420409183
Ni 0.16513627144269474 4.886850336281159 9.944632931761069 -0.40438310520704546 -0.48543044749836395 0.5501379149790783
Ni 8.580662236140896 2.299630852551241 5.807608725098444 0.11445368566590612 0.2718756473632221 0.271813426666719
Ni 3.7667759289351253 2.655082463709386 11.60555082625295 -0.4439446695497516 -0.12807050511839232 -0.1874323920164772
Ni 1.2028056316708031 3.5597440073689244 12.360892974858332 0.016242430000791383 -0.2673049972734042 0.8432958687598444
Ni 3.0119656303864573 8.374944083880038 8.087188739906752 0.7056981408773072 -0.47580320882124505 0.07076498652870393
Ni 5.691321114571811 7.85662132077117 3.771248180860074 -1.4758060154892518 0.3969790994334905 -0.3103635190257752
Ni 2.8573938762543185 8.39195966150373 3.5512489032262344 1.0114527003761613 -0.054583748783151156 -0.2497423057992925
Ni 3.7034250669836646 4.351294544077371 9.170752139185597 -0.6824252863922956 -0.41911038411489115 -0.12863820469640427
Ni 7.290839774066513 6.226922209165439 11.548330283694561 0.04834162452818126 -1.0988282988783526 -1.8710020548803905
Ni 0.3945330768248259 0.21468621335347107 0.3854952500518594 0.12442185262221152 -0.816688036364329 0.6294186522882773
Ni 4.413802781577818 0.24005736375914616 1.6047574278557344 0.10350849950831206 1.0684599709991407 0.24355134649723215
Ni 6.045712649807714 5.677830062877628 0.2797576600710333 -0.4088799646361346 -1.4526277776005758 1.1807958389910953
Ni 8.03673456229478 8.930958435335315 11.430255040864864 -0.13473377607118087 -0.494172198246736 0.044209090417046445
Ni 9.199918723812017 4.76660873316934 5.60874844861148 0.24155102823775174 -0.6133824247610211 1.6405551069756006
Ni 7.881021187938688 8.603259068192804 2.864253564123805 -0.630639669179572 0.7210121455265583 -0.715533124689858
P 8.573812514797174 1.4781263756809626 3.628891763124239 -0.10314134597688043 1.3200030774525977 -0.5174764201903153
P 1.7479021071747756 3.354125520365714 1.5030599050007887 -0.0882240625454158 -0.23703257154210786 0.4116937799358458
P 4.711856264809404 0.845381554459049 8.369884712982772 0.8887681421600306 0.06748914399090956 0.8714538192512992
P 8.614013855540685 1.755521969145768 12.379113596051752 -0.21650642656429808 0.2864129217474487 1.03188859963301
P 6.116447801303002 7.732565256434872 1.5400438700179035 0.9179506772612578 0.23993920366594165 -0.36174984391755116
P 2.045593171287646 3.130839101325125 6.099654205389524 -1.0857452404421495 1.3812871210740598 -0.37911918843393416
P 6.721887060073096 3.8980260127779256 6.118670336548525 0.8999686388615404 -0.47796036437356393 -0.1949263864006772
P 2.2423052084484247 8.364533594694938 10.37493677560311 0.17336588662108207 0.43587191984394613 -0.3447324834239482
