# total energy = -340858.50110941567 ev
CRYSTAL
PRIMVEC
9.40866193796140 0.00000000000000 0.00000000000000
0.00000000000000 9.40866193796140 0.00000000000000
0.00000000000000 0.00000000000000 13.77052778833082
PRIMCOORD
 96 1
Ni 4.75255026849988 6.206950611098207 5.313757183937551 -0.671846739545501 -1.0764275625856494 0.7383298108693994
Ni 3.1283141725797186 8.244255184005153 5.643079162651796 0.7444870887200468 -0.025727743783407305 0.11726287297992709
Ni 6.594945004510526 6.92307208318201 4.084614316723119 -1.0118080268330507 1.253731350808557 -1.9247455671504332
Ni 3.148100588248425 6.302918960989221 9.416452125953374 -0.6089061341572224 0.07593881742015954 0.4286772018677198
Ni 7.2968311713604965 2.623294844270885 4.099761321280917 -0.7991842231526107 -0.2406316017472759 -0.2394123846281941
Ni 8.54428799867913 9.013441508381636 1.3471049048216464 -0.25991873211166205 -0.4197084227102062 -2.5131867485850847
Ni 0.5150564886680232 3.889324369891957 11.000641193983718 2.2469353893871755 0.2644464447786865 0.8573415482196332
Ni 1.4961936181096884 8.06370296494549 10.240287721261911 0.15255460630268566 0.21746570515377386 -0.5094154975590517
Ni 4.19035450271186 6.967659731234316 0.3139134133596843 0.7082646160529028 -1.5230148119645706 -0.42564664257151213
Ni 6.46506783765802 5.171762601612041 1.9580723505439845 -1.4927853236560678 0.6462007568426226 -0.40681511168730583
Ni 5.861022344388115 8.39819029896269 1.290766779104744 1.5322651269182448 0.5632153169883268 -0.07672223255340335
Ni 0.6524107190164502 7.090593305712354 7.663215750456181 -1.0008109043915987 2.8933292360772107 2.336820641685098
Ni 2.151920890394431 4.25888719492815 8.103721766850041 1.1910743380989681 -0.5503148068765749 0.7006492655994901
Ni 8.220630034340806 8.42275631480244 6.155797598873945 0.027579709390481533 0.4463265395183668 0.32711502745250115
Ni 4.940064897257519 8.74818310755052 3.4726787197062925 -1.6000298931680441 -0.47868207303093685 1.003872059815426
Ni 3.399368309051311 3.428337578591942 10.445757840110925 -0.17532301034745287 -0.7930315732876536 0.006889528030981682
Ni 2.967416647924205 3.718585385041737 5.4479924429145195 0.2823274388241654 0.14389410241421025 0.8224977010675706
Ni 5.0317240800651915 2.032214486898021 6.026230917859321 0.0403182400030725 -0.06172884446836465 -0.4781660526264669
Ni 8.355898364378367 1.5553929178659887 6.086710736480343 0.767247265234698 0.6984561146029132 1.209123225180879
Ni 0.5808390290536121 7.159953960162998 0.7708112002614018 0.1726500915009801 -0.614465887633187 -0.4359025159715654
Ni 6.077656781274449 2.8706673791076067 0.6494328775713025 -0.0682411916655857 -0.7415593735502907 1.2334684867944627
Ni 0.8322572884445624 2.009690150658895 4.558802401330201 1.654106363297474 0.6908469347970876 0.8428204717853226
Ni 8.642119263597442 5.335962566543216 2.273858087592719 0.10941946567610834 -1.6097869725548084 -1.5120570274014862
Ni 6.987643728799856 4.8046366199701405 4.776995853469177 -1.5770884538805228 -0.5572673269350079 -1.0078909511668321
P 3.8765097725829802 2.5821695837440597 0.9551005397697628 1.5514591833481925 0.5747690832641972 -0.842407295507304
P 4.072398110301698 2.18009042368597 8.658989934988575 0.34819241694809067 0.1969652712075769 0.13042383584191733
P 1.8110638923697566 9.008868898769181 0.6666272069267759 -1.7473332783741198 1.2466836999331563 -0.6450283338010762
P 1.0251019240858548 5.891468773824127 9.933948280614215 0.2469984245055681 0.7524539089756074 -0.43137686018706994
P 6.895429434948697 4.900990724993069 7.99409392182454 -0.6436970165841623 0.5104817340400369 2.3759404905046955
P 0.17540756281256512 3.0532800950914005 2.7218270544898706 -0.18545058569975803 0.13183691413936005 -0.3480918868144844
P 8.065293028781918 2.9525227363675897 13.86802306840682 0.25320815286070586 0.23750411186188772 -1.0762213601121142
P 3.4694534304570137 0.7472688468204903 4.742528161999496 0.08643997406179951 0.16053968139069127 -0.03623429974168598
Ni 0.2795059373252293 1.3961136830321665 0.5351336319849287 2.2913956765830794 -0.550519209577897 -1.4008470454838584
Ni 5.584134837629029 8.409753544258384 5.793371243778178 1.5511174837380577 0.030377326740276718 -0.6576516789920416
Ni 4.745587858801904 4.540008599476544 7.6576251236419415 -0.6050759617778547 -0.8122631678237558 -1.1126754891740902
Ni 6.724135339054989 2.8658407356277933 7.6520203838350715 -0.039729200268821895 -1.293982999239752 0.36267132729055607
Ni 8.320898142653409 5.365863293597496 13.219375814091979 0.11946116618282651 -1.558445899078671 1.5406273828400112
Ni 0.4941466787858868 0.37903922915484256 8.750798715518139 0.9212139213935617 -0.7330446512110601 -0.505915197715277
Ni 2.826042096408285 6.119450056785811 3.9761710222124482 1.353468556199895 -0.4545481560972108 -1.1577484702533287
Ni 8.599610929792775 4.911189714334427 9.413256944421708 -0.8976654446496606 0.1971722450120604 -1.3082654773006954
Ni 8.118320246427581 1.6306904378834193 1.9651777719006214 -2.9124474449639 2.0327362707998153 1.1326904988434363
Ni 4.766522131204601 1.9156223504421925 12.628111046948735 -0.5012640720965109 -0.0018491373935968153 0.4786859296856788
Ni 5.729639791654965 8.894337259237483 11.683259362427627 -1.0717239864623929 0.06903797653526819 -0.8327173219130497
Ni 2.878542428995722 7.814279341846391 2.0260442865197343 -1.1825886692254601 -3.3789157495374647 1.9481066104738771
Ni 2.4873490905870352 3.1992084388962674 13.11085066422405 0.4287587058379326 -0.4984877949029544 -0.3478561166545945
Ni 8.51943972298676 0.6036004635689397 4.011464794184132 0.16588963284869496 -2.391679755616823 -0.38112233490689196
Ni 0.5498619510946732 9.260804634556603 12.507357459399104 -1.7120502868021095 -2.238605272254925 -0.4932777114569246
Ni 2.619456110275245 5.44818908394518 1.3214183173669933 -0.7329253520243765 -0.84514243505028 -0.7100260788286998
Ni 3.7111995855648305 0.29314191080533203 1.5976707394576823 0.9950773443419315 3.4781037672935518 -1.356576248590941
Ni 2.680650046323398 8.454030706472807 8.017889368266635 -1.8180823240632238 -0.5775649008417795 -0.5017389548504004
Ni 5.165054225781424 5.123514984137421 9.870383361804047 1.4325639169711653 -0.37120456157254783 0.940225172388742
Ni 8.616217217788622 7.378601850664693 9.752893639016884 -0.5780942909826883 0.7542038017871785 -0.13467232670562612
Ni 7.607354643890207 7.9754120830457556 12.846401408303779 2.860546128108919 1.4187097846968921 0.9333467001013539
Ni 7.707820334099643 3.245630775990607 10.82145887607544 -1.7911230218655605 0.7160941393996506 -1.2348041748867509
Ni 1.251060344770424 7.237942357442078 4.868432050993279 -3.772069304577278 2.1715930679004343 0.7085273827959863
Ni 8.467343962854745 4.695891307417165 6.558819506839787 0.5667097032948304 -1.089959021413181 1.2256646744793278
P 6.746104564250628 6.66837960950066 0.173486314082394 -2.9152682022421468 -3.868339377355622 2.7901745203638915
P 0.6326346528756733 3.0842628182473923 6.537433618672897 0.9322994897837622 1.1471257004321598 0.11844532332380248
P 4.454211012941626 8.91747315849062 13.330668992247942 -0.7741949001971247 1.6929454476518588 0.8221971391080163
P 6.537665071752047 0.5953904653223812 3.1948588145673837 0.6988224968033965 0.3190150240531861 -0.5555146059099595
P 5.079134326643704 3.8839049807216406 4.963531981404398 0.10400163709464669 0.29306050897095337 0.10253970783713955
P 4.495204552203896 6.169617041258252 2.5188088328939555 0.31266079970038413 0.44581000489326444 0.12498852375895894
P 8.398020943051119 6.565175998720803 5.054926780816783 1.8511251134508053 -0.8191061588875185 0.4985862681540317
P 7.734428029540014 8.986382197177072 11.109124945739932 2.0294210903836536 1.8291216125965208 -3.094666668210554
Ni 9.190681878503884 4.368460469715479 4.3258326459065355 1.3556781622567038 0.10866176157447738 0.9804076581448986
Ni 5.1345325270513795 4.744788122552812 -0.1869359960597671 0.9919925347690205 0.73535581584274 0.3408166933093098
Ni 0.4417056207674997 2.754997291503672 8.716881430761067 -0.9869724558466098 -0.41241805969638007 0.36217638993200857
Ni 3.3405359471034175 5.138173679150186 12.32783078447063 -0.7975824258831296 1.3700616846718856 -1.4342955549502912
Ni 8.55418591084436 7.651471858854811 2.8674373855274506 -0.6241810580384218 -0.6135356625094337 2.6459230346102625
Ni 1.7638982709968491 -0.03329537221512967 3.411730349729919 0.02511787811355029 0.5807396990253353 0.39745526773896067
Ni 6.8499761900150204 6.385291794645675 6.594897961201756 -1.0373547649539039 2.047976227678021 0.17344481948813353
Ni 7.693744976115627 1.0410872404059366 9.242544303824399 1.7675341788020267 1.7212077849316614 0.4098099326495716
Ni 0.23612071624508751 6.840652206216786 11.993124228634557 -1.0868379592856958 2.3724229642697403 -2.446144976544239
Ni 0.5908329095687332 3.7697026443513333 0.4922037901336815 -0.35648396753292155 1.6946547170334814 0.43768480468296883
Ni 3.7769661312254375 9.125272861989929 9.878384487759666 1.0971146586213558 0.3252617762938463 0.5611728326370012
Ni 1.1795451067781102 5.520786318039206 6.464794045600978 1.2624797864251482 -2.522445033958559 -3.0214938435713057
Ni 5.841809857086404 1.4992608418414992 10.588200274735925 -0.5061244855126057 1.3055989862121258 -1.241412681342204
Ni 8.90238166503717 1.868014521966846 12.004553870933343 0.47013366924029354 -0.14311737214918577 0.019279417054902284
Ni 6.955372018983565 6.123524007325301 11.472708566231445 -0.8570443286941885 -0.6239620000490802 -0.55557965481994
Ni 2.751092696875753 1.6541368229744395 6.911042168263319 -1.3502127682667584 -0.26388208763478427 0.07263880651264909
Ni 2.485806070059376 0.8255037510375262 12.61449200905979 2.511739988836229 -0.10579215333616619 0.3159641530420042
Ni 4.612361208364966 0.09336215058515081 7.4163926814658945 -0.12182041044362246 1.6030810212895423 1.7245016251915848
Ni 3.192321298492324 7.6574087244215985 11.860335080969183 -0.11832602413711879 0.31501721574770264 0.7640187309950713
Ni 4.859602021937131 7.175572338674673 7.860410010426357 -0.18136253167331345 -0.5252588923492115 0.26677560713249543
Ni 7.2987975816670865 0.826696769347936 13.326372997291056 -0.9794712623735584 0.4919993589651333 0.19970555295687542
Ni 2.030332754547217 2.358365746601161 1.8262193647231335 -0.1058785424023854 -1.8033740713187718 0.31325215342747986
Ni 6.491976610274519 8.674720276575123 8.930118399888025 -1.1252821221945073 -1.453658275747619 0.2625258307172059
Ni 2.2250167835614203 4.0422809840270775 3.296334054183027 -0.8700618239997789 0.10608397354497215 0.10298990800068071
P 1.4139336883942824 1.6942177220465693 10.936140113329026 -0.05808173463408062 0.43999031288769386 -1.0414533605033096
P 4.967773406123111 7.033877892659116 10.911463075280581 -0.4508185138514494 -0.7916069250259852 -1.6472374040917825
P 0.722942751855469 9.489858504958244 6.427173511577524 0.8390185815407293 -0.41288548625110183 0.42443822408570775
P 5.871917574699271 3.7765897847552767 11.744167275158459 -1.263462976274024 -0.0529734668732378 -0.6496442353065328
P 0.8261360131073964 6.4233498314406905 2.8989855692548594 3.3790468757986907 0.020322770717752098 -0.20753867584804903
P 3.175809097114017 6.066272300552084 6.928847119766628 -0.0016521908914423158 0.1273696223966258 0.5165677923331169
P 1.2147429103999028 5.422343490106884 12.838235630767462 2.4151390150810275 -2.844553352225088 2.456266638359273
P 6.7722794612503145 0.6552944738440576 7.155896004348488 -0.8193200746705375 -0.9205292366217114 0.33367236895504465
