# total energy = -381175.5450033735 ev
CRYSTAL
PRIMVEC
9.19036214467155 0.00000000000000 0.00000000000000
0.00000000000000 9.19036214467155 0.00000000000000
0.00000000000000 0.00000000000000 13.45102397477257
PRIMCOORD
 96 1
Ni 6.100975774123439 0.7256691350083707 11.057682567992941 0.04110474046010986 1.268918857182273 0.820411250852187
Ni 9.33042298265571 7.9031414038640975 8.231366906646556 -0.9341475987360944 0.47523833745671057 0.31510154793139283
Ni 3.4559344864021027 5.5401523218652535 0.02562732406833404 -0.8496539497673882 2.7772277303952366 0.8015532376054195
Ni 6.45287473004114 6.744687100067226 9.015144861672594 1.141607341717092 -0.6568299544216946 0.983407621313487
Ni 3.2202017044932743 6.918688221310107 3.333755058623134 0.15123588749126213 0.15419574145053444 -0.9999256735731684
Ni 3.7439971887861305 7.967804789965872 1.0677527844512718 -2.051932641222608 -0.30852260916229446 0.8272308448771818
Ni 3.8379226870749505 0.5328268529003343 7.734137082368736 0.06288352689809815 -0.33574390677209276 0.5232048380336602
Ni 3.253525956625883 4.252040392837594 2.2087251819032314 0.3059170532186474 0.9981729525481197 0.7193080183512579
Ni 7.327420375018224 6.0473408222630125 0.056943482132830445 1.0612683383467076 -0.6867678796317075 0.7539194377775402
Ni 8.467530716526985 1.1838288929138405 0.9408651342874343 -0.31689977748239617 0.6222540162190381 -0.3202753788228484
Ni 2.5819310727752183 8.110521919410791 6.248673160664515 -0.32192191328733594 -0.9170687888769368 1.0376548126928258
Ni 3.9248543199823813 6.684756750327364 8.864264852816703 -1.2233486247516414 -0.639385533693002 -0.717406430453171
Ni 6.6037712815483935 8.405091397997216 4.950608988770224 0.40784509561371696 -0.8541852619788385 1.6538019446831778
Ni 2.069494875750951 2.278391801005831 1.7635100486885447 -0.24189221362725438 -0.24994799405219534 -0.47645781168610846
Ni -0.16690156670001086 3.010918784039947 2.5211120150427404 0.2227323528693519 0.6481352548611741 -0.8390733460380646
Ni 7.6277522104957525 2.998098229234379 5.595975498886402 0.6267449621108561 -0.053850984382184684 0.6730572149138344
Ni 4.333393476091277 1.153482318026396 1.4695379436235274 1.0062102210302992 0.6823507244006184 0.7863225366985942
Ni 4.476000321193783 6.552902628610172 5.28336074477257 -0.09359921081440009 0.8802061115226324 1.0027798551925118
Ni 1.6202516069296118 5.046776935354785 11.799816236287459 0.6558897019956124 0.5115076042013901 -0.2594980996344757
Ni 8.193042178621683 0.6874629626515918 7.2163392282308 -2.0268900964316834 -0.31104563269446434 -0.13976799606097864
Ni 4.32742893123908 8.724355378922393 12.417500457421664 2.585337302607406 -0.6384967033301454 -0.40359249098495004
Ni 1.2509736767199182 4.543218627894803 0.7128586896008574 -0.7001263032164845 -1.0242418817210295 0.24380408593798653
Ni 5.982227108429716 1.7991236199624199 -0.10695099816403933 0.3293444310036521 -0.13049968338517526 -0.08996624204750313
Ni 6.602512201972506 3.0036859692499958 11.316709241091871 -0.5108072357002558 0.48394280720924393 -0.024469703006590113
P 4.214975663424794 1.9807159801080938 11.909858872183824 1.6742080191433553 -0.008466899820430578 -1.296371811186903
Ni 6.8716795203563565 7.100436817607532 2.985777630114419 0.44872717854005945 -0.11879936422911154 0.026593691328128395
P 5.254929441298374 5.355389286875192 3.8239919365557533 0.37597575770894603 -1.5775245129766766 -0.8090186927445292
Ni 3.072540160363483 4.164548147856228 4.712498660246198 -0.32137169721082065 0.8980287415263503 0.32817509328589933
P 5.406469318136373 6.653371664548859 12.632434531387496 -1.7244823419178754 0.1289189691616167 0.47221292036682544
P 1.452067984749044 5.51604600268604 2.9364796100194037 -0.11291462331356038 -1.179479434172517 1.1986140981194389
P 7.067590464292048 0.30852780019122406 2.3326902969931114 -1.2363064704638902 -0.8661835719912954 -0.2246215994722648
Ni 2.418967576135556 2.210805879830099 8.752742568659624 -1.1060075902356115 0.8401943470163852 0.3014037387293261
Ni 5.026392712732025 8.840071225199743 3.1099706661786204 0.27901662928337756 -0.8225372960562543 0.5089480710043298
Ni 2.254092484227393 2.890460711038816 11.292040471766349 0.6039922417953727 -0.5420906191945696 -1.2878056667844466
Ni 2.875370136851904 0.35242556365272576 10.756245131982718 1.018880103188484 0.10213938707492731 0.7939836527882778
Ni 5.282748666672176 7.635655921702053 7.236018550098299 0.12622111061447938 1.3574807626830816 -1.0289230892467829
Ni 8.187004110874545 6.4263789167763 4.988217787605596 -0.14943740082994264 -0.40301784942840263 -0.9829561355983653
Ni 1.4902631286715817 7.110325646977275 10.449777810922253 0.24821867006591447 1.6004718658014694 -0.9275290649783122
Ni 4.549835688439612 2.3196749065159463 9.608308278307346 0.779474146318193 0.4453826875478587 0.9374072433239726
Ni 6.4535364360956216 5.392233447603164 11.232075198651389 -0.17620489873177395 0.00816068143392143 -0.7492480004438
Ni 4.110858053824595 0.3474949345106561 5.378351406001867 0.3717552918696952 0.07338185532626072 -1.5098445931311997
Ni 9.315902210904602 8.335805259875944 5.75686289278013 -0.043988746876124245 0.19603504608382366 -0.2643687974632156
Ni 6.585335415641605 2.8839355541126848 7.925773588999718 -0.8701284155716563 1.0239891422802752 -0.9019720424448143
Ni 9.092686701859703 2.8073246975827826 7.618847668882051 -0.30321533801676814 -0.32168202936238793 0.43181806148954666
Ni 2.799926456279211 2.278336658834624 6.404920340851195 0.09531285107139714 -0.6093136540082861 -1.9757382561482169
Ni 1.6176231634354237 6.321323890265586 5.057288871259164 -0.1407948946635962 -0.8676527003376542 1.2164925210617565
Ni 5.3577328291514785 3.713430045213859 5.559617508301235 -0.17379011864269422 -0.2223862823838428 -0.6733230669807114
Ni 0.22605624989823173 9.038858752400055 12.291720245862896 0.30683467993691027 -0.9998480262576974 0.49869888247249605
Ni 1.2233750200309434 5.990627099176877 8.45279764741673 0.18310342562382012 -0.5907477180806406 -0.44465737934606003
Ni 4.215003234510398 2.3652499110183194 3.664690799120405 -0.840689798595565 -0.45152453877953846 -0.005623002613732252
Ni 3.892403152227213 3.9980647426212013 7.505496502713282 2.285308075628103 -0.7759584198554507 0.3295336641963228
Ni 3.330026528813372 3.3456133825411443 -0.02982823847810111 -0.7757643015667737 -1.3030253119476787 0.9363929431268455
Ni 8.614061846147038 0.9844531825539916 3.583003186694736 0.37651054716649346 -0.6569898770383266 0.7230916537634063
Ni 8.353000426930578 8.036144320814763 1.127662915395025 0.8427626219641938 -0.7954126719253205 0.28751361101079514
Ni 1.6470047503267502 4.134036146455163 7.142278697119209 0.45923296316738976 0.9128637496566536 -1.007173099164201
Ni 5.070708637658511 8.280690659754802 10.07807178710709 -0.6781564838136127 -0.32434672067874465 -0.5952142384924265
P 3.1334722595469344 5.801930589307402 6.825533794381993 -1.2779094907166573 1.5540768234766977 -0.20450811655184134
Ni 2.799788600851194 4.644468844592252 9.508340117090455 -0.3059679610612408 -0.5891605760991789 1.1934024720115124
P 7.4471248383461965 7.236040606966783 6.907544907545409 0.5308590121448084 0.03385217266275461 -0.03337831835012962
Ni 0.39080635288499277 4.276367280701636 4.7109381368010474 0.041167989597877486 -0.43607169455957806 -0.8627542345947722
P 2.342218864177637 8.734023639607308 8.909904189852151 -0.9673564813878953 -1.1562749710315958 -0.2405472695635857
P 5.369717061027078 4.470329867921356 9.120372666986423 0.23555315878310398 0.14269622545136715 1.54293597636853
P 2.997840899102081 0.4403662982932403 3.0644792939692436 -1.0128552371506427 -0.43753130982424 -0.0891224059899691
Ni 0.8716617094229714 1.2669281449224028 10.347953196608067 -1.7781345800256927 -0.16454340323344566 -0.42233300481724684
Ni 2.908381916681008 1.0827073412825405 13.301878870561097 -1.943714652053769 -0.7697049827465712 -1.6163749101849711
Ni 4.238153756055363 4.395115946395358 11.576273550360069 0.0398703538323765 -1.3495568798503144 -3.0504352091960047
Ni 7.892425441926253 1.836464060231253 9.50755985536788 0.3199259659032297 0.38207132908372266 0.855791430123694
Ni 2.179641362736421 7.845618928933596 12.598363102835036 0.48052786799042413 0.012136635362533937 0.8199970461329039
Ni 8.736440704778538 5.091488045841586 6.8354603042353945 -0.5666875918076434 0.2921112576838066 0.47745154305794546
Ni 8.016265568094731 4.476726359781338 9.520150651126752 -2.866211296814496 1.136262532465411 -1.9238662498692736
Ni 5.1354363562933605 5.978192539569757 1.8100638267298377 -0.054205539508126 -0.24286846149759464 -0.2894121135850886
Ni 6.1363678576763 0.7234119821336414 8.425828530515698 -0.8127879299789744 -1.756475092774388 0.555665786775843
Ni 6.286042091055138 1.3865866564410363 4.337255266148122 0.1272428670107744 1.2893802103604182 -0.47354012381868127
Ni 5.926698942024526 8.150343757383927 0.9103549709587432 0.9935223411499858 0.626260823385586 0.0994250734675578
Ni 5.642790283204739 3.2181706345204923 1.9026603986925752 -0.1465042863435477 -0.336372284384711 0.2253700476025151
Ni 0.8642744965536412 7.892756294953494 3.5027005618025417 -0.25565430040835324 0.5246125170144642 -0.9459728735057966
Ni 1.444963835025242 9.060456102789361 1.114796408780118 -0.5501088615133558 1.1660837295919015 1.5460141010732211
Ni 6.352782498939033 5.191810035990387 7.3142230153760766 -0.2799070023081308 0.032715487955150106 -1.183737695228239
Ni 1.531730041419053 6.83348437643382 1.3051784310161474 -0.271725494938603 -0.1898759684609633 -0.7462197551404374
Ni 7.082193949299969 7.982307180993246 12.335409388109998 0.22877753062216727 1.615295303967547 -1.8815317507671208
Ni 0.8244434682186369 2.338432435088107 13.001248348322866 -0.9178177512278194 0.12630801390133084 0.36380518378468313
Ni 7.696422594371883 3.771016852677435 0.32456498165051867 0.5249786421046313 -1.1324153908051788 0.7625837983207575
Ni 5.418187029517806 4.380264321617008 -0.039200569510873945 2.3159957345199467 -0.034708350015462804 0.2776724565506573
Ni 7.641170138822726 8.653010599742734 9.810087268295623 0.7030481048489698 0.023967823669507112 0.34416504095625244
Ni 8.522783172076142 5.422920065879717 2.114393469619855 0.33759201572442504 0.30756667300692836 0.5238645831048462
Ni 8.439858536943067 6.60998396617102 10.714318701141856 0.18082645666418534 -0.2935490185715977 0.2760488049043052
Ni 1.2340817916069193 0.6973049211758087 7.332166277886752 1.2302322392453524 -0.24664026983520107 -0.27881814011932626
Ni 7.038695966579715 4.033273018936707 3.5414122040620493 -0.08126640028066004 0.724252763951043 0.4130014430036758
P 0.6322031548129405 3.7029254615989746 9.51255022186209 3.5159491202760997 -1.0551390855205183 0.4037465000643111
Ni 1.6134966909567856 1.934194368333338 3.992667243096248 1.4313485565068251 0.43193016158737874 0.2288361517742446
P 5.674386747306203 1.3127053373858677 6.451904227827901 0.5857898598547331 0.9235050314205837 -0.3165984441918935
Ni 3.5496761774535663 6.506013402360706 11.249952290556614 1.4132261358745015 0.9613228735993057 -0.4278588197314825
P 8.15049999353568 1.3323727117829396 11.731794691959195 -0.9773616722297233 1.5201395472993044 -0.13512766907548984
P 9.620930321296571 6.5942592570152305 12.702689333649634 -1.5743471436899596 -0.03740338034912268 0.48783288629226956
P 0.23926463797462033 1.7190847584558318 5.505598399314735 -0.5938813786136159 -0.3187157476452124 1.639680417680131
Ni 8.673376441641759 4.057746952590634 11.636292127573862 0.8487898019948802 -0.12516464432550703 0.9072304626302763
