# total energy = -340857.86010907753 ev
CRYSTAL
PRIMVEC
9.37132268228878 0.00000000000000 0.00000000000000

0.00000000000000 9.37132268228878 0.00000000000000

0.00000000000000 0.00000000000000 13.71587801333916

PRIMCOORD
 96 1
Ni 3.3853152756894977 6.264457310211532 11.079123238864243 0.24066322631615972 1.0612562541618498 -0.06605009755153786
Ni 8.768165423498846 1.708654485319854 3.8367834218739927 0.8796705507341367 -0.4488413355204206 0.8026292442784178
Ni 4.639797988289081 4.7391058926204765 9.94558868846923 0.5912292857027496 0.11785165560386154 -0.09252757501677614
Ni 1.1638807668530593 5.3067643805859275 1.697737831761711 1.2941791744109583 -0.03876117992859776 0.6685405579904035
Ni 8.163874435955078 7.335590098469912 4.486531883376456 0.7708187846360401 1.094601662391515 -0.3016019707830612
Ni 9.313501421314502 4.4538334649756735 6.816187361355989 0.10916441224250877 -3.2932005694568316 -0.667135964333393
Ni 3.294282249108846 6.592313027210101 1.3971133036284968 -0.1467796514921214 -0.6868380707480107 0.4413067177062723
Ni 1.308105419835994 7.858678576715621 3.7743900939275936 0.5541238962100199 -1.9086954556661064 -0.3416343041145987
Ni 2.411466186106611 5.61658967313101 8.420355349541436 -0.6617479605486023 1.0734743934945963 0.3972907171366384
Ni 2.417107722240186 5.684110051606776 6.014302976432113 -0.5906327897693312 1.4057516818743274 -0.1282674516205468
Ni 4.379040940254633 4.654229824909856 5.067207138268048 0.05854119076900241 -2.322200834889394 -1.1778192728612749
Ni 5.589750205545361 8.836847845962259 3.822121050720185 0.8555618306113911 0.33016692690494753 4.077754701401093
Ni 0.34512800146334144 9.399155308791046 5.166894581159924 2.4770961735101147 0.21045482105357952 -3.6704760198138073
Ni 7.625557558677707 7.008043635113217 6.695776175929581 -0.4620313518481333 -0.9131321728266919 0.586679718658854
Ni 9.62191164416495 2.210460690211161 6.248706928517677 -3.2582849885265692 -1.9056073036590857 -0.2961252639392062
Ni 0.10047557111252987 5.50147234777413 9.762138490977481 1.9910355486269193 1.2858871096054951 0.20221726363513562
Ni 2.9520790373918318 9.132531812883478 11.805379177101774 -0.7070281725426404 -0.04852288730105192 -1.224233855570072
Ni 0.5766052895380835 2.524390622002931 1.9278075471998035 1.4110116447216858 2.930869399114514 -1.264866798600086
Ni 3.4674174319457354 2.5898961661452775 10.397897442280273 -1.9836114882487064 0.950910162906414 -0.36054065410079844
Ni 5.018811754711551 8.466249527127747 10.40446673933947 -0.8666995923957656 0.01747295997378281 -2.5182675055421013
Ni 4.262527287848081 9.32136396087608 5.9489876701361295 0.061027190415649746 -2.3999700206500734 0.8666371145889461
Ni 3.1852937686545553 3.3990536344466764 1.1020787693552128 -0.649318733646314 -0.3213493286133175 0.27105340857224286
Ni 7.116338637703912 4.586550133951913 6.407578021406202 -2.037641678521233 0.3814532358837495 -1.6558254028711097
Ni 6.575200992359754 1.3424513167289411 3.0194953941880587 -0.857865024823271 -0.042269964412804624 -0.3622026151842536
P 7.450257600347703 0.08077517699292455 4.862785795328265 -0.23710199132746265 0.6563386166075729 0.08090824561029293
P 8.36892834316233 3.6174054482544986 4.79054414458656 0.5691188269569554 1.3290682729786594 0.570265796077205
P 1.1738518539728673 3.4928793151266726 13.608729001827863 1.207043716944031 -1.050114121502101 1.6456975704084882
P 0.47125007080968534 6.180368433589318 7.403062683201026 0.42793955237074693 4.476401418344994 1.6701780720483557
P 2.4380151426953476 7.899396972895664 10.061487582121027 -0.29510016510880144 -0.029704983263600455 -0.8078557827846796
P 5.687699268117007 3.2285705358719166 3.7273854146272813 -0.09966135784807997 1.3075843920732708 -0.4760523487175737
P 4.955789611026676 1.3672478360137266 10.996142989691535 -0.2792099762411063 -3.4735233470117213 1.9350235520376737
P 8.663094155841623 0.41027743535140926 10.972605976148198 1.1693382319734573 0.778825971211233 0.3193299841904436
Ni 7.157150747108765 0.6065747788323932 9.169557908005997 1.2768579095236912 0.7239437173510564 1.6678702498507858
Ni 6.758307262316451 1.5232803553227496 12.120954713121211 1.1715164705716985 0.20517248960871762 -0.7677745984930778
Ni 7.7393628988872445 5.594445238108354 8.551630709120094 -2.0285710836785324 -1.7971134351210403 -0.9556420211644445
Ni 3.8503765251327158 7.078300439753441 4.290257968201675 -1.7473625889501583 0.06397521730038015 0.03366911011767105
Ni 5.109413700458076 8.461629465144602 1.8297938225030383 -0.5275425461770656 -0.9700836505110713 -2.6692411405109127
Ni 6.403977559308994 5.2451010786608 1.6174171639091162 0.9396096502919302 1.4525802121920919 -0.3034979022541935
Ni 0.619194201685338 3.324973330234194 9.764868357216203 -0.7339597068261619 -1.74041572531868 -0.4601058526906463
Ni 5.355954452288814 3.6245182820175947 12.328832199791995 1.0460726044428759 -0.5746559547251007 -0.6654220669660798
Ni 3.4900585470598853 8.479256922731405 0.14416373938680824 -2.0474887465186415 0.3326868651133238 0.9032776486301154
Ni 1.0433468171021492 1.945748944089721 11.645219527372108 -0.44791882370615116 -0.7281762673751653 -0.06867365121731399
Ni 6.2960480382950585 0.8144925621898451 0.5977319989393005 -2.0691346069231913 0.6039613885574372 -1.086535854664245
Ni 0.9777475597349922 8.762448916785422 8.178504007480202 -0.7035751809970334 -3.787896244307205 -1.428236750350721
Ni 7.253309887086535 8.288925363141841 11.254741822158602 0.0644902092635857 -0.49364460787804015 0.9879389335249373
Ni 8.566588276932055 4.856997129431738 0.7083182898766055 -0.17256627353792214 -1.3191947226186895 -2.2160021901434286
Ni 3.739654350019436 4.000505111278694 7.461520055705395 -0.35883601270486587 -1.895034670349562 1.7207802104759398
Ni 3.21695946731793 4.355284637765241 12.537793948473832 -2.1352451253990195 0.5121848327740728 -0.30384782939444444
Ni 0.41674083646657034 5.506823372910794 4.615187021189421 0.008429104603959675 -0.6883719908940339 -0.8032846184742295
Ni 4.13080397905483 1.1933348334109128 8.585933497929629 0.2833988175114732 -1.007806876093458 -0.20049668139960308
Ni 6.665681110914025 2.978581137368163 0.7053831916755493 0.2220425258911789 1.1682311149522073 -1.7907728376149934
Ni 5.822843109615832 2.7245152135851645 9.738807646528727 -0.877477913958192 -0.2699321504836061 -0.27928659511531256
Ni 5.3198842320593585 1.6615823324976784 5.194778951202206 1.9484313408031475 1.2316314335857241 -2.6008451684350176
Ni 6.0516158340225505 1.4803878123271101 7.3448527136101545 0.7564784567539681 0.1751854563283241 -0.43069911739375505
Ni 3.381266864377696 9.18965002340531 3.4260205520180667 -1.178451764238951 0.8342047050918536 -0.13329755784528657
Ni 5.260816786461475 8.762842512329625 12.59530388027537 0.9045135779197455 1.8811597121396828 0.33265421210317553
P 4.179413028763894 1.0510219302141064 0.8601187199531989 -0.42325500241088404 0.5628926435415854 0.8927554089425529
P 5.93831654522699 8.664237457184308 7.993997661944841 -0.5791034489734931 -0.33008208050062504 -0.37261892542157116
P 4.653817486720691 5.600527226398538 6.786438098139984 1.738502053235735 4.178410819062274 0.7092776306984494
P 1.70064200459858 2.0684757833011904 3.8815389837788596 -0.4828354330776782 -0.9573834293355834 -0.30665264583309126
P 2.3660621286860573 4.407660959111675 10.112277338571424 0.2993903078437231 0.6643213777027334 1.7462726983200891
P 8.271935155483748 1.3563583592907786 1.6498962933638435 -0.773123778620133 -0.7776167813944801 -0.8827149939874152
P 7.649332603812062 3.661825516814545 12.479912912302046 -0.07145712749972209 0.660571680852314 0.4482409829322603
P 2.310836925305392 8.190460877833738 5.930348109721376 0.2679737412056546 -2.6357766902048803 -1.476511783307025
Ni 8.092614899809384 7.819262794360441 8.957414595341852 0.13678500217325476 0.058324703882822126 -0.16291538071171943
Ni 4.527201548679598 4.959050831250072 2.8216574052911945 0.07625686288121061 -0.8437789790438499 -0.8341031465169828
Ni 9.11265523790123 8.19890443938914 13.146723740645706 -0.04694371573939012 0.2471843152641291 0.12110410110288822
Ni 3.441861835539987 7.736307847758431 7.926556939710163 -0.29131035904906605 1.0611397831886433 -0.11430301902065475
Ni 0.6035946982834282 4.480373050241928 11.889457745269258 -0.12706726066485857 0.06385720366527711 -0.1404987035794161
Ni 3.7904937744789824 2.1432683080222303 3.301809295325603 0.18507520463821028 0.4204540426269791 -0.7549890166926352
Ni 5.787888076761618 6.704797010949813 13.238496164570112 0.1321709004400111 -1.0987660781818496 1.7229450793377425
Ni 2.00375743024725 2.468977992172645 8.225439338994155 0.8113038892342802 1.2107314502082631 -1.2583889041852263
Ni 1.7280156375656464 6.980670002146151 12.583261730887257 0.18775455124258633 -0.08573137803054913 0.9305627095983134
Ni 0.31657170759916997 7.631648918290373 10.750752099129217 0.6347925150056809 1.515561698120635 -0.015263353916973714
Ni 7.551908335299353 8.66114492076557 1.1904737686574567 1.8432212852226966 -2.287033800069958 1.0998803942919508
Ni 1.3514196723432799 0.8747511028750673 0.11446601844444823 0.09714399074286495 0.21090784943059807 -2.0359061838873647
Ni 8.241290930970804 6.0444467723245685 11.825925801641416 -1.45731155622949 -0.27427037284764383 0.40896763925393437
Ni 8.51494291873914 9.02721689084175 6.710095556680583 -2.9945602524052553 1.1811362530496496 3.685745030157736
Ni 3.228767333644018 1.9049555773298306 12.730117851222863 1.051627215712518 0.2519390563402951 0.6929570391615549
Ni 5.97195022161138 6.602077945235326 4.858040157623876 -0.008238328749392265 -1.5076509279139907 2.653735845786462
Ni 2.1391355548080995 0.738351504163786 6.460672186054683 0.023108560993005362 2.309189767341707 1.380019824325862
Ni 7.62283050383573 3.486769212869046 2.628318588317469 0.9535388587785127 0.9545271908337108 1.8058675271645865
Ni 2.1269715782277325 0.5872276835703225 9.478000930485129 0.511939549532486 0.7933871568548594 3.0851211906139637
Ni 1.9716325367823049 3.2189649303288688 5.770996267989576 3.3373947474755425 1.7635636241900532 -1.4756972578255296
Ni 1.1346234980673073 0.3649474113784557 2.199259148449595 -0.1501123154097802 -1.4040791792679108 2.5381899554976415
Ni 7.7453136886626925 3.7133396764927253 10.229740305945304 0.7492755112476257 0.9805938060137757 0.8902123308057249
Ni 5.424833672524328 6.594177920383824 8.492898756867032 0.7466190474613852 0.10043911655436895 0.7316359437889915
Ni 8.592743637976588 6.594890140892382 2.2798253449511927 0.049077988473573544 0.2297023564292818 -0.13864570953107735
P 0.9599982749559358 7.715747166235067 1.3455813384376027 0.19370639795064704 -0.5609002957019049 -0.6698690469938399
P 0.15256138146205245 1.3543060396674347 8.195483906683567 -1.0343080077077802 0.11067236424660296 0.9405329334371479
P 2.582633391222485 5.414675158954901 3.4321512711851514 -1.3587069217806989 0.6068898750581418 0.8298047762519452
P 5.885443543789061 6.495179269694304 11.186354596353342 -0.3007689333588046 -0.5490187137729706 -1.910485971907626
P 3.896445946449422 2.1444584659773205 6.5786290221233115 -0.9996058283399044 -0.9503848865305632 0.3986073790655329
P 4.692727217661896 4.865843657853823 0.36841105216744163 -0.24877248568685542 0.1618900247709986 0.27406571303600546
P 6.845085708490719 3.437344858104134 8.123283489760778 0.982107671555141 0.3057054514284735 -0.014036423488408086
P 6.517211248847187 7.122851706828222 2.9970285856720555 1.2101557802104514 -0.779750025687399 -3.0294580927237047
