# total energy = -340873.8020779103 ev
CRYSTAL
PRIMVEC
9.21444260329461 0.00000000000000 0.00000000000000
0.00000000000000 9.21444260329461 0.00000000000000
0.00000000000000 0.00000000000000 13.48626816005234
PRIMCOORD
 96 1
Ni 7.604476764857405 1.4540759009710158 0.07053195092635574 1.5665371607272374 1.6333945846714193 0.6583749303113113
Ni 0.774281319169879 6.163881593418725 0.7303247421630089 0.47397978245926115 -0.20042546184203547 -0.4876590797185666
Ni 6.499646667532707 5.698386381857207 3.962319972375595 0.4604110426358909 -0.7314747356207789 0.1488352484695695
Ni 3.172025794845298 8.067797367963948 5.0538711364610265 0.4763593384350312 -0.4094255527269594 -0.8848538947072891
Ni 2.3021455550841523 7.454622284758729 2.647448498739433 0.05693399418288259 -0.6363387764468782 0.27522502345142924
Ni 2.4137508839260127 6.740760987199564 9.619526088783068 -0.18357676571581286 -0.7227715514198261 -0.8768495363455737
Ni 7.410521962447207 7.863144597688376 3.612472465627117 0.49851916236152205 0.8497287688693818 0.8435493795315473
Ni 1.9790779828810092 1.4824471697543786 7.061167428378141 -0.5933411898394297 1.2059491983282715 -0.9854315937220511
Ni 8.383069521722554 0.42228131862867807 4.793680156267312 0.9981564974878874 1.0314898215326946 0.4508725070178364
Ni 2.5180215164536293 4.3439554632256785 1.52490547839354 0.961953308094453 0.8442906285729459 -1.7787668142930526
Ni 8.983187739755305 4.891735647257295 11.348465126909069 0.8986098108408007 0.6506109700951763 -0.7767336074585784
Ni 4.10402059221237 4.686170647163745 12.647530145699184 -0.3055452717015254 -0.12013068144602536 0.4007442229028776
Ni 1.2155139819059757 8.697761165596994 6.1275398317813154 -0.4941212904041426 0.2043065420639965 -0.10695429196506741
Ni 8.578517063834898 4.734868976335577 2.0483890201620922 -0.5567078548871122 -2.4473837340473463 0.41991822472816714
Ni 7.820629159505058 2.7852956386784484 3.8051906898396117 -0.4744693205011699 0.37326864319042813 0.1196254596748327
Ni 5.70162986565446 2.699260388067777 12.428648433151684 -0.16827998745774245 0.3836157907527071 -0.07440361172255573
Ni 0.23928064558829526 7.136816159283517 10.375255970654623 0.1494533416695426 -0.19042232788273655 0.5694011340840646
Ni 3.947697573404397 0.17678645294700843 7.054747726214657 -0.06594211121876385 -0.5713628857961257 -1.4395238932287662
Ni 6.956167011996143 3.904767485303817 10.29961092552629 -0.6735945754745432 -0.6644069954380042 -1.1655605100985797
Ni 6.308308766822566 1.0580852299853032 5.742870946425391 -0.4152203050318656 0.12935374270619013 1.0384294860753212
Ni 9.156907626203093 4.098759145484439 7.105146120047266 0.46953820174813976 1.3952942339864292 0.2983274137968475
Ni 2.008886704710882 8.564326822221913 8.355768049725729 -0.2872788692921698 0.44512454879046565 0.26499768929646617
Ni 4.352644682602981 5.3005067501372976 6.648986060289718 -1.024892627931151 0.6067536065905936 -0.38236546328537374
Ni 5.288334471454992 2.1523832194115338 10.202200445518717 -0.399221615610764 -0.45043207704630817 -0.972778423734415
P 0.9399376468933007 9.129651304975036 3.554251931466416 0.463794357285827 -0.7883452235555778 -0.8541436101076256
P 0.9201910963889985 5.626688803941214 3.0867101922021423 0.7321311382578553 2.1734661165534312 0.16679466116146757
P 8.600051216204731 2.618790660791029 5.7889671170053365 -0.5787872032846548 -0.5560409107270747 -1.4862925168428724
P 5.253605237273604 1.4449996750042693 8.098234514779538 1.340100362423105 0.41743531040531334 1.2440802008720382
P 3.878524752762402 5.648619177343098 10.547961346971508 1.4446193054738024 -2.1149897175840926 -0.03416713280001212
P 3.9011277804745124 6.784059653004377 1.0159973419388961 -0.6649060465616097 0.401770864395179 -0.2535915043420536
P 6.611205924161538 4.7555369711004625 8.142590998595502 -0.8874699921738974 0.5368494254002883 -0.792238645072713
P 6.45542655746731 8.283452182710883 10.400744961790881 0.7103816623959056 -1.4530170426191944 -2.5743165260168697
Ni 4.500094193181535 2.823139354460608 6.62414484446865 -1.7115725758347426 -0.9761373129043189 -0.014942480242445233
Ni 8.364115413282354 0.9403983690235923 2.4143793089117307 0.2843251859804845 0.6525428970105664 0.09737513291706455
Ni 3.421138250694018 2.2941013466892595 11.659202853461345 -0.3042941729032437 -0.578171681187843 0.5122347121754017
Ni 2.8690272786376614 1.6534303667482326 9.15205161494982 0.12296609401229144 0.5432920957018385 1.5440330660874506
Ni 8.762870417049816 1.062416018010045 7.205160601535248 0.6336337188108894 -0.7818773564430469 -0.11664323711805719
Ni 8.494039054024613 8.320687745281058 8.4824583425576 1.4714122572969304 -0.6669901827841481 0.17723616820976573
Ni 3.4838425326267175 2.711128590144091 2.946425832193884 1.7707781396606215 -1.499995468251262 -0.9184127044993409
Ni 2.1623716751962574 8.897032701390758 11.092900718347744 0.3896316579294838 0.25935566051934045 0.07724853737051857
Ni 8.853227241242625 0.21362855881791418 11.14636015001401 -0.12230197806573131 0.9341108319608881 -0.5290954924864824
Ni 7.388748234569622 1.1957490025164619 9.247278272059809 -0.4670288050627247 -0.7352367737663724 1.7107979024522473
Ni 7.362367285389119 6.076132456483368 9.63030145796633 0.9886431586808136 2.126982371169595 -0.40449263420171633
Ni 5.392319456261828 5.440768995483302 1.86006700651684 -0.6566417496702885 -0.4770807899820881 -0.4494537722934388
Ni 2.3531382804648375 3.718304024732162 7.844463236749308 -0.23947537665564567 0.8183129735622616 -0.6430894649071505
Ni 4.412492487327872 9.015677864383477 9.370002668794129 -0.07922802969439259 -0.6187732567592892 1.447399953542733
Ni 3.691425495650944 0.35898823381346545 2.874907935908704 -1.706178658512681 -0.5570976341263632 -0.3663030105058724
Ni 0.6958793128138806 6.470022234554952 7.15650189446662 -0.08087687815172523 0.4278271951625987 1.7779173218085638
Ni 0.20145075147004407 7.260335762414721 4.596295738319222 -0.960499863477378 0.40579181262911407 -0.5429421685615875
Ni 9.05941882343337 2.9925468817688645 9.25078436747133 0.7577274986697209 -0.4161978384537865 1.1646979049879684
Ni 1.806095251841689 5.8888028383067645 5.241101238657486 2.432021906879295 -2.1300334992910925 -0.5154012828288413
Ni 2.4261258803456474 6.393634505352588 12.180406742129215 -0.7927487519399121 -0.001863278460983888 0.341926895654353
Ni 7.602707591877086 4.057119079348675 13.010540483710095 0.164516149539936 -0.240153890779909 1.849056660957551
Ni 8.004051854016788 8.47141759742729 13.175058827771696 1.062886333566105 -1.9748612528599019 0.44648620502468267
Ni 1.6012674071566069 1.7519696159750207 2.060027782617521 -0.3881093077476864 -1.7160216127450318 -0.9218145310920381
Ni 6.297546297858952 8.551233099279024 7.957114404826931 0.3010666671048815 1.2124309493978733 0.5047432888943629
P 7.7595005472579555 8.099319976118505 6.196468469694256 0.2037013043798298 1.678462680654651 0.66244344395373
P 5.562777430027149 3.4518131301288393 3.895063755795613 1.6520044864631225 -0.8141393018005463 -0.6674987469894504
P 0.8862773403782269 7.880596751983825 12.727800841015645 0.38393923553039677 1.1528533469445565 -1.0342133911114448
P 1.9344063651279266 4.238588312027968 12.671131097545507 -0.06868959205691395 0.9196920854323968 0.7966861393211053
P 4.597794928131192 3.1728090224667937 0.7594552810170923 -0.8241995142500258 1.1911859239761677 1.1048482798201875
P 3.0077691409537026 7.004994343364457 7.02150386018133 -0.5372052660778103 0.5695109201890515 0.5032433073100688
P 0.7350001503412091 0.990690796766234 9.189880587623808 -0.09138703365442971 -0.9552111042746131 0.16570271364886943
P 2.4528846216729896 3.647048740061248 5.5729842681016315 0.08330219976376622 -0.3567973850082823 0.37533195347736004
Ni 5.835865865536249 1.2045948674180627 3.2631778254349886 1.1956154205024312 0.3928797325531363 -0.038863766944733064
Ni 8.74660692585052 4.790164846413187 4.851522898281174 0.27646455228548517 0.051142070091453856 -0.8253881352414881
Ni 1.220323920946221 3.5960652291231687 3.334628456289146 -0.4609221779443545 -0.09198738624258997 1.7077210632991364
Ni 7.565398313766064 6.075994239844281 6.414190083917682 -0.5344593279015569 -0.6342250725379851 0.9946430850179901
Ni 0.9122961619643201 2.646415559723319 11.824989104825509 -1.7118818795450452 0.9142786277263092 -2.104173857915512
Ni 6.227829825103212 0.2161579233132156 12.105489637966743 -1.287288617938712 0.7177478729529896 -0.8937234292827769
Ni 4.574989182681753 4.2330872897922855 8.864725944170445 -0.0343926185472569 -0.6894593104209417 0.9049133844613254
Ni 6.194980337213415 4.117685610596822 5.929440373087014 1.9362839068073363 0.17429276931072563 -1.3635794193816517
Ni 7.62850803117342 6.615472211088039 1.6875634264930235 -0.6892047712079744 1.1819456363248224 -1.3189327272065543
Ni 2.782466804798457 8.996880401467575 0.7039281284300765 1.7983089980910383 -0.5763837360494847 -0.5813405658341279
Ni 0.6013594034517574 8.646427505839894 1.3074980766629736 -0.8078843220297698 -0.9629475536869222 1.0599473055424389
Ni 1.7577655003740902 1.5800834036057947 4.561771064763684 0.7840962184712367 0.16031573830534326 0.9615997814097761
Ni 3.850457560585032 4.649312876740409 3.903707824404146 -1.572648415831298 0.6844281757549374 1.0716393971683864
Ni 5.123442021023594 6.623461132827297 8.82324252355898 -0.8210270300593151 -0.3061479382825308 0.16580992865069508
Ni 6.582696438739089 3.2597472884528367 1.6566130352242878 0.10097082068812288 -0.4951677293907859 0.6479249386225809
Ni 1.0954958669649888 1.0821533540717414 13.164067840631459 -0.4597736661622082 -1.7153215013542136 1.351899411940562
Ni 6.17570372328201 5.614857459635322 11.685527594541952 -0.2640296689562421 0.47749808002516475 0.5049294367632401
Ni 2.254046164681699 3.950627766153052 10.369685840099397 0.2315620353458399 1.4659949429361012 -0.8110503784625773
Ni 5.487587578363544 7.482182682592778 6.145139417158459 -0.24961272219996367 -0.3284574004130085 -1.1614858258085738
Ni 4.5396333664031685 7.437851999216111 11.480212305843022 0.638957445016648 1.5336992882616103 0.049306559544611855
Ni 5.3576178654082565 7.887286437315661 2.7775647213321535 -2.158505638588857 -0.7777962443951378 -0.6824183444137601
Ni 7.191927740509009 2.743084277101123 7.603840968317603 -1.4447943975990858 0.36829638678681736 -0.11636992885201249
Ni 5.827969088223049 7.395235202164129 0.13387755806442161 -0.3951438459969646 -0.40359326231589854 0.28402565246219474
Ni 5.359396252831183 1.146313517936163 0.8010723110463411 -1.1076078448431959 -1.3050389999435976 0.4616112335915792
P 8.002089177741745 6.212036270476813 12.97330492113992 -0.5314408527902073 -0.04521387753247697 -0.19151658938817984
P 9.096184449430647 2.802793865186927 1.2756888993433741 -0.7657891926319327 -1.0376033906296 -0.031565433511106925
P 7.736998878414509 2.442085294938952 11.549100400208497 1.036969099479711 -1.7041310319550327 -0.5002669982905642
P 6.969242306053821 8.779327411543838 1.6244076368726377 -0.5537534002444785 0.39768975234726994 -0.3972014998569417
P 4.357242689463291 0.6755826600860102 4.840666442002981 -0.20907053911154314 0.3868201566226177 0.7412151028369944
P 4.04430178968396 0.27531648773119055 12.408917547199811 -0.7421612688003476 0.32655941205934724 -0.19975877479231405
P 4.553132524820715 6.465719089858027 4.436914446010374 0.3540563319280354 1.8392579296995741 0.25931503708939213
P 0.5537336353992441 5.053347756121015 9.029191765909193 0.8478647190774495 1.3791808733643343 0.9434827600940913
