# total energy = -381170.8061078115 ev
CRYSTAL
PRIMVEC
9.22382883180247 0.00000000000000 0.00000000000000

0.00000000000000 9.22382883180247 0.00000000000000

0.00000000000000 0.00000000000000 13.50000585424833

PRIMCOORD
 96 1
Ni 8.764113003459078 6.64190373794289 12.662357556777154 1.478647598703105 -0.20533575465945927 -1.0866551538509286
Ni 5.582113500763429 2.4316871634408104 11.45193297437216 0.8499048894359298 0.5201318555352913 -0.20647063959485085
Ni 6.814269423401802 4.881951117726285 6.555102898695761 0.29077197004709276 1.6735156210620212 -1.618731840452922
Ni 4.514529128398394 1.1591954382385243 13.450257920049417 2.0139759594731768 0.039730742930718675 -2.3657041574886675
Ni 4.2423892887355406 3.3768621061635673 3.220993238195064 -0.06356538345647117 1.055698300458098 0.05941305185099445
Ni 1.2704993782199385 8.185474562516502 7.038524679156516 0.6389741571871963 -1.073905567494744 -4.614148270210886
Ni 4.389002044681889 7.87595054544877 13.267332795584064 -0.16740761215511812 1.0930937103874208 -1.674321147682452
Ni 0.7229849021965042 0.6705455917148322 10.82747700951563 0.5354204062632456 -1.5296328315017205 1.2024278154385744
Ni 7.052456349907152 5.9225373437147875 9.1623859323789 1.2144286965541924 -0.2987853272698725 -0.9759665916544095
Ni 2.4165693083293873 0.9754291006028468 9.221340955399137 0.8366004590175398 -0.4377182290240655 -0.9724146126370931
Ni 0.20002518034763883 2.6599215788630457 6.39902926173185 -0.7383061567203156 1.0686124374166048 -2.261195241740299
Ni 3.003075675086511 -0.0356288828181163 0.9847783732940842 -1.0004280671308834 0.66903755223148 1.3482589869744974
Ni 1.715383080315205 4.738622044769361 3.7877910503356067 -0.39392617153977966 -0.9494896284098034 1.7444767827619312
Ni 3.5658952499423946 4.904973793966744 1.1184473305352098 1.0220849832790269 -0.005581864963151677 -1.0995860029799835
Ni 5.998034380985682 4.9860512475539345 2.9952594027122466 0.6691133997747379 -0.05523320944169198 -0.10581683592651454
Ni 8.831207132855349 2.1502312568697586 3.8172344336798245 -0.7119276667267869 0.08390280946224259 1.1497014315791363
Ni 3.679449804107572 8.76099534938485 5.922169312952771 -0.5739198478900246 0.31841595701660647 -1.16511750902389
Ni 1.930206048921084 5.881758797377021 12.971628840940642 -0.13201740558128233 0.4196138061138709 -0.9907944006958613
Ni 5.740394399916579 6.298841880005645 4.905132443819041 -1.1477324807782234 -1.6139891835616138 1.3487395261553417
Ni 3.6649407216851997 8.23013634070412 3.026404582437219 -0.5381953979052215 0.8484717565338291 0.8139312995547983
Ni 2.6254982504458217 2.878074349601459 5.158743456546064 -1.0328995573960276 -0.5385707789667692 0.002599642406376168
Ni 2.3750159603873744 6.888235305121447 5.221883330612093 0.24684775786031682 -0.7458011795457801 0.15237591463297628
Ni 5.272238978208061 1.552813100852834 9.016572882374078 0.43752282518380775 -0.33058910204403064 1.0599005114649036
Ni 3.0137291971448965 6.4955676968552005 7.420440070398121 0.01773572671686623 -0.17831037511055098 -0.1617799815556956
P 3.2097447791905616 4.374326933344321 7.7549837226029705 -1.5932097849224174 -0.6758993123483198 -1.3898985168921547
Ni 8.386083611215911 3.076506574746082 1.0441650714938304 0.061795436040241965 1.281335999899703 -0.5295212671699913
P 1.6972121379299072 2.4882200090649165 11.610342084743156 -0.21380985356874144 -0.7977487762576648 -0.31991259616679096
Ni 1.227359531754945 3.7022326608038587 -0.1543358676515306 -0.048784111382238565 -0.2385513221794795 0.47759681038655816
P 3.1213712771633855 6.9985984145834195 1.2800515751408594 -0.813437133527199 -0.06540783598184864 -0.07142576004115442
P 6.20544139137949 6.766250171595782 7.395829973251821 -0.5683917189829437 0.8118721030329245 -0.7031275519366535
P 3.1094817620696555 1.5717772924996218 3.225893858341921 -1.523803626414453 -0.33102181870607505 -1.1649334180375421
Ni 1.3024046014233621 2.6687949019973893 2.053189200703647 0.39263316375996893 0.4202334419757408 1.7140693741146673
Ni 7.457926632300705 0.8592817282120316 10.724431163299473 -0.2495870111683508 -0.1609196904379293 -0.9258442210767216
Ni 8.322743580068785 7.458563076475621 10.164802110763933 0.35775434960491287 1.6094794686167184 0.9203091501911053
Ni 1.2425235060094777 4.915230691394384 6.287654298270046 0.43829107080839996 0.03129341079664288 0.3585367362968922
Ni 5.676832996882525 4.909465798505647 10.758316742508034 0.02235034267074215 -1.3624938996269567 0.8778250128849656
Ni 8.219436699502626 0.8652919749421127 6.11061582123124 -0.2960118782897935 -1.374507636258381 -1.3339744520310253
Ni 1.4990289561580776 5.468226888767859 1.6829650122403992 -2.1467078746229804 -0.18483403516168168 -0.22289767480262257
Ni 6.790352035785012 0.47923323988351424 3.8120912268402094 0.9359080330706269 -0.07600643743330136 0.2660986356701288
Ni 4.579575567840586 8.320769680743682 7.858434494895633 1.2388845156037116 -0.39127459284954547 1.3242698231487515
Ni 8.523011347109183 4.869692649487676 10.626785868741484 -0.10517406013619306 -0.8165052309295615 0.879617328898698
Ni 8.706224255027541 2.4346664600857095 12.06317303757912 0.39012736661897973 0.11333577001137901 -0.027853788987474606
Ni 5.55731984942755 6.403015800462269 1.0800568334276732 0.07305686788667418 -1.3399471246746923 1.4103835242193838
Ni 7.198266632763388 8.02592999884214 5.78217373165983 -0.3200663481358359 0.03035932901814771 -0.6071662686479801
Ni 1.1873742346786686 1.178676164288143 13.741520601211358 -0.5306594945394926 0.6738357449510718 -1.1815802825656039
Ni 3.627067681363356 5.816823043878292 3.22544834741948 0.9943574354567715 0.4479409351933383 1.0091078542930685
Ni 6.5348612067848295 2.683931204766056 2.772266889095882 0.9809072234891365 0.12885340603100387 0.35912037671450414
Ni 1.6338536591255373 7.684473087085118 9.037498059985898 0.6940083632442048 0.6476963675515426 2.7535784664074128
Ni 6.50623966657083 6.748863254643353 12.52626365499131 -0.438938988805044 -0.03664387647527883 -1.2487876336500363
Ni 0.8946348185543507 5.4020090230906765 8.792297334196396 0.7302035822178391 -0.3402921882644075 -0.604970289437926
Ni 5.588348808911885 7.244210523129463 10.345945191539519 -0.6270681497782297 1.4782022836355704 0.2064719251464315
Ni 4.674295063959683 1.3875589872614678 4.63390391842404 0.4565273913107686 0.04611916295556573 0.6244150284260988
Ni 6.359839058682788 8.583418200754519 0.818854609744762 1.3841914392050483 1.1884379289173856 0.2558000819575981
Ni 3.806600281661545 2.103706265300499 7.247545859559171 -2.0026062841836545 0.08527500721942088 -0.33912696431171274
Ni 5.9615172434712695 2.9508780289147354 7.093523602080787 -0.6763469414086997 2.028484180391681 1.4329513822175708
Ni 1.4115593893358556 2.858814995438768 8.096965470208582 3.0065148536639703 1.3273451196399657 0.471508180990317
P 7.643823674348059 5.674047400638687 0.687948189175919 -0.8211314168476633 -0.6796767771128811 1.4926372281139777
Ni 5.060183158188774 5.1279782985603175 8.453554995202822 0.05981542949573569 -0.3860223433116707 -1.3555807174468912
P 6.792261368309761 3.4557811838532153 9.483888935677996 -0.815012705544435 -0.9356097851039177 0.7593868886500148
Ni 8.773696561397314 4.2672013877286625 2.9329441389250226 -0.2651907791438788 1.669277157500641 -0.04603765898535297
P 6.1720234602820625 8.87834089711366 11.903170972005107 -0.0274822645806688 0.19736584908010527 1.1244984499509472
P 0.8678746469562667 6.482718903584785 10.689317892501325 0.7625169496385642 -0.6468820991803633 1.4161417668593999
P 5.2702558550543355 8.200601641456547 4.3803196548000205 0.2813823013020767 2.3227911601752256 0.3835101184127782
Ni 8.500376071670848 9.109775981067722 12.808454700703534 -0.5081152906903894 -0.020059489754036423 -0.16777270880402073
Ni 3.51221256736248 3.575746298910668 12.357135533378711 1.0902886368384577 -0.9551645673073936 0.35678632926468873
Ni 3.542844902216071 1.2908102488455353 11.349751400897883 -0.8591251224826172 -0.8317768123766514 -0.861114127888188
Ni 8.258877790690207 4.080345067504623 8.12079338668774 1.186527342158234 -0.19250954942906845 -0.47573018949146456
Ni 9.193648254727371 2.4663410875735834 9.676182702874693 -0.39841943142444286 1.1010967831975553 1.5116253391807064
Ni 7.231804473632902 4.205890598878372 12.677530754860307 -0.04715917418430588 0.25031849001773665 -0.6404869942872969
Ni 6.9057052365314755 7.2737821176915265 3.165859647372912 0.06737755811370977 0.5501515418258331 -1.1908056578186137
Ni 5.0607550355633375 0.9451472712368915 2.1612564992216097 -0.6264153466855792 0.0040592576710381705 0.5331362382147592
Ni 8.82202019954786 7.225412360397871 1.618029258741671 -0.4483659385458988 0.08344798131301112 -0.07930259168606987
Ni 3.43594072848734 2.71383485715851 1.0793364524122966 -0.9083784601917905 -1.5347385281594021 0.5055827540765229
Ni 4.272717237244606 4.453079982118774 5.554212341564805 -0.08571620852189753 0.34108125982460613 0.7095180288440296
Ni 1.2777400836881918 8.042357637617883 0.07572302107213237 -0.16990980975168157 -0.004026347550573711 0.6213618434220718
Ni 2.4555584319144903 7.7724960836246595 11.499912563715105 0.4432841531476172 0.6106123182150516 -0.28304117706173837
Ni 5.572502271339326 3.8827060916214897 0.7676116298353606 0.34603371873387506 -0.9812674350420326 0.21782514537572162
Ni 3.4228336680155085 6.123653702988407 9.839398350340602 -0.05268216088506411 0.07578712233364368 0.34669963445264806
Ni 0.11336546567842658 0.23538564975285559 8.347121236733813 0.3450867814395734 0.2301535850340875 1.5453767245995387
Ni 0.46931116743485196 0.2695396423743175 2.6373204315906116 0.3167586239188415 -1.175871919326917 -0.5709993318091199
Ni 8.544512091627015 6.8609419962290135 7.3744860338205624 0.6973112023651926 -1.056252630299671 0.08053672120348711
Ni 8.113971443038924 5.871695600350442 4.5868965206178505 0.9232841736590292 -0.33475917426132024 0.41823209527499583
Ni 7.064142940771199 8.51334477471335 8.386189685245064 -0.44210093147279345 0.5962966729233279 0.12288073338733677
Ni 7.680405378662826 1.5842479087965367 8.223339301392587 -2.388250675330616 1.8068386328286046 0.3128171227725903
Ni 5.767650813494526 0.9175292835769635 6.7558890449047135 0.590140423513945 -3.8817762195868175 -1.2935073451549142
Ni 1.3986275816078417 7.167754207681884 3.2629515122135824 -0.5673612208359003 0.5912092310980914 -1.2081526337374935
Ni 3.6149291228968323 3.4588988379274443 9.637559765285882 0.34969574096649453 -0.9826465747777464 0.5216302944576887
Ni 1.9867757898596778 4.536325035432129 10.920221683926762 -1.3410444715039291 0.28800160639080724 -0.030833183330772704
P 8.260233693497637 1.0498285022677254 1.3540912474894808 -0.3017063575714094 -1.6007423458540366 0.4399962264249648
Ni 6.854033348591152 1.700873997892833 13.43301858435494 -1.3333573872723166 0.017132803025544686 -0.4481461092256088
P 9.260447221607741 7.7351672491915116 4.7750598573576255 -0.018983740191354403 0.5581852107635871 0.96217133764253
Ni 4.15879372993455 5.76813967641149 12.320348137685675 0.687310639509055 0.2896563683854108 -0.32600688198998695
P 3.7755989936630754 8.471542383398543 9.802718873442442 -1.1596441446141448 0.4005724732117037 1.0565081979539028
P 7.282443292767565 2.9126452592766343 5.4782753276686424 1.5063255242343476 -0.7920612389545842 -1.4856448559565447
P 1.820829889121663 0.9674412650162135 6.722759819643153 0.461550812667289 1.731062309128238 1.3734681392502734
Ni 1.6718742807053324 0.6296388341592197 4.646755478843042 -0.28374977309298877 -0.708580861741741 -0.6029275479762841
