# total energy = -381174.7001937159 ev
CRYSTAL
PRIMVEC
9.19909089576699 0.00000000000000 0.00000000000000
0.00000000000000 9.19909089576699 0.00000000000000
0.00000000000000 0.00000000000000 13.46379938430920
PRIMCOORD
 96 1
Ni 5.788490992533731 6.478542379150305 8.746662809516684 0.9737032495415295 -1.7292370829940413 0.10954570684132747
Ni 6.676874773474667 4.423539121594286 3.299815924569829 -0.6819285492615352 -0.4811246210341585 0.32036639587475796
Ni 3.1186941089347737 5.340430884446687 3.70622071039437 -0.8068080582464556 0.3852880362488074 -0.397559911637625
Ni 4.482036139011197 7.4593218265380825 10.723013842050753 -0.39346285875011594 -0.8729008361104709 0.5520736985492104
Ni 3.6820832164487443 7.756811218933978 3.205380819726805 -0.059498155365633014 -0.7785889154997624 0.061728330247732395
Ni 4.368142197725023 0.4493176237783312 1.888324934144002 0.8602438094680926 0.567126479117275 0.964528782131113
Ni 8.554059608846552 1.9365557664001536 12.791659351034555 0.913450218287743 -0.35630064787752186 0.3462124104035844
Ni 0.6306804555883073 6.921092231940491 7.197706127933777 1.5133366654448581 0.2177402989713992 -0.9382688199933196
Ni 2.1589069864008095 4.84719404219791 1.417374728802908 0.10642335916226187 0.6411845345749538 0.7152796139181552
Ni 5.30006527469273 8.580966948985642 8.658663388489492 1.1359079773394694 2.1256975909199003 0.012536184793797764
Ni 4.703384658131456 1.5112266112989854 9.14928400935859 0.6489994026336823 2.168801106977594 -0.0795761570624307
Ni 7.701570679605695 1.2567153704004645 3.7624584311486626 0.07410382109394979 -0.16309330105048042 0.09738104645433551
Ni 0.9852134090790725 0.4408158242034437 8.044014188169694 0.36099471091908153 -2.339163687995978 -0.5065330338049341
Ni 3.65211257912459 3.257333604058264 10.678112160699332 -0.07477899278410347 -0.0339933262263092 0.8772282598412313
Ni 8.039655659021694 2.4055714029784268 6.0860548975638595 -0.3921305130919376 0.9059238280037107 -0.486522137900646
Ni 0.8658294504954593 7.587934312857604 4.697129276492283 0.1474100859872687 0.8154647054801891 -0.08756328903296531
Ni 0.5295695706635954 5.279808877090586 11.763603936999667 -0.6359040029023049 -0.008588512999959403 -1.4089488486553865
Ni 4.397606885063656 3.458904078289962 4.013841061318533 0.12686182952227185 0.6069438682245288 -1.7543989269716496
Ni 9.04194258033945 5.3313881783418235 2.2867182319250787 0.41078155253422155 0.5583322778644125 0.7839900319106756
Ni 9.149286769085784 4.317068846459306 0.3828974295881555 0.49568272135399144 -1.5633219962240494 -0.9553368312191998
Ni 7.239270379198886 4.0359446363223626 8.613465496419275 -0.3133601397602539 0.16085052776289072 0.11497150584258908
Ni 3.2157721125203484 0.9453629484012833 7.660187650426308 0.9083841166187452 -1.0135507205557706 -1.3427987351908743
Ni 2.4954925140415365 3.032664213214856 8.557792599830636 -0.054518442762854495 -0.20829792261157673 1.7017010823573016
Ni 5.402092389045769 8.351412841009292 0.13404086970963383 0.6332719645960965 -0.8158413720933174 -1.4972934959390665
P 1.424709163774838 1.4992677934593903 9.708193159728035 0.5519119761603656 1.169170081826709 2.78820351268045
Ni 4.6064906363587985 8.60938293999065 5.8223528452010775 -1.5536063115981824 -0.32601176708599333 0.5162772576758915
P 8.225394498251896 6.2389704614606325 8.450674708714189 -0.8648653674005041 -0.7407656740044016 1.425531435604416
Ni 6.670453808203869 6.440053383888101 12.446663094816335 -0.4428450087276695 0.10729984822994423 -0.3212151170282984
P 4.979366576597373 5.828470240480563 2.451286283942941 -0.8903907653651181 -0.5933424753910105 0.19562752623275986
P 4.789892906564958 5.773882836588134 6.962547933935979 -0.14785103017942922 0.1376720327638984 -0.7078367844868648
P 5.027201847955753 3.5167847566336023 12.36640470856762 0.054802292551860456 0.9940013376689332 0.027330312383836805
Ni 7.617095430204924 5.524274711003846 10.623408848264765 0.620366569388338 0.5236892338692465 -2.130684245501214
Ni 1.0451914800899649 1.152443677929841 4.409825117259463 -1.2371029982232566 0.01927813150332164 -0.8677321474253379
Ni 3.0089857538924574 3.1760136427490173 0.11091067618972776 1.3611111603468173 -0.8568378691103371 0.002647722035492214
Ni 0.6140347010646556 7.7673165804515305 9.488801287188148 1.2254818690445601 -1.9483380097583927 0.8884794072750183
Ni 1.0815462863223337 5.2937638976003285 5.268518833140943 0.7383987164341218 -0.9416994429414233 -0.7324687241029321
Ni 6.136014238952364 4.196137600829062 5.883343736092076 0.2551285098118703 0.4815154287146739 0.6219190014771224
Ni 2.335667513160671 2.2764989621266127 2.4798568196707977 0.718268264232834 0.9156030029646876 -0.5218398393653335
Ni 8.795333358305708 4.5589681340823764 6.9235023936897 -0.04773844372654359 0.202092050911181 -0.40571365109301094
Ni 7.105846768471588 1.3722191525496612 8.257091804890276 0.034376934817973055 0.10481796234835497 2.136295678150721
Ni 4.806975617894287 3.758132098817923 1.595056084536418 0.07722591166269925 -0.3319857252812412 -0.13317594466575775
Ni 3.119338045279983 6.813665251378343 5.696627953435285 -1.4018070954042825 -0.6166119874419123 0.11386747414513292
Ni 6.768184947225298 5.399930602743995 1.1375917460821285 1.1743246294444551 -0.5170308480124644 -0.17746653905301696
Ni 9.064075592433346 2.472375199248534 8.445275762414145 0.9460788029560415 0.8592701327009136 -0.6228409990707595
Ni 3.2427714435658954 0.954019292699021 4.380797386726508 1.9317901327020404 -0.46676398143711223 0.18913600497114524
Ni 7.342944130777529 6.8892541792152295 6.653337980148215 -1.3700208041316213 -0.2192112270899709 -1.4704483507217645
Ni 3.6772260965877392 3.391088382048812 6.328295471449891 1.3568166467365212 0.0008361227480501729 0.6061851356816335
Ni 6.217398593896132 7.521139715678142 2.2217284963303316 -0.26758910417272624 -0.28428147722674263 -0.3623514820572921
Ni 7.834920697607825 7.437280805350643 0.571990257267833 0.3429052004072224 0.21238546241738906 -5.5278717967646735e-05
Ni 2.8706314305789884 5.113020164590818 7.827004880107079 -0.7218176721469891 1.5921126952034967 -1.6572667633033265
Ni 5.829399348635792 8.863323837269128 3.9327087614584615 -0.3134038485139957 1.37472489447551 -0.046457520131590956
Ni 4.855694001954668 4.23532572698035 8.863192290272893 -0.3866880019201276 -1.1859583570286412 -1.497974324056175
Ni 6.963546035271054 0.47969946045435485 1.3226728503311542 1.1943272978186268 -0.050016184017126764 0.8586039598718246
Ni 9.149820316343243 1.6873615998949294 1.755894825206455 1.827146748258337 -2.1791217721773117 -1.6232533824723594
Ni 3.5260574400046116 0.5398283965518389 13.219646123423308 1.6247865312874339 -0.5635500746199262 -0.5901980162247579
Ni 3.1715520837857842 7.387964480398283 0.43266818961842113 -0.8379826840770471 0.6259252944230381 0.15302871772562676
P 2.2546695200240285 8.940403017790642 6.036238142080364 -0.21306191965912338 -0.3299794934844898 -0.015152539370722293
Ni 0.23137000846983993 3.114306142696707 3.3299208686174127 -0.12946378592149316 2.080967852112694 1.7748332835666016
P 2.212850453948029 7.284548303357723 11.813056408493587 -0.011628071157231587 -0.3369608098983293 -0.41730546969566845
Ni 6.817142507642472 7.864054217683209 10.486198891827637 0.5174684497705152 1.0813275709904282 0.34497570978300585
P 5.575890808617668 2.417015071741855 7.3320082518177525 -0.4266717414019168 1.0951084268246045 -0.9899896454063789
P 1.7836116853223782 1.3455969842205933 0.25060070746497337 -2.705200332214341 1.6145049468557677 0.9758310945178098
P 7.219998284295847 0.391421306980593 12.22681218765322 -1.0481665108574272 -1.4157815553065036 -0.15123563038094598
Ni 5.160211499603989 6.305691465914927 4.6842845862234945 1.3826562335074446 -0.06635503038646635 0.027808794682152103
Ni 7.481031680462269 3.9240928931595653 12.288355943892034 -2.1023432324646762 0.8112141577339513 1.7771760727671653
Ni 9.078444572022152 7.670431757769519 11.622166998410774 -0.6856206534011418 -0.94607160386719 1.1743534257998614
Ni 7.362602587487695 2.953101278218965 1.379353047345512 -0.9806298014580338 0.833723394580061 -0.26519797823273034
Ni 0.8558594760534954 6.530121680401543 0.20482971204752007 0.2828933386299644 -0.03650400846330487 0.7287928179132417
Ni 9.036312736864193 8.475977727444644 2.388087611296939 -0.68848846186724 -0.567996540427054 1.4003459374777238
Ni 5.185067442529054 5.280075650719315 10.876581621474315 0.04083323196627806 -0.9511729296494973 1.0372529492687168
Ni 1.5078505450319613 3.1118683836755587 11.899655727924483 -1.2363193259796965 -1.1419600970708204 -0.9772310601891299
Ni 6.347492133809634 2.584107354232936 10.566806843520897 -0.5999047019895604 0.14424094423066772 0.4791854950299167
Ni 2.74528462143874 5.2490103216083055 12.34102625729387 0.5589912516046502 -0.1212146585388235 0.16285264579458406
Ni 2.646753161531122 5.760498159698432 9.996292120392656 1.616642047803429 1.0910890212525661 1.425505981683119
Ni 6.527711518652333 0.35893195863760696 6.372590932727751 0.6059174838425436 -0.688288430041292 0.3904099308564051
Ni 0.7431724554600555 5.172326701984563 9.14191921738753 -1.5336560937285006 -1.2547973301792261 -0.45457746667324944
Ni 4.686412335889877 5.699066632365497 13.561815499086062 0.363918826544412 -0.7439024198611704 -0.1373295618228151
Ni 0.4465818142202577 8.770734989918726 0.15513162483335666 0.016590300258513366 2.112856216180858 0.07906502175396705
Ni 3.4642027545019674 7.666586537879557 7.860381020788324 -1.5305710270452737 -1.0876781957988042 0.12476329512203028
Ni 8.126780246528467 8.45976892972667 8.37938359602704 -2.3419973007900308 0.6257003228964256 -0.9010431028726417
Ni 5.65967612622 1.6689910158751822 13.297655332009116 -0.08411646813494544 0.8065746020794108 -0.745139120481749
Ni 2.063751592760216 9.142930197449507 2.0960440805633813 -0.36995474832584674 -0.3831365371234434 -0.14577152194258122
Ni 5.555321641933564 1.9690193572893313 5.025524853731017 1.0634434916211557 -1.2277490678121823 0.7416629890076905
Ni 8.647513170717666 0.5632465216089598 10.529956206302716 -0.17175894714527837 0.9919290285209369 -0.6702369718562199
Ni 9.004097521422453 0.28993693897566 6.1416873181536555 0.22045949767477518 -0.37989437603706183 0.2256040179901921
Ni 2.664912166466015 8.682009760639575 9.911295282552267 1.4763184363492963 0.29542823787218153 -2.3366182958663044
Ni 8.618554433364555 3.312730527927527 10.503634848237768 1.3066675366859561 -0.4345737698578129 -0.1523010955309829
Ni 7.901724493877933 6.661098333017047 3.732596343094129 -0.819794957424427 -0.12382329980626418 1.205376613654253
P 1.5864291773287469 6.736052523599371 2.7412029849191795 0.0574052773923463 0.45452681594097205 -0.5789504683353965
Ni 4.6103450553394065 0.4828933847265913 11.091531253141326 0.6823944331543602 0.3806168560253832 1.2386430890168667
P 7.649467030187644 8.395264906118022 4.9852944706095546 0.5628497061187919 -0.48920971203513813 -1.1565467366357438
Ni 1.7692979002774474 0.20743397460935806 11.72267442298912 -1.6019291670732863 1.8291583793717272 0.801232363930891
P 8.308545078599666 4.556530375061229 4.60125359405412 0.3523689169232835 -0.04532366363746388 1.6956152811745377
P 5.74915568093211 2.024591063880865 2.5751943553061794 0.3286780010642468 -0.3469937686542992 1.0156633960233992
P 2.374220902057396 3.16768846571453 4.579845470303116 -1.5975243531373713 0.09089672428157249 -0.004768110812604692
Ni 1.6304468260691027 2.293912840719192 6.651264505116641 -2.006399689787816 0.4912863920585087 -2.5844525860096073
