# total energy = -381179.37784842594 ev
CRYSTAL
PRIMVEC
9.11598426536580 0.00000000000000 0.00000000000000
0.00000000000000 9.11598426536580 0.00000000000000
0.00000000000000 0.00000000000000 13.34216443018258
PRIMCOORD
 96 1
Ni 3.0240910927711955 2.16193774992245 10.336909184245119 0.3780863762940456 0.4348316515048898 -1.9892373190759158
Ni 2.0383523490913675 2.5384643705558516 12.24441160451822 0.3138630475386014 -1.1511420206804046 1.7497444589187736
Ni 0.37329500415522654 0.6794480482351287 1.871692098661773 0.11901662244624019 -0.04078206701336848 0.2635185336477784
Ni 5.2551462365935695 1.4049008234625229 11.250780241524417 -0.1741305327012485 -1.0513857891256733 0.8760540370274718
Ni 8.54132188154398 1.2668301233823007 7.989808470308444 -1.1518573015798743 0.045033128980238576 -1.3079435751849022
Ni 7.099783916682908 8.198971086514748 7.356762605986451 1.1423992414907682 -1.0120129437550054 3.8632853598714822
Ni 3.4019121831927515 2.773000417806872 4.786821652814265 -0.4865936145685298 -0.06974605834588633 -0.23844487850860227
Ni 5.918716974758071 1.377315854596634 7.074068636222305 0.11180005009314294 -0.7312315092617213 0.12673893079116236
Ni 0.553067686579763 0.6263738753223425 12.698899035540903 -2.024553992099339 0.8713813141421509 1.1323107469065146
Ni 0.26938372090721135 8.403916648326682 5.831459683453575 0.4730009634857596 -0.4383954575967482 -1.6801117862222998
Ni 5.317180510596337 4.112138529637366 3.452245179589354 -0.15205709784097685 -0.011817304349902228 0.04515808459387707
Ni 6.36721429241599 3.8171179257355936 12.767210576417778 0.15871548369775892 0.04487732012866465 -0.15620582990202772
Ni 6.118439077495268 5.519190725423863 7.303900835510735 -0.8458173496301175 1.1808182075885987 -0.5735866329203219
Ni 4.603736221650183 1.8316109383479793 2.954568949162863 0.11403485296093265 -0.4768486193666239 -0.7973939640214074
Ni 4.11144571482117 0.5269813855531181 8.937582785257645 0.04359125432738944 -0.27100250072964943 -0.20974776768422584
Ni 4.823869013511877 7.200160021171442 8.722586850618663 0.3632603670248067 0.06907088665573266 0.5710250428407327
Ni 1.0521578061903585 5.88431324954331 6.328309094092845 1.0238996678902623 1.5652811768329495 -2.989563570521612
Ni 0.5479791440744957 8.050663135926794 7.982697090859575 0.4462494064235282 -0.4678654420314071 1.2505676083685946
Ni 0.9476248128046523 3.4957612428339697 0.8142679882698864 -0.2742796288190244 -0.6465308864885316 -0.982322101558792
Ni 6.505740791717394 7.523777468210125 11.1705139986744 -0.448324543785002 0.4753247265229298 0.7630190860859634
Ni 7.936594822833976 5.215710487976969 11.822505613424012 0.8411163446100224 1.2901723672444103 -0.19604738737899785
Ni 5.1428555404633585 3.551815431054839 6.452538083424234 -0.1875565762991673 0.7612959327472696 -0.491121070125238
Ni 3.215982564888499 4.524618592837543 12.797017110687705 -0.14166007087736895 0.5999944334898893 -0.1922976905285785
Ni 6.565322865910207 6.5912122616733 0.06081729008221331 -0.9823329001920694 0.2364273338579412 0.40034210236845247
P 7.524032715773986 0.916721625608564 11.564734745074057 0.13086478003407784 -0.04770990448145332 0.6514944011413941
Ni 1.0388302369630191 5.077101944815752 2.458066857530134 -2.268708262287893 -0.28394646248482713 1.0391254837010813
P 5.105935803547678 5.960987794530419 5.335531898839536 -0.22226338365273335 -0.4298398547172533 -0.4158988191561288
Ni 8.047144365939275 2.1848097548413246 0.7564844978038555 -0.6650780533630998 -0.13858631704805163 -1.8892316905145399
P 6.228405197597454 3.2346885649257775 1.5853827294752174 -0.32985402365021904 -0.3174291676233049 0.37400526424613656
P 9.185265905244417 6.261076885771726 4.454534904588715 -0.9325673987331681 -0.8216250686546301 -0.2791690957008418
P 0.5979949042131559 5.610140902018369 0.039301743645573886 -0.35952301146956145 -0.17571844601365866 -0.010789377306020127
Ni 2.7235188543554365 4.227483080549491 6.46246447886312 -0.349194890070676 0.38607710780900606 0.47744588663099063
Ni 1.6667757079999945 1.0379368704895038 8.534315335915982 0.007818981823786535 -0.4319026507835529 1.018566428602807
Ni 1.7774437589028003 6.818546681229658 12.037821519116264 0.3589871935707495 -0.10035144193656911 -0.26339486358572056
Ni 7.8744967369402445 4.97240486371042 1.2550650338851703 0.47634905402238603 -0.959440054754296 -2.5025732347352965
Ni 1.6851808805512931 5.6974082209057295 8.471754158013528 -0.04945234109385677 0.006108684000899157 1.8422380953738209
Ni 5.610159133987215 8.794855640333834 3.7157791732919256 -1.4762348754965544 0.5098327876021284 1.8736369214000763
Ni 2.824678933504402 1.2430920999431816 1.2290616883167804 -1.1623193774534628 -0.3468055639028931 -0.5031538329200561
Ni 0.32701953242557963 3.884986429769481 7.142540618425036 2.083914336335527 -0.8336105231512805 0.2218031561868632
Ni 7.059874136876279 2.6165974730507404 10.184701415520742 0.2704052334652827 0.805235314442697 0.3358048419170152
Ni 2.610580923331148 8.710806263948013 6.8289872181900355 0.5866745764525315 0.9483542292537797 -0.823018606568047
Ni 7.196723295043736 5.782597095344504 3.1640013985081055 -0.17660599082493456 1.5239756332159433 0.027497434089320386
Ni 8.17337340225321 8.116690211107109 3.348549945172179 0.9262756521871853 0.5926567621778954 1.9917893960738084
Ni 1.4527688576709772 7.229513491015513 3.2055885194486815 0.6046530153078232 1.0625646885606281 -0.04140195998555451
Ni 4.496213185373528 2.5395582886866865 0.24688182495593575 0.5402203987550502 0.32481260457156963 -0.5510853664940123
Ni 1.7013070569966853 8.171130870084998 0.8085978459583918 -0.31155214001723763 0.5148153284183843 -0.9186456464457533
Ni 4.930361943548663 5.125781301637909 1.05289528933023 0.34631294053719064 -0.6173498940492013 -0.2565145915261195
Ni 6.375491606272641 9.45956587655129 9.478567234483892 0.8744897778641455 -0.8390484063374002 -0.6340849474156951
Ni 4.662151449836772 3.605681783014038 11.026498765151532 0.5954824045521486 0.9934518929233666 0.038929587185661994
Ni 1.3173691410268769 1.6701212742834648 6.220303822240179 -1.0915001406480558 0.10355940735090552 -0.8238637281771618
Ni 1.8441545329148872 9.355643654121964 10.996638446573508 1.5593159603884499 -1.289793643748753 -1.113445020350263
Ni 2.5755117312534628 6.071701425355344 1.1714796611065115 0.17769176768994557 -0.7542181999648817 0.970770906386083
Ni 8.612873243285012 4.7371760016432045 9.550694726440497 1.1192657407970983 -0.20890650272985312 0.9101813177284841
Ni 2.3191064373701664 0.34341280721458417 4.048159816157039 -1.1678732173921564 0.7398339062187517 -0.6127959561299318
Ni 2.8588547591085716 4.845437432658173 3.8799152076346184 0.3393071986433189 1.6185508347903674 0.9418295407613844
Ni 1.420379765013838 4.385089335249541 11.041695111185714 -0.07905139490721225 1.2376928092884556 -0.47005010838755173
P 5.383718080904375 2.623379765461917 8.709618451177615 -0.24775921393099265 0.13446303890829747 0.7801524033321403
Ni 3.3413091187444937 6.5573372635551115 6.979059111763959 0.6823962329265731 -1.4430583887445858 -0.32553714144241996
P 4.950763516688735 5.773116471543934 11.842772269994617 0.6802354778298284 0.32322417703852724 1.0198054432162307
Ni 3.3045443535640144 5.593960029666436 10.450183495094642 0.20965083709504542 1.6930958571867938 0.08828936856571247
P 3.9915978676037733 0.8192143214181453 5.211449676857367 1.4966589476788612 -1.3716873932007667 1.369456704098035
P 1.7242975697130676 2.2803452716009134 2.763148773440261 -1.5934704947829719 -0.09731239799992918 1.8513575411765857
P 2.6128325714837835 7.931836278964845 9.023933036111988 -0.024224162654687312 -0.26533938890660114 0.3043481660696307
Ni 8.614140365119896 7.572083069670913 12.498592598202151 0.7376788075489618 -0.2079770489370483 -2.143194205042767
Ni 3.7838172346360923 7.467367756596734 -0.06445000987502782 1.969540354867621 0.34836159553610324 -0.7038744574050071
Ni 8.191094875972736 3.297297145947233 2.7572917534480816 -0.40681356902540905 -0.044911515800709755 1.2328421660643736
Ni 3.045313104509394 3.65065093417578 1.9101980168671646 1.291626068971801 0.5269907874386537 -0.2992391269778395
Ni 4.656545119416243 6.355682572120105 2.9791055328374916 0.6671092248605157 0.5755111036365443 0.20053884749144815
Ni 3.4650677232796245 8.292309651028242 2.256720286368647 -0.08211872097862633 -0.6503212067688993 0.9639860222537656
Ni 4.085164331727859 4.451417237915836 8.620226196321108 0.35201770423145184 -0.6009385425707134 -0.7136770453177257
Ni 7.194034079638765 1.1263983833363596 2.654877314842426 -1.0679771178254511 -0.35824954407377657 -0.26424512740115785
Ni 7.098206851377621 8.974841636793883 0.260605939505703 1.394364265972992 0.9656412984690015 -0.44460235773840845
Ni 3.540192550914717 7.516338824920447 4.674360487775332 -0.8245692388846185 -0.31404431031147206 0.12205746615509304
Ni 3.309047649869285 2.084679781932229 7.286502979238247 1.459102329581326 0.37443900934944546 -0.14652922604421215
Ni 4.063404476908667 8.14048293045277 11.007152823007715 -0.12342683569879388 -0.08780368717854554 -0.5956443840513097
Ni 8.830006876271332 0.07540468835689781 10.009852276283404 -0.7014702188388887 1.0156137737323863 0.6002363742973662
Ni 7.236870090445379 0.11579852693642197 5.502202176851997 0.32000515588059725 2.082677378604632 -2.1592710559999717
Ni 5.0280852965699205 0.263181205105377 1.0457866446766872 0.09942224525408037 0.13289492309022918 -0.18125017446516528
Ni 8.380534148280084 5.979639098661155 7.574133254567785 -1.0948232914840175 0.939605279416556 0.9189909456003141
Ni 8.744863581754675 7.240653223981184 1.3131320314667758 -0.2538756112413757 -0.624739244534737 1.2292655044567087
Ni 0.5906136916253468 3.6649083338143296 4.434909101723093 1.210345270513438 -0.006326970659292329 1.1593613232664033
Ni 6.24818688379672 5.026809058750614 9.704650029378888 -1.2636501525841657 -1.3359660285397574 1.2127919322817178
Ni 8.827025949364806 3.117365845393725 11.983625168520929 -1.3211618736473891 -0.8168518156357027 1.280252279917221
Ni 9.120177776459734 1.1425792556882937 4.193095764106693 -0.3231640132245531 1.1124512889784262 0.37705562103668616
Ni 7.269596474526193 6.900599657026706 5.3878731466046625 -0.28275912704494527 -0.8488389100652607 0.004994882111430107
Ni 0.4444197378252325 2.4891924747461593 9.977910778461466 0.44934090086465833 -0.6241214084450799 -1.2252257871696963
Ni 7.45297361719183 3.6017892576651507 8.001122318576606 -2.7000547834576594 -1.2690522974363434 -0.7863906709323683
Ni 7.280526539850118 4.3742777777231225 4.937241776993172 0.44484481276651777 0.12279254454890466 1.8355414000799357
P 6.4759679865898345 7.858106196946566 2.1499967219259437 -0.2746624660797399 -1.6136904213742727 -2.404846632016084
Ni 6.3033568215284985 2.289862359339178 4.739136849892726 -0.07589048068072736 -1.1979139867286208 -0.16780896135859485
P 2.1012526416143795 3.5410403374661144 8.833407138461345 -0.7873707754574505 -0.3502292448724613 -0.33066829202139825
Ni 0.13635142541792658 7.0121519584186025 10.178257326131682 -0.27294368361642024 -1.3659903428159892 -0.07625352044710093
P 3.6140958366370444 0.718614875311233 12.50465016985165 -0.49729146060200813 -0.7000314295098331 0.06703277317978133
P 7.019408282019808 6.838282787506805 9.316166883575457 1.9605443220165977 1.821088200769083 -2.6443834580372845
P 8.122542673107077 2.531135119079257 6.0351682061792244 0.280763179660839 -0.9210912797727686 -0.5307834217118665
Ni 5.148233971273297 8.053963122288147 6.275340666599372 -0.5022901993681802 0.9706474934343413 -0.318675124215264
