# total energy = -381166.89815634646 ev
CRYSTAL
PRIMVEC
9.35006450133724 0.00000000000000 0.00000000000000
0.00000000000000 9.35006450133724 0.00000000000000
0.00000000000000 0.00000000000000 13.68476451671049
PRIMCOORD
 96 1
Ni 9.300209830965152 8.248533290282936 6.118034167020865 1.3457225937058888 1.877495118803902 0.05369286153776559
Ni 5.075645045281551 4.251268569536341 1.887457289944647 -1.2166048782699046 -1.68203574271789 -0.2232450308397123
Ni 7.539069105696749 4.1655658794823465 9.058930484782266 1.2151591469623135 -0.4000675085508271 -0.6965529840429294
Ni 6.30740382581102 7.231171485854065 11.466299974267647 -0.307979849284947 0.06685819527513001 -1.1258840174445643
Ni 6.622463594964348 7.257426466616843 6.051416828367504 0.2858771038486367 1.19402956407255 -2.16889700912551
Ni 5.475491198180199 5.228023044388024 9.763531700887427 -0.3286975414482726 -1.418153655083106 1.8096123389189995
Ni 7.559760798156872 8.643162107260776 4.12810484656708 0.13120879363705792 -0.04780066442304671 -0.026440453579715754
Ni 4.826531280159514 1.4376191478564173 1.8530948683629935 0.9449356904905337 -0.3477057071196592 1.5080250234239576
Ni 8.455618516042904 1.403295061538698 8.536377827062255 0.7514203255047704 1.848021020604185 -0.7660969536803386
Ni 2.989645683395649 1.177790208961539 0.6596264714587815 -1.3688848907549651 -1.081251466336854 -1.756117452324653
Ni 9.419441851865058 6.233341965902915 11.68743180173699 -0.482775269263704 -0.5254892631924627 -0.9244928492551497
Ni 5.692319191018093 5.417221597000132 12.87173900556735 -1.2092258121970143 -1.301744902573358 -1.3263007375358513
Ni 3.8701318954504824 7.313134150158375 12.853168842713735 -0.5066937277525144 -1.036051215651132 -0.0856493598397041
Ni 3.3018443328504685 0.034051064437992266 9.745782473685868 0.07587659672365643 -0.24358682772085788 -0.25131607804431555
Ni 9.053611233159778 3.1798072926383 10.62356464712368 1.5890962769746761 1.0054874839316619 0.4692533235178693
Ni 2.345379497690817 6.953568074583817 10.978054572749482 -0.5990485246368522 0.3595515507146517 0.11860884548486024
Ni 0.3657212229521008 1.745161465252881 1.9420046304973415 -0.2006172661378674 -0.9823817511521338 -0.03845804686588215
Ni 5.704951127987648 7.838345966186411 2.400991810575734 2.0625484690652414 -0.37303390147180265 0.238946243625053
Ni 0.21540023800795188 4.022369643591344 7.1730337205816745 0.6132132461730084 -0.6110008119027219 0.8340005595008476
Ni 8.563434108341902 6.1548949258033065 7.105909608439232 -1.1354444074394896 -0.08427356253810003 0.40603452476753943
Ni 2.3543836096831794 8.21050657847303 7.629283201811298 -0.29771163458971955 0.1385822032829936 1.7396999301985778
Ni 4.761389381664404 8.455553065592285 7.560818290437595 0.45683283836632943 0.6797114870055584 -2.2737203707905036
Ni 7.91001420961472 2.049739812242721 4.19009670837452 2.199690597467599 -0.8351860951685165 0.3590319307657559
Ni 6.118195923134539 5.986603117131929 7.745316565688787 -0.7634949972811174 -0.7926893594568865 -0.05882195523421482
P 2.985793456873475 9.003663189272757 11.879908486918694 -0.09716018869278105 0.5731837410549483 -0.03242932417329898
Ni 5.768989718886602 2.522750218869551 0.05134681351740302 1.579056890460803 -0.18534645602172595 -0.46070260573438077
P 0.2545882278131343 0.09529959612768202 0.5220664543725523 -0.4403692934936674 -0.7704349189340602 -0.569324000989226
Ni 3.6367823388633633 1.4097840062143987 7.669763370512997 0.947734850502226 -0.9508651686010914 -0.702558566807061
P 6.863508254531442 2.385379073083681 2.193503597041237 -0.18297872712049776 -0.046982796507441665 -0.732196701388468
P 4.7844279402824545 0.5043088121130557 5.708681803672958 -0.24409333504363126 -0.1557898254105317 1.922131012345722
P 8.09735209941636 1.522975885528566 11.12082818573077 -0.7971509947726658 -2.1947515082947686 0.8619574497250898
Ni 5.76132266609975 1.433561219918011 4.14822151006819 -0.4002184323063946 -0.6041678481412885 -1.4629762107144353
Ni 4.10067643272534 7.0153065496467155 9.222435995500485 -1.6596080098419934 -1.1773166221932432 0.19735427911587947
Ni 1.968871105470192 2.786478134608474 8.337702984206887 -2.419493949615614 -0.7061863933676353 1.094134492947109
Ni 4.342525197828616 8.035080670684131 4.580482466139345 -0.10099935993321316 0.27115599558837816 -0.00908113636566178
Ni 0.4965332985794639 5.023172484013492 9.501510171896797 -3.194625502694395 1.5378814446637579 -2.0321886258264614
Ni 2.604357580727642 3.7849247588083212 6.284618653937511 -1.6914058710788809 -0.47496605763193034 -2.239437024127601
Ni 3.7672905373985643 3.0745162177203387 3.9632033712377908 -0.6442135512092647 0.5708203830290943 -1.6316398067638416
Ni 3.651723741733348 4.240235493574775 8.147991113060634 2.0868052847300773 1.528624187731548 1.07287378379612
Ni 2.729489492247674 6.068313329698136 1.152339333734944 1.1370292354281064 -0.4279320961715792 -0.3401340654199884
Ni 4.448059374420306 5.280037452501746 6.082015849038538 0.7798708675359795 0.4101865992627 -0.8372470914626032
Ni 6.804939451291399 5.440316256004428 1.1992757218870327 1.1231455354674786 0.8114918368753702 2.2040509313188235
Ni 7.837448360006488 9.063110898563975 9.938300299150818 0.46369588403474976 -1.5384118632459312 2.914130489093278
Ni 7.1230660415594675 0.7946320509579771 6.171965338331299 -0.7201819363157791 -1.3108887738561554 -0.6047576592064875
Ni 5.276465727910799 0.05194334762447752 11.34273980856892 -0.5455261272386799 -0.2082678407045897 -0.8097470862701216
Ni 0.9618504722391955 0.7391590540322358 10.03780181420827 -0.25901961733616036 0.34309263382768007 0.6744695218803288
Ni 2.247951826911565 4.332333627660728 10.394673201230182 2.9743614088598775 -1.367782915940038 1.2299314201754816
Ni 7.61587988453087 0.17780269415282238 1.7833022478481522 -0.42907957951246106 1.2284808037718842 -0.5758769716163953
Ni 0.9568107875414972 3.639793059591858 0.7938775007629785 0.4085338941506255 0.43927580331917254 0.2745380246867336
Ni 0.2996611481354434 1.658093665800252 5.99978390288025 -2.108555017702343 0.8035448141141515 1.5782161397270627
Ni 5.060797143055307 9.083681040187233 13.65405608673806 0.018815332934290177 0.7408052689930855 1.1076690370984343
Ni 2.440310701282155 0.9906112702542607 3.030970162910338 1.789108562538693 -0.31936829362754676 0.3306688062420305
Ni 1.205550550088564 1.9720033770355518 12.721835968500729 -1.6459641938063136 -0.4910035707107673 0.4378346999972717
Ni 8.535552216378012 4.45468857006162 5.176891282351229 2.2546494702019815 -0.7988463801972178 -1.3468029712542613
Ni 3.123725606521798 1.8369042968926141 11.60945600488184 0.7561503839905881 -0.5257646283410364 1.3314560564845457
Ni 8.479208728459032 5.208313108687193 13.550379767937523 2.0341244093965933 -1.4948036396376772 -0.48946270858620866
P 2.381807348492733 7.972968193046265 5.589610603880288 -0.23639390951684447 -0.3155445490060824 -2.620903372637473
Ni 7.913071680665086 8.621339057011374 7.703072039839676 -1.176850224079786 -1.3716925354070892 1.114388615210455
P 5.884715465646179 7.989302755508008 9.312564071022793 2.5574804282961376 0.06766269345429637 1.3506280014273062
Ni 8.455038812051702 7.388289967598264 1.908312608531319 0.7645573771073607 0.8250857735097209 -1.1423853575336973
P 1.2145266118878042 5.019404408070685 4.389593421888381 0.7972098730350593 -0.29958982544903884 -0.0191500905658896
P 4.995898346233926 6.459164720668797 0.8350486392219304 -1.4278973647334312 1.083895331717604 1.8649697326433816
P 3.9537962714708996 4.238449631279301 11.891389430963784 0.1694380123215856 0.6742028984825034 -2.638882582823713
Ni 4.796227721522706 2.7415043249685316 5.893001492694603 0.9482364727289928 0.5144779996836237 1.8978220032867121
Ni 0.5144564369783841 0.3420496649759173 3.9962792239615537 -1.328443752020783 -0.6581784980297891 0.8329461500944042
Ni 7.5931779282302925 6.180093349291798 3.4269799843962496 -1.766123671607745 -1.5983350219641248 1.8524929403326096
Ni 0.23300173419239925 6.966695564965205 4.404071996571842 0.031842855542209676 -0.3569377672408885 -1.700322199731904
Ni 7.300548963510692 4.918797715404203 11.378320543538534 1.4580857153913533 -0.4981437812999743 -0.3231722407546692
Ni 8.580666276983568 3.786579720202556 2.659729596958142 -0.6225669194737665 0.03462941714841133 -0.7241555762515464
Ni 3.681812248889551 3.4525112701764633 13.70104951028283 -1.2244197463286333 -0.47346273361352653 1.5667554473856307
Ni 7.696823391818393 6.446897436209835 9.363046938592019 0.07376726369013747 1.4544931129440888 1.428102795876018
Ni 2.5029841827824746 6.7730650818397224 3.3761820196576124 0.02922675807560128 -0.7851637405038027 2.0858642609730467
Ni 6.151622403272334 0.7280623976329252 8.806515211929698 -1.6404172958461554 1.875691747046576 -0.6589925092906522
Ni 7.169414310662418 0.19208585249086318 12.891636877562105 1.3839297009032294 1.3058352705926477 -0.6573511170324873
Ni 1.1634191600183807 7.332563583927981 13.583989509337053 0.43780744630376217 -0.9294694765341347 1.291933058689259
Ni 1.339761374115952 8.285344493724194 2.246436181476506 -1.2133550038740393 0.7062876948321901 -1.2469696066046911
Ni 4.007063588210765 2.4490343113432917 9.739556265819083 0.4323363958868619 0.9803989163941501 -1.5941934889919254
Ni 1.8236926559318576 4.846418867083456 12.759112805147824 0.2165208247420013 0.8908335093294916 -0.6101343501373686
Ni 0.4998450913808085 7.594954440461392 9.357094687611399 0.0010358974636820871 0.14168912434309147 -0.09521309226873924
Ni 7.390253481116847 2.9099737848630185 6.784701236953425 -0.3781115731050262 1.4948635463413351 0.16783724349336904
Ni 4.539203801940089 5.6991914883331365 3.562486727345903 0.7742581493348923 0.40041794991171037 0.48151774270751907
Ni 7.695187130552907 7.3199503470871745 13.316439287281954 0.23669575702797946 0.2854914383744438 0.17901614292832396
Ni 5.94334971933684 2.2291301473262837 10.943609870601335 1.4658594457995011 1.1020375498442698 0.7262186294281622
Ni 0.1994041478765561 8.504388451818775 12.025883561941711 -0.8175210737885855 2.46739694394448 -1.2594415138194566
Ni 3.6520229437933227 8.361706469468356 1.8705841637749503 -0.943962013723355 0.214878661152888 -0.2721407280991507
Ni 2.3209103792235135 0.8271646649415979 5.717713030852005 1.7026673029253128 -0.7328021961829508 -0.7694468439891781
Ni 8.17442468005296 2.8051128129062715 12.981559251668179 -0.18336490681532291 -0.10141613575565761 0.0028544387296596
Ni 1.4023320049081547 6.241177319848502 6.451367701987145 1.0714619910502579 -1.5707658540966043 0.3240096490543001
P 6.7020419928532355 5.049623816128127 5.632717205664701 -2.885238488649276 1.9695462684048919 1.5841245347916977
Ni 1.2416791988305054 2.8139579738042726 4.118607986182197 -0.34983149521341045 0.7212111489112417 -0.05902147283953061
P 2.7333697689629703 2.870768964941963 1.9676368969727964 -0.18431827186752775 0.5092537751702068 0.7187297772502848
Ni 6.434218748918409 3.8791921078290903 3.9049337700577236 -1.1464530998451676 0.1445448486243317 -0.37858722718986415
P 5.860480098788232 3.1168907094642515 8.46992504954188 -1.788623138261842 -0.7125511592433985 0.09812898036395357
P 1.1580335229388368 0.6719461162782385 7.865947356219076 -0.03738075464130337 0.7598098351200463 -0.08716296827075311
P 2.1481398897168904 6.133745080188847 8.88063223721761 0.5820777011104686 0.1301556697821952 -1.0894016062478142
Ni 0.6395032629126102 5.555509049094676 2.2051762174059992 0.18993664649556966 0.7333120459398339 0.20892372912103374
