# total energy = -340898.3614718695 ev
CRYSTAL
PRIMVEC
9.01122915855241 0.00000000000000 0.00000000000000
0.00000000000000 9.01122915855241 0.00000000000000
0.00000000000000 0.00000000000000 13.18884474254767
PRIMCOORD
 96 1
Ni 6.3323978995013555 1.9269431938809045 11.388488572719446 0.08991790530807095 0.413469640889346 -0.2041103668927904
Ni 4.773202962442343 0.42536605525656906 5.8879091151146286 -0.7743167704869697 -0.5469178653798838 -0.05817249457567401
Ni 2.5895658983377574 1.4996937917565143 4.575803880376313 0.669475411099847 -0.1954922862064762 0.8471826054087603
Ni 3.3772013831643757 4.282721766195943 4.639373595587046 -0.031943385675815957 -0.39016799004892805 0.690649731184617
Ni 5.10494234804982 4.5621960234141286 2.6932409894811427 -0.2947582083883505 -0.5416237068604801 -0.6103073853801231
Ni 7.11175206484698 6.138584385467412 2.775591908241697 0.7840082867431207 -0.5076609767617902 -0.41052778465220263
Ni 5.143951958532102 4.612712973371089 11.472672375465239 -0.19849996268454848 -0.8527732121226603 -0.2889737404960894
Ni 5.7100373663623225 7.722713393259729 12.351827704593118 -0.445551094804923 0.34142244521410875 0.4948329717591865
Ni 1.7577663800221883 6.551794292758954 0.46658341685184795 0.71798030067877 -0.12056314099775366 -0.31714506072398285
Ni 2.478277219784698 1.450032908557655 0.3328189308455866 0.9985725019793833 0.6931156762266064 -0.5223021237137327
Ni 0.38622307858460303 0.16217238553164767 4.7426161477368645 0.6063566282624911 -0.38307174532377897 -0.2869330559169768
Ni 8.448739105190212 2.1728506229525197 1.3057261857061124 0.3617488154762867 0.8974713263609834 -0.5213873252089473
Ni 6.990902472290294 0.6643186177607953 4.814864577628931 -0.6768225954935376 -0.05910297680974338 -0.26009125313378434
Ni 0.7327814303362503 7.586824059447571 2.588099771374148 -0.115269239588666 -0.801072441314259 0.5933445322735393
Ni 7.657228791879561 3.9768896640572957 3.964052267177402 -0.32929326605074255 -0.0495389872703921 -0.38835561943053765
Ni 7.700095208387812 3.77633575070694 12.622172685678342 -0.7050749054710115 -0.10910707664201211 -0.6090048645186157
Ni 8.08792949472345 8.881242053840628 6.947224144046202 -0.3807099299598217 0.10336014685590586 0.13962709960774017
Ni 6.666867687505722 0.7086601724616892 0.321116948823805 0.1667416964363451 -0.3156275956381919 0.2491625220364225
Ni 1.8565294502198837 6.480100954575299 9.204415365129682 0.6953263107246799 -0.6123709527773711 -0.5294636744591785
Ni 0.0004271322561469658 4.8379666654999 1.464001214681145 -0.053829130005313745 -0.2961661444794706 0.6650135186737516
Ni 6.474856419278304 1.8913398279729579 6.950745732352156 0.2029752248470827 0.7421772096399475 0.4106756230839766
Ni 3.2850525550766356 4.2498758363719835 0.3285548172673431 -0.1303940110452464 0.23909639604967206 0.236654876487715
Ni 5.7066221105589525 5.685382643729029 4.780177653713603 0.8140182028416496 -0.2515935000754183 1.0310892436601662
Ni 5.42524648401488 2.7085051103395257 9.165969857584841 -0.31327272225277014 0.5270848898143567 0.03478419755872074
P 0.215323317734847 5.511709226583027 12.51653044323713 0.2614986750042722 -0.663089047957529 -0.9169528321243627
P 3.9965161208903783 6.108099397650003 12.634622599709832 -0.36172516132720284 0.26395613540582924 -0.2917808709275813
P 2.322157676794272 8.482657371269056 1.3937307495617428 0.48023630489193425 0.30699254567101325 -0.48134830700919035
P 6.346365304501942 7.71184585104637 5.836499152360535 -1.4268568392840588 0.4986240633705025 0.314706112265187
P 4.6048191367385 1.2026746716117858 12.558273159485013 -0.049775528761230405 -0.604650701314978 -0.4968222342750734
P 3.9075122117350283 6.074172120342126 8.273401314041882 0.26285596036311504 0.3198079522681266 -0.5884923463875606
P 4.610288952761309 1.1904914899596615 3.69767763360396 0.555099886970044 -0.45512074077122905 0.48240451618784663
P 0.13543246450020238 5.693123289468064 3.6751378464246263 0.5453852307854413 -0.6703287602390778 -0.49443753609298075
Ni 1.311052723187304 1.1678282489425806 2.4510542968771034 0.03914093186551969 -0.6903977630748109 0.5241546035414392
Ni 1.8567276972586015 6.431863845563596 4.8602478304059975 0.38754726459662936 0.0783080889832845 -1.1989596543843155
Ni 6.033315207908154 5.487631222607822 9.164334319515417 -0.5821592050806813 0.7111789614862204 -0.2284592280508001
Ni 8.57513060360197 2.4523338913997375 10.203404721302272 0.29537270204389776 -0.1520632684885639 0.3156016274962629
Ni 2.3819471814258146 5.178095505336762 6.934206522585655 -0.7578174872803658 -0.38542173361319426 0.40308109856617036
Ni 0.5386966783084242 9.048986082283156 9.233919030105437 0.8260360532381322 1.0214496636878732 -0.7601322514564716
Ni 1.4335784043440611 1.1958892161502104 11.261255425516039 -0.06094542933512084 -0.48304806330911654 0.2044818912995962
Ni 4.039553750750249 6.935492424968612 1.499558623321025 0.714131616356641 0.09891625215193932 0.043600253188453945
Ni 5.491145601930551 7.69649972800379 7.914823785006505 0.19453686427174238 0.5144959974057527 0.7396392737094423
Ni 5.402952703388138 2.8659853489138793 4.908953523327398 -0.3809616409593117 0.1724631723011546 -0.17566111041316199
Ni 0.8362492632118849 7.3356450613918645 6.928060864385397 0.11150257345738217 0.28016796927900134 0.182333380227015
Ni 4.790783870285016 4.551472660865292 6.844416834258659 0.5993395735147098 0.053399241556746746 0.5216891727200822
Ni 8.32154560739455 7.169405908197788 9.227179531911927 -0.732714521565151 -0.7605762809724257 -0.3073337310605158
Ni 4.873687177385272 0.10474652627536563 10.405496851448497 -0.8744496686548294 0.7175941209839448 -0.18300109571800094
Ni 8.139374601270772 7.136235574128654 4.984248649755397 0.9891941460882769 0.10571682001354052 -1.1104663973379134
Ni 7.380737251471177 6.153218621416412 7.065830841696665 -1.150499244890083 -0.3784823261808837 0.15979971790087316
Ni 2.333421713085068 5.043819181521446 2.5307676288998047 -0.3355554449103705 1.1119902901816074 0.08392672072164256
Ni 2.3411353251370044 5.136040099441448 11.29445189214937 0.05781871078068107 0.4064968091159387 0.9038283789272629
Ni 1.1415605163124456 3.232255764174419 3.7374550007998235 -0.7682913902284962 1.149761338282794 0.3018336271778931
Ni 3.46752093175849 2.6307652374749715 2.46583902035095 0.3941506288457599 0.7473559256274096 0.11314036617112128
Ni 1.1460931645158616 3.248737302075111 8.092964969506887 -0.1650311415031416 0.5840409954844263 0.29840506111231835
Ni 3.4882737922206517 2.53721065765814 7.095585018839527 0.9007780221367132 -0.028548758171970192 0.0446214953641167
Ni 3.9556321747693066 6.925949533423051 6.140989482496222 0.32397673893383555 0.29965513146933553 -0.876666216690174
Ni 0.8634046019017347 7.224500562503327 11.294135598010325 -0.3724132371686683 0.5090416591594008 0.6416887279048819
P 0.23811812269580407 5.539896350997114 7.9989021563726155 0.7688418634153275 -0.28949284622435306 0.42776034648040523
P 8.544285166623256 1.7585773906351259 8.061364391535239 -0.25860515550656105 -1.339710583183854 -0.46893656360839886
P 1.7193424994270268 3.2949018284093077 10.265418197259068 0.258221032694265 -0.7592159102897893 0.1935989258385053
P 3.895950804886156 6.205375615057313 3.693337825701842 -0.24782631972350225 0.11402122611417782 0.06352296025430995
P 6.881235814963109 3.8966266470636035 10.363517139877057 0.3345462869195658 0.20800096019644823 0.6917725319351505
P 6.412507725601493 7.5588261708431705 10.141839103428396 -0.6359266286101242 0.017531066905227873 -0.18446611029930166
P 2.3228425302007527 8.458732558187405 5.576783817042211 0.37287423596548686 0.44793553587669954 0.7437517532159191
P 6.96392285256658 3.947422945120575 1.6082872117059124 -0.34991891272089415 0.2895969759023851 0.22097757496177428
Ni 5.277354193131252 3.0040373776938694 0.523291081154229 0.09941838859933845 -0.2501436550027692 -0.28313759343028655
Ni 1.5544640418168785 1.0910255438974206 6.862261771111989 -0.8881531342838509 -0.2263954035432359 0.48526589689604166
Ni 6.93168968631684 0.5625358847142637 9.107253590331087 -0.1181802425878739 -0.05527691819543383 0.009656549253157561
Ni 2.9734712888151664 1.5523824479103396 9.395033497348653 -0.032392300287776475 -0.499328802747011 -0.8706727181109006
Ni 6.368460838089967 2.0699694210869097 2.646487128768212 -0.07409893599794336 -0.003754581946425792 0.2578384525438656
Ni 4.204675511544279 6.729991346879339 10.453596989778905 -0.3012093633303329 0.12248941148618905 -0.4459467875814449
Ni 8.17338297963994 7.006383763768363 0.5045071742356984 0.1527654367619111 0.9228792249111268 0.0791246713473089
Ni 7.695733773536015 3.8749726636981783 8.272029804983115 -0.03144999097916519 -0.2064477567767154 -0.8921085193871732
Ni 3.2286602837903966 8.343704219585803 12.300615087754839 -0.24311065941538776 -0.13281187645811962 0.3701462955113625
Ni 0.1050664249060242 4.949066108243275 10.219495171862945 -0.3408686295931678 -0.8128097843558453 -0.11869729143360849
Ni 8.617131942123088 2.3554902129859943 5.734944403408529 0.3696428735123828 0.7037088783614204 0.7110956577437947
Ni 3.4862372544592763 2.826984749660629 11.489989254297257 0.6051816341177836 -0.39852073288899753 0.25375682627532425
Ni 1.027595502736693 3.313050443681037 12.594765933698481 0.027954576231397018 0.15249058583396963 -0.7004793156805291
Ni 2.9631263978857 8.361375239718802 7.948481626566305 0.5861922374994744 0.2792549705464287 0.26565537748512313
Ni 5.614734608113159 7.889727512150612 3.677815082570223 -0.292307947075645 0.6241324641886735 -0.449246027158007
Ni 3.223550916928892 8.390148094020011 3.3929494070218107 -0.6956039898660987 -0.210841772079353 1.0195087379114183
Ni 3.4958612470661317 4.173280389594574 9.21222359508646 -0.04121632633730966 -0.05355299352579164 -0.029295149419691486
Ni 7.3006995152033 6.093537251533262 11.501885878866144 0.3209739475517698 -0.6608462746699393 -0.6011398599482422
Ni 0.5762095236483863 8.98709696128701 0.13831515666774277 -0.6215906716034263 -0.7193036474758838 0.19819194452582642
Ni 4.508687345418334 0.6131168143973551 1.5391377434781703 0.18719713607721955 -1.187878971090122 -0.022509236846109622
Ni 6.08563440367164 5.5590812576075965 0.3344932171998505 -0.6718583095097268 0.11980106602074851 1.241688817821726
Ni 7.953184586998438 8.719121032314467 11.248871293456487 0.024276356048861414 -0.24555732118366747 0.34401334586973653
Ni 0.08068113802080683 4.860305502271806 5.883134965973138 0.03738563973730981 -0.5659111186529351 -0.34326798306327977
Ni 7.842130200400226 8.982582335541657 2.421036991846488 -0.12223641493511851 -0.2553113152466377 0.17202222810899406
P 8.43752012504458 1.8154472570600941 3.591770461029191 -0.320834336650112 -0.5320234647665547 -0.23501219867796944
P 1.6166054772259393 3.2453400687298073 1.4778100220507568 0.2914764523132851 -0.6656948610114922 0.24712980787710986
P 4.8137354706311415 0.9052140012444578 8.153409590489103 -0.3377000020571991 -0.2591900814757536 -0.1558006240438091
P 8.407927248901402 1.4902950798754746 12.289365469430496 0.008598283191972287 1.3502690754259905 0.42184320966502187
P 6.334182122849818 7.6561474443956445 1.4387184093842769 -0.962575000838852 0.7954301554268172 -0.3413406841335798
P 1.775924006522951 3.2026989329473716 5.925193976360065 0.381120278024363 0.07453190977030388 -0.6837990268113707
P 6.804937738743776 4.089232656407174 6.1448805311925145 0.5579509832655939 -0.09014930459258667 -0.30967754870234404
P 2.4145137631497624 8.328718545704527 10.200252593386654 0.6262531100761021 1.5940639053925967 0.16254617029775878
