# total energy = -340889.4310639909 ev
CRYSTAL
PRIMVEC
9.10289783211655 0.00000000000000 0.00000000000000

0.00000000000000 9.10289783211655 0.00000000000000

0.00000000000000 0.00000000000000 13.32301111231503

PRIMCOORD
 96 1
Ni 6.330619427467227 2.1603270315015792 11.431942563358774 0.5253509378423855 -0.5601359067320547 0.022004272185233074
Ni 4.925031864267746 0.35261804454929996 6.074520319336709 -2.382427898001252 -0.386276882524638 0.2766504430440461
Ni 2.7251254328219185 1.5133385653016123 4.96115671446985 0.770600240867331 -2.013536815053229 -0.3302836549884699
Ni 3.4062952805284756 4.581461189912694 4.939932397793216 0.0032190211579299403 -0.46578747645645585 -0.035085530849223445
Ni 5.014586173525224 4.499935636577669 2.9303029302605963 0.9096822666048784 -0.20476471264733767 -1.6299048263506062
Ni 7.250494566051894 6.0681282644515075 2.6212358799967763 0.3855392330276651 -0.3185846213839868 0.36861391802723614
Ni 5.0223236367157975 4.405629614631391 11.311196264255628 -0.3575170367831262 0.34080152380065826 0.7472793067532033
Ni 5.852043674783483 7.7832143552739055 12.346514353643643 -0.1645277195041618 1.1722029551157618 1.9430456510112022
Ni 2.2079260844704094 6.326541329220902 0.4435204929815123 -0.8359072896052572 0.9436151719068974 -0.6241913424510669
Ni 2.609700687814313 1.5584707329473306 0.5615086140296655 1.2696102268223424 -0.6790322015503467 -1.6313778113517066
Ni 0.28467401483819826 0.128659448222634 4.732773199487965 0.8154338522422537 -0.7495740163246509 0.2997811155242386
Ni 8.71627048997616 2.537714971448371 1.4278541616823752 0.3719398970766756 0.7819416340220791 0.1291778792499582
Ni 6.830395829293139 0.873090794975315 5.00293719511937 0.23795174092226765 -0.24422266153264394 -1.7472805707593135
Ni 0.802764536891304 7.351090690427214 2.3911473922436026 -0.14502384514327926 0.7376350987952199 0.41938909169757443
Ni 7.72360858001288 3.8584544235898157 3.9868307716886537 0.12813812513153416 0.31214349374433337 -0.2699473199922577
Ni 7.942424039042283 4.294983891006199 12.95187162671918 -0.4981941749219355 -1.0846532929295516 -1.697384971480451
Ni 7.90273540432358 8.953237127360861 6.907875144524389 -0.7530486051368127 -0.1550704307460039 0.3242757582314931
Ni 7.188103304042262 0.7254891265723714 1.0878381689460508 -0.10347816049100889 -0.7589937669766541 -1.9194928033919263
Ni 1.5213946299176793 6.829103217795421 9.403581152586671 1.4455258764484717 0.030657062764224623 -0.1435410899501657
Ni 0.24180300702370144 5.177873955539927 1.3265188819999092 -0.17352015281075922 -1.0892954196872529 0.3094286659163316
Ni 6.226564201900827 2.014180006178463 7.160172882503869 2.2614415534231505 0.5112291537290228 -0.6924767570910267
Ni 3.417628388378197 4.224072316589066 0.573721972103538 0.9023564223674266 -0.8236554688210975 -0.7191411537560906
Ni 6.110829958365598 5.83320067618997 4.815056113925878 -0.39373231036141865 -1.3254594725814786 0.2198905125451826
Ni 5.541716783454281 3.0471950624050494 9.137201231600349 -0.16456654316189723 -0.6425091669236482 0.050805769797957666
P 0.4879981622702869 5.743500720566552 12.491348741093724 -0.7747155485872852 -0.5137184958097798 -0.342124613487456
P 4.2327655840561205 5.9121956239167845 12.766415557518593 -0.5750932993728354 0.2144940241199596 -2.218681536747805
P 2.28783132198435 8.506330356371238 1.2733242777096139 0.8120304829876596 -0.116434977761993 -0.19346420003285392
P 6.233573433261699 7.786382163733105 5.722886298047292 2.024352160501178 0.16984398951075264 0.6676010768952696
P 4.858107359118226 0.8343060780152279 12.597466683317752 0.046316366568036366 0.7996917589166485 0.025527197736827007
P 3.946561372085763 6.16377241238486 8.358431023207904 0.6211312154685045 0.8197137105645302 0.8057983860350186
P 4.64013846959085 1.056455018245087 3.9052806405293756 0.6017705515537055 -0.746198672094515 -0.1944486754333103
P 0.15581612344197077 5.53262298848089 3.4656079424780466 0.49887834547315363 0.05007351961762344 2.0169666666703847
Ni 1.3660172661531034 1.133611180601906 2.534383310827489 -0.39907866227499655 -1.5175458184301993 0.053768194860391264
Ni 1.8499637285808914 6.427811068038694 4.777006000824001 0.2024589473322965 1.316904383922616 -0.37110480276988994
Ni 6.005818928522717 5.569462416165888 9.14911146317511 -0.5236799778978658 0.8175462705995662 0.21066976527786296
Ni 8.638386095789642 2.2112213334998065 10.393321032333278 0.3214197768399368 0.9655919332883047 -0.9528906836715525
Ni 2.5051994202522216 5.340915959312106 7.077703358659594 -1.347618010956389 -0.03441987224076653 0.16920995547117954
Ni 0.40882115658604756 9.126565405727565 9.348544121767233 -0.7760352958399732 0.408241045500555 -0.09253940209131803
Ni 1.5090875119957328 1.1350130268740806 11.647922469701278 -0.1511870365311977 -0.3309251452272107 -1.183542548498297
Ni 4.29326344330853 6.711284410647672 1.3805700689798905 -0.023110103654902136 1.789626382715376 1.962395002072091
Ni 5.614867670747745 8.019161468097025 8.23108967459703 -0.9577415840059506 -0.6309304609471134 -0.9420632540387454
Ni 5.20840507500014 3.058073025361208 4.731507896683858 0.34321733233100243 -0.7466280463224496 1.256308881727746
Ni 0.6862820351510577 7.578244403906694 7.140228433267933 -0.6708946600448769 -1.1816016227218427 0.0791138727140315
Ni 4.93335191292208 4.7382859144388005 6.939743479681891 0.8498539815933364 0.8095959054042379 0.1539741123580316
Ni 8.083564470536205 7.28818056323892 9.022116934973129 -0.3713883954485797 0.043506922143699264 0.7814672654888218
Ni 4.4425236597036175 0.2757413411571286 10.298940366624455 0.31661978434813215 -0.4079142582887555 -0.20250985517488995
Ni 8.338791521050656 7.0474908406248735 4.925903921883813 0.05688745721566332 -0.22103722455511612 -0.17935527143529756
Ni 7.309417623972576 6.2186446807528295 7.052202500563039 -0.3762598646082681 0.09901472540301656 -0.9528490318003396
Ni 2.375792624114357 4.966022213382041 2.6483352069595245 -0.44688395468373365 1.1051341864917226 0.8682250279013562
Ni 2.344232877194691 5.156245470197809 11.472338493242075 0.7290506995603186 0.07217575083330151 -0.7739498740658541
Ni 1.1477752896895903 2.8987267981247617 3.9314077779994734 -0.8616388900434064 2.2826140737357075 -0.03572316443322235
Ni 3.655368772081954 2.501904171222825 2.6221953254324073 0.0376625475477803 0.43408011805084595 0.19303816823902883
Ni 1.1167617166421995 3.233922806438253 7.920770065586125 -0.6645864584386619 1.1400713646885399 1.5905304383180414
Ni 3.951822847055353 2.6923094859960184 6.889049441436831 -1.773230972076488 -0.3066804137472331 0.21388004468504457
Ni 4.23766294311086 7.055847300870693 6.077425054047428 -1.1771325312068952 -0.45782194175247604 -0.2383314928591895
Ni 1.0779287543233946 7.686304904536447 11.787480817545175 0.141468266581537 -0.44493325871526596 0.028929024329524374
P 0.24781456077788305 5.631908295562747 8.037532936580805 0.6032700189173674 -0.0033843430912006236 -0.3879529846754803
P 8.50267099142699 1.7335649735010605 7.975714246847277 -1.4689252292090185 -0.28066753462323923 1.2495018861082416
P 1.7571596847833726 3.1952719020768736 10.251790996810467 -0.09105484712599157 0.5872839279017563 1.0623188910984092
P 4.00704102554243 6.2186264749570865 3.5676760054391488 -0.9875167583858542 1.065993768846835 1.3312537106657525
P 6.935652637378546 4.033348400390378 10.415570335310218 1.891442067902297 0.5974793803775194 0.44650188875396646
P 6.360558858565809 7.924555050520995 10.279395534605069 0.8730702718087996 0.16533298901427654 -0.20732578850629457
P 2.017238579863207 8.516552910680666 5.855903303480899 2.1321500314134636 -0.342268595264488 -1.9448281968329215
P 6.941897225318232 4.083314206805737 1.583626591214564 -0.23315303398204362 -0.8555083516656363 0.7800241052843921
Ni 5.407112232631926 2.781162872117409 0.2502750740724852 0.04326960932191258 0.16660671352037756 0.8584412090417152
Ni 1.2227285507615637 0.9515805318702741 7.177985433058355 0.4308592971207031 0.09826267772834045 -1.2159284210281704
Ni 6.749243494770837 0.7628374062483735 9.256281700393053 0.8905234342882405 0.27702993787065194 0.2599382724956878
Ni 2.4273605405550582 1.4015913910339963 9.188600744430431 1.1116619603079112 0.8953247123316258 -0.25587335839769476
Ni 6.316691993724196 2.1563763738254513 2.7938350162439938 0.33173041473732545 0.21142901204139072 -0.8239524312362262
Ni 4.436743319555366 6.875400556368661 10.652559729939595 -0.9861892978236823 -0.8710419285248612 -1.1293498645059776
Ni 8.385034242236669 7.364408230012871 0.4059856038991494 -1.2118601644960678 -0.7988358386742566 0.02927072393965927
Ni 7.7725002444794296 4.199212302502648 8.190068375629973 -0.08471193562709926 -2.0750743694463942 0.11421945816791296
Ni 3.45868245777759 8.258604093702708 12.454284471831304 -1.0115645433636773 0.259428679849121 0.7575855737752178
Ni 0.041621179936772536 5.207731460557668 10.234390807529548 -0.2535920185626858 -2.1786592307185964 0.23396601680164222
Ni 8.676927765376565 2.237346650390329 5.765212952569087 -0.1134949212970626 1.314759312555155 0.6806285995031891
Ni 3.6713170491524054 2.3142297258110105 11.325145544953552 0.07440643993603314 0.9777887324648129 0.5981895190706666
Ni 1.2597227277103737 3.26556447943876 12.585609248550645 -0.7937491681799684 0.657334404861939 0.6293692871075807
Ni 2.927637601763891 8.392871837303826 7.8410851182006684 1.2495389099937642 -0.5121881752081825 0.7643735432313288
Ni 5.538312299650428 7.793655379132243 3.472855669763145 -1.572005897151293 0.8651361045633875 1.0303636783480514
Ni 2.976447340149599 8.511792095093996 3.44101373300947 0.3692224981455125 -0.2514407765476379 0.36603021646045997
Ni 3.4778895722859535 3.9962631944628555 9.11781570029371 -0.961575355929744 0.8989718221659099 0.1803636580951539
Ni 7.476501314399594 6.3404960716575465 11.39141464145634 -0.2191045263087775 -0.8796630945349688 0.39485691088416514
Ni 0.490450482956805 0.1930597197924533 0.2302933029552774 -0.047615802105750255 0.39993998183402735 1.180435627438199
Ni 4.755863610228208 0.5456841363702631 1.4998908542763965 -0.2890220772355216 -0.8144411493116811 0.10962926769406926
Ni 6.219682411110153 5.7884508302548445 0.4630343751481372 0.13940367074302445 -0.3339952995121022 -1.3081886013161728
Ni 8.11547012757498 8.768867033876313 11.579948400427202 -0.8868123039852406 1.2904994115665258 -0.477910484972235
Ni 0.3785840607270756 4.846919897634445 5.919280409329988 -0.9037286201246049 -0.6248806552086077 -0.3022185213211376
Ni 7.7134315401928095 8.527776783755932 3.0482246001542896 1.019358328376483 0.49857238419696065 -0.11293647769043132
P 8.408510615846655 1.560810177700245 3.5075358900730804 -0.5636855717565259 0.6084471922429329 -0.5937425390429065
P 1.8149084688786603 3.2198497263292816 1.651853721049462 -1.5724812941258144 -0.537774508317719 -0.5492411141964217
P 4.490359388017101 1.0460777146718478 8.158638800149866 0.40735092958611774 -0.3726572348586743 0.8805886916730318
P 8.465685917376053 1.8023555727141898 12.529985991108298 -0.34484252663925125 -0.21129351490479095 0.6661784855161301
P 6.269238587121305 7.826544149141115 1.466837321816056 1.4367489015867903 0.0740580554576789 -0.9199342833501899
P 1.9342383570730377 3.1285749693741343 5.999284868430725 -0.16850290210182595 1.2292097115181089 -0.12611338139202152
P 6.780967093852186 3.9303491109770454 6.077264843044894 0.8281297025423674 0.6329050681749809 -0.3299373273926447
P 2.2893879175203353 8.678730139155075 10.313435821194654 1.145364494766679 -0.8378237899016797 0.20734455755937192
