# total energy = -340858.3238920128 ev
CRYSTAL
PRIMVEC
9.40364699258197 0.00000000000000 0.00000000000000

0.00000000000000 9.40364699258197 0.00000000000000

0.00000000000000 0.00000000000000 13.76318790885045

PRIMCOORD
 96 1
Ni 4.06074856149245 3.332680616169459 10.120594874668507 -4.251183837159943 -1.4960241423083398 -0.2535619366556988
Ni 9.060244369907089 7.113952796501038 3.9065983419158115 0.4492555402397037 0.7132546130683265 0.5230536571677766
Ni 2.560716447856597 5.729406868498988 0.06204338047184379 -1.0123690415428437 -2.208330275420468 0.2594032259278242
Ni 3.369806213505364 2.4279651668051825 6.891805747700437 -0.51718588553309 -0.5667243585828498 -0.17405057139293253
Ni 4.227202512465821 0.1287274606106758 5.27384720210133 2.1422593519333235 0.2123525522969246 -0.7399390643380482
Ni 2.4047193520599044 0.05131758099835489 6.573601387798888 -0.3250884839407756 1.1527487030458923 1.1024268148628886
Ni 8.753440991315077 1.4756202466946144 2.799872812883435 -1.2375105180743202 0.7974587558210717 0.48500724391801636
Ni -0.019818185507958833 0.3392882762609294 10.226873949777591 0.18624145703216957 0.013783169827021423 -0.08327186074646303
Ni 4.373720732346963 4.462820285223788 8.095493218650304 -1.6463786556359128 -3.174449284856836 1.8788963700268027
Ni 8.270629556660213 5.421211750189218 11.446925646787223 1.9305922557391975 1.2972513855783787 -0.9503535190719956
Ni 1.4705986993345908 6.123673565434784 10.10418927256308 0.9505031572759823 0.5311750007233303 -2.064173406263174
Ni 6.30997861467971 7.522813953179823 10.966328770940008 0.37311437700075095 -0.7288221284892803 -1.2494556062513387
Ni 2.279979978032349 8.721036024643464 3.94130908276847 -0.6152212777419728 -0.24584811295120887 -0.05956191872403291
Ni 1.1798849603174864 2.8220625980996297 0.088735631747925 0.2399088646486384 0.790547116302903 -1.5910346316479695
Ni 6.1015561882985 9.219278843601325 8.849963782929736 0.9041024585242557 2.7839786759658245 2.9414561734914244
Ni 9.083819312288325 9.233421928300718 5.291133925906445 -0.6939615691666694 -0.7538153080995083 -1.6502414810254287
Ni 4.479192034200945 8.788845721297267 12.091332168144067 0.23565034648260058 1.8495497985438858 -0.368307699640727
Ni 2.184645807365831 1.8670564459611836 11.437374362791763 -0.41065711114121534 0.19245504204204922 1.2747766015146305
Ni 4.020237651329562 8.010383633085949 9.903191025284377 0.2726451785393949 -0.13006799516439535 -0.6691460527848863
Ni 4.24655521746007 1.5353334035038855 13.555363360594312 1.2622419593827294 -3.396295378466493 0.8638132719869059
Ni 0.5255030504971353 4.20766173453674 8.754061632000026 0.6639470250824501 -0.2636674005208169 0.18885215518213927
Ni 1.7605883575525905 8.300918702814963 8.834081023583146 0.39351325237207707 -0.6504122238208089 0.21012983361399293
Ni 0.8254126156628674 5.138378267141588 4.468755867047098 -0.9448295039299728 1.42224042355797 2.2598222726521726
Ni 6.134177438845171 1.74895604653321 6.460866709201682 -1.0451446933119677 -0.45077994730403015 1.0140600560920214
P 2.373057273480878 0.5208604701007987 13.316379082302845 -1.3791446208097602 0.4562260580202659 -1.0619468524709712
P 3.436807196539389 7.388567492296493 5.771083830857837 0.5675584244483709 0.08130933770345351 0.12220479036623469
P 0.49002121061166426 3.2276512857123327 3.924723871010279 -1.5890949914230956 -0.7995030399446101 -0.3653136500094095
P 5.216513167917688 8.894053721042484 0.4781218360248215 -0.15008429038532217 1.6424903763251002 1.621941091418839
P 2.204948280680983 2.65148984985343 8.679299819310144 -0.14916614944642698 1.837045752539604 0.9882155842250917
P 4.374971417363598 0.7084162043623594 7.856054744221219 0.5905150332445442 -0.8327762001754433 -0.9226367698830173
P 7.077936829480643 7.466439090963827 8.364962238948747 1.5026305918812637 -1.1314980211972319 -0.03091931528667578
P 3.369862635385814 6.696665972341761 1.8794598560133768 -0.05127036813920202 -0.052086950503226426 0.7284650022601776
Ni 7.272150345635269 7.854978967033978 0.7549642557333659 1.4021647358540175 -0.23549016675565249 1.757379349756212
Ni 1.3884672486933038 5.55610706269772 2.1772263300866945 -0.03718406524946499 0.3565027365859989 0.12847159721155293
Ni 0.9263607634341309 0.9503983652350536 1.203934786859173 -0.00336120316274905 -2.3424382449821914 0.6992302737647764
Ni 4.729046928125721 5.202501734272678 0.758673994372934 0.6668744831418902 0.0520129027321814 0.6513915570149427
Ni 3.6343496036405476 6.419455870045621 11.678325883981577 0.09396430746330268 -0.9740812017062385 -0.6077455381902178
Ni 7.610126813175743 4.820694869269525 6.41525526104614 0.7849017450916677 -0.029915556612509775 -0.8024017016486439
Ni 0.14330969561290202 4.953737663369929 0.1353081326004597 1.4784321402581893 3.8716676703979065 -3.764035121418892
Ni 7.379822100826789 4.144375191965654 3.5844435100181093 0.6846009538873757 1.2279814955379627 1.2023735651618714
Ni 7.230257099401362 5.022130386121713 0.7210133295374301 -0.9160598879964481 0.8768495363455737 0.19386709189822743
Ni 4.577384913476914 8.44259404462417 2.7020306896309276 1.7017635601641208 -1.1140325174226169 1.5878428641835494
Ni 8.988729636437089 7.3628485184581685 9.83626150996559 -1.429884570366789 0.4573622285072381 -0.05994809841885805
Ni 2.9083786715409365 9.010461464056968 1.4543426152123566 -1.0948240628149661 0.3561980608613866 -0.41354368866039104
Ni 6.296512592545714 1.6474060653704827 4.164135074863815 -1.5106714599078692 -0.44267120215396666 -1.2671239700653791
Ni 2.216223253124182 4.314242666706233 11.377531435657458 -0.9145961589667281 -0.09036604858908309 0.02195902076959444
Ni 5.659895111784952 3.333959512126319 13.036380798747814 0.37255464784253906 0.14638498715686402 -0.03165156546701001
Ni 4.039985309486958 1.5871569006969393 2.5664357458048483 2.187830098584587 -1.1947746697686907 -0.12960648214694453
Ni 4.272509282466935 6.077445238052993 4.110252179034347 -1.3732231131190027 0.14255430055686416 0.2733355197382002
Ni 8.080835754474148 1.6811839644663724 7.738297577899314 0.2836173612801825 0.06510907379450723 0.6569261136799268
Ni 9.289919037924355 8.859711603142097 7.798648301957667 -1.3511687044221246 0.07861019360473559 -0.3535801636225652
Ni 3.436703756425231 3.4058974096996923 13.12885626080488 -1.9855069054992063 2.743034115232663 -1.838981793220052
Ni 2.9428712477891894 0.7710886888012173 9.531351085462665 0.7497627352966895 0.6036821667541217 -0.695230408576764
Ni 5.58442144303673 5.743672200606022 7.139529775273563 2.507244672069037 2.465384798610457 -1.484119934671586
Ni 4.735742324605753 3.7275961647304263 5.57878395681513 0.9190431389944882 0.999231475719621 -0.5292474446833144
Ni 7.6829110389558615 5.140089730848563 9.225423186382297 -0.4657427392614495 0.6744872624921416 -1.5793960189677767
P 0.10656588633470589 8.907463321296031 2.7330110038211863 0.37487686821781246 0.8289306011771079 1.6202930142924548
P 4.887047000678377 5.756395334647431 10.06824007143455 -0.662909070736239 -0.36345731352696115 -1.324184719634113
P 3.647072737681956 3.413157024984221 1.3652355394181377 -0.24192769485088012 -0.5659540560757286 1.6078532458672052
P 7.865369996683465 8.726283259525287 11.84510802222623 0.24387761948839934 0.9766404777929826 -1.95599886873776
P 0.20575461180061286 5.55698160184469 7.065056654538649 0.7084337946409154 0.18793195736071505 -0.41072190294087974
P 6.243476024922991 5.8554157348366624 5.0719960440631615 -0.19102036647805168 -0.48406339194750825 -1.4654454981905343
P 7.87341951829429 2.2449796048600485 0.3847539678919757 0.9054792842671243 -2.689265920372272 1.7986144451465993
P 4.842332660421987 1.5291552075946429 11.038255384137292 0.9724799186573897 -0.27814425398075326 0.6416558177844175
Ni 6.638118867728451 0.8237754407651517 12.710469209976837 -1.4701917546262682 0.06548419774573884 2.8169114221381037
Ni 6.527720054981863 0.3193704120975094 2.1061526276488753 0.07413750254536264 0.6367848628453614 -0.34406013994727197
Ni 6.000448178532629 3.879944645591371 10.522342172587258 3.4524490428399255 1.062414536136009 1.092400283864822
Ni 3.3896196971899526 6.6058925703449285 8.117087753027757 -0.4556966678793572 0.20869824337378898 -0.422873193591433
Ni 2.393811121839628 4.874013546294496 6.622680900872738 -0.2772363974545032 0.10834474455469083 -0.2054295999248462
Ni 7.6553489503561805 7.337957065533107 6.074562079962012 -0.33353070117085787 0.018954686725631872 0.12502040543815887
Ni 2.6539347980062504 7.781649329742844 13.173076909607335 -1.2132778707792007 1.163991365839247 0.6450964680348503
Ni 4.975751600392056 3.770269913643886 3.119660746896272 -0.7407677308869307 1.1964163191371717 0.5865889587172608
Ni 7.395892933108212 1.428705453100685 10.790614108655493 -0.3225649461879735 1.2970287280446113 -2.123393368266756
Ni 6.169055564609829 6.1677484577127455 2.766014982790241 -0.7389383909876758 0.30178374777656414 -0.16404255233762716
Ni 0.008234773451634425 3.346767278988402 6.443662737487892 2.9628703775011425 0.9051895209408475 1.3025368023470343
Ni 1.9426053438833386 2.3084824313061914 2.6899733337788256 -1.2067030457751604 -0.5270046713957247 -0.44250896554448954
Ni 9.056821442493142 3.7707777105679336 1.6748976266196014 -0.8110624626474354 -3.014143573853822 3.999935636239085
Ni 6.575970166413102 2.837080221945993 1.9192626715766212 0.07406705431874341 -1.4199287447056579 -1.234826286373938
Ni 1.9503069305647232 8.774956535059898 11.147892501497811 -0.012099868587327547 -0.6665736640720198 0.7718690802774256
Ni 9.462607606687419 0.5500973481851616 12.942172244596268 -0.7769616643089845 0.2275786252180597 -1.5958454227730516
Ni 0.6759632790923633 7.69307638108355 1.1686485428259277 0.311107082060019 -0.7483949084148853 -0.06996125968048597
Ni 5.661446713497319 7.109871613815176 13.2572254424747 -1.3317926138883582 -1.9152018893260565 -0.8404481148984041
Ni 7.850042052494628 3.5930675944448467 12.698123162169766 2.279259041220546 -0.7429565110081334 -2.501221091582776
Ni 8.205716183202826 2.3553219957261877 5.014796482027926 -0.14641121240910912 -1.259598094001979 -0.21501158718632646
Ni 1.431432510655754 7.417361458619325 6.484939104495548 -1.5489621279579517 -2.2306675054650875 -0.26050622918401584
Ni 5.249369509632899 8.065291526410252 7.217663735684988 -1.6245703015115698 -0.0360581791751379 -2.429599156370416
Ni 8.89873673711981 7.370926251009219 12.94341070487214 1.2319921593592524 -1.1747349775089961 -0.3939274570913603
Ni 2.6636393614436003 4.132188065788518 3.6832354015915203 1.5667654746879598 0.7436144563071064 0.903037250484535
P 6.641964959245773 3.5146129696795323 7.772044444960957 -0.7385640383673925 -0.5768861296072 1.2565053140092683
P 1.153714611435565 6.183631217059337 12.085124820929925 0.11148431862493703 -0.08947824666749106 1.5832210491408218
P 6.457314951827373 5.337594523362755 12.39164420939034 -1.2455971517371967 -0.5899468194459001 -0.11694431329824377
P 8.183946740995982 6.193881192007701 2.2791703240478953 1.2697225840304907 -0.6150243312398183 -1.2909850929536926
P 6.554116091385583 9.018351123673185 5.033514440867115 -0.07275322060332631 0.8433922851283926 0.1391481030887926
P 0.5808623188650374 1.1912915838150684 6.515850772064593 -0.5604069010052543 1.0070198614157884 1.149607329203433
P 3.4843896490519732 2.1179269337340547 4.598487637129778 0.4917412202077402 0.5765284891574652 -0.10072656588780073
P 9.403289403041295 2.3878021915717347 11.23637611551306 0.2962831296733091 0.044706341768439135 0.023592956828591624
