# total energy = -381162.84540698526 ev
CRYSTAL
PRIMVEC
9.29138113545877 0.00000000000000 0.00000000000000

0.00000000000000 9.29138113545877 0.00000000000000

0.00000000000000 0.00000000000000 13.59887547895057

PRIMCOORD
 96 1
Ni 5.650005326449704 1.3846480934172138 6.133079104766834 -1.9249571689406075 0.18661683809371732 -0.45583062235406013
Ni 4.009602672258107 2.85376413393898 3.6398614460917287 0.07638747492180394 0.04222059923210793 1.0091235380223522
Ni 7.101449159800326 7.640395730232573 1.8337135580183528 -1.6076375303119732 0.03948211725502233 -1.2623502028258193
Ni 4.094841804007878 6.182262102369213 7.809983879406669 -0.4377621948881235 -0.3060368666259633 -0.2412653786765329
Ni 1.9340474677756092 1.724954223727557 4.774523997363668 -0.1671582151484734 -0.05031854574889399 -1.303669630399897
Ni 6.72141308318935 6.282674059729119 4.411516235201983 0.12382638513005771 0.0633201002148845 -2.6752827187193025
Ni 5.581713674132195 6.754899221278096 9.41470577125409 -0.7710044182842851 -0.5905595133292345 -1.1282100944745797
Ni 2.6603733242333205 8.935902311767586 0.8077676006833776 0.36562243949908 0.7948277459561279 -1.9753297078558882
Ni 4.069113969277649 1.9651178467347579 0.603534678176453 0.16365020199521493 0.27473111453414617 1.0798903243232691
Ni 7.918421731905603 2.863259925594557 2.3947345920663725 0.9944487096189971 -0.1514965973518165 -0.8055358764022514
Ni 2.0570281902347283 2.50050581814148 12.025540237982476 0.2637450478362877 -2.0493371125812896 -0.12090021262219824
Ni 8.653918181674522 6.681906130039139 3.0432785793797597 2.5825695100542814 -0.04323489942923522 1.7454828554289423
Ni 6.497602291213279 3.9886970644058093 4.0025839628484965 -0.4733411204339977 -0.6369113611208966 0.5262788489732937
Ni 2.2355899554371574 6.762378783198586 10.868806010509143 -0.9987486225459317 -0.30469860743051397 -0.9074621190251081
Ni 6.292810956692167 2.261466452267669 13.100544688410844 -0.3442123492544201 -0.43693558522177006 0.15196170991369312
Ni 2.22557384643059 4.829613526037917 6.7237052669480875 1.2842557446496592 -1.618417908756929 -1.6725355165369389
Ni 0.026636531818208145 6.058965472946993 9.682725884439947 0.6976097074422178 -0.680114378870932 -0.1651956921054639
Ni 5.973345394565247 9.052713557064962 13.24714038549992 1.1941421783910144 0.43451797691921296 -0.3818448148952133
Ni 2.395791951254635 3.700106762231418 2.1406534090583014 0.4856289366624152 0.6756524864448363 1.4929866410335966
Ni 6.592662412962996 5.8723016232791405 6.612112990508774 0.5002862815642739 -0.682933850597598 1.1144148404627001
Ni 4.8176276442026005 4.943767436292734 2.7780328726404346 -0.5151562566975709 0.7816007057428926 -0.8623166328367213
Ni 0.8899080567803739 6.625303035356384 6.384046745912102 2.1655985408798966 -0.8473430422460244 2.6464531960821196
Ni 2.533174314678671 1.2374447399932318 9.530146537814478 0.10337120259949939 0.4214632006177838 -0.6606580699185333
Ni 6.412446781894919 8.182724363446257 10.907495322107797 -0.5635444181929714 0.39430386659417255 -0.00199954692853204
P 8.364361575848292 1.7042623176444156 0.3607769015193134 -0.6196898550362876 0.4490099998878009 -0.49919124872788223
Ni 7.874176174308872 2.2065172234505614 4.600472268628575 -0.3873032669066233 -0.8745977641969196 0.05697873137788896
P 7.197540624870756 8.460118551193084 3.9346713988867106 -0.06011470590370937 0.3801080347097647 -0.09447261455828891
Ni 0.299936936978492 1.7437135225070193 8.386711993487715 1.4563525347503306 1.1481569699101515 0.5455158428260347
P 3.352358235525657 6.042631224678398 13.277017751104298 0.29694621717860475 -0.023602469910288384 -0.5076977435369967
P 4.7403326434367035 0.4531917670221192 9.863414446814549 -1.2756348357498675 -0.13569048355749536 1.5336496659705974
P 1.968908730291975 2.5002456594659845 0.49676184120068884 1.166915224354261 -0.8905290907151953 -0.4384365952473288
Ni 4.496415302397356 7.718062386249177 12.374269934550105 -1.8699306761930827 -0.7065208938889187 -1.104725381089078
Ni 5.512985326895107 7.9471971396916326 5.7692546301917185 0.7779425401650151 0.42735205529839304 1.1429718261647865
Ni 8.424829885138404 2.804584852889107 11.89072043751207 0.7345268921835415 0.7747294325443561 1.1903644565161369
Ni 3.626909260604571 9.142170975910261 5.025709056830601 0.016796502732048493 2.0438493499938413 0.03190584756966118
Ni 0.9871535114042508 8.534263773709236 8.954125497847905 -0.6859492403851541 -0.3899764428634122 -0.4127268491860505
Ni 7.457197565777567 0.18899877378042323 6.048875032890284 0.809245978263987 -1.6275070155423905 -3.025375180903583
Ni 8.1549059679308 0.46509123901164734 2.109484541457715 -2.0802240319681333 -0.5448283298407068 -1.1269939626792913
Ni 0.8264237651307685 0.5868389951765443 13.329359818337691 -0.5959958538534574 1.088605335598764 0.536306922633257
Ni 7.117625454587372 5.847809542257515 10.723339216244092 0.3739659263677688 -1.5565365978710999 0.0041088799620509885
Ni 1.2792187901727574 8.137605416010365 4.890984957587251 1.1269605383381947 0.18295327319920104 -2.0706888387841884
Ni 8.582476751107269 4.821901679585737 5.1424691995310035 0.003911162128948103 0.43893821747409567 -0.6354008380136412
Ni 5.594071211218221 1.152753799738255 3.7015190521841066 1.127433107099239 0.037638893398696464 1.286748943385158
Ni 4.708472497069801 2.272662566695233 8.066050630591645 -0.4930887353745702 -0.013676983266460316 -0.5164567206765492
Ni 8.450511262962294 7.2264925689008725 5.5303499893462895 -2.8268993865887504 1.94973154767181 -0.8557541491278553
Ni 2.7206650972793485 4.024245889135984 8.961835486023832 1.1334343189879963 -0.864683333296685 -0.06833529404128877
Ni 9.232892022607968 4.931465647494314 7.6212452643017405 0.5698245947747282 -1.2878845996514983 -0.7995135814675715
Ni 7.5399930642539355 0.6847878073623852 11.70041808293979 1.0094292421882294 -0.008582085242056187 0.07275990547154566
Ni 0.6261656955301608 1.0683230181587737 10.904965278988605 -2.888550069521012 0.4598358868587113 -1.6769534430989765
Ni 6.841401980880273 4.576181810580458 12.876462588101758 2.1490763748551567 -2.1122430080768915 -0.3629978573920394
Ni 2.0771347392980055 4.609900233200898 11.64830737109996 -0.2849828741691415 1.5500810720537432 0.47683396407860457
Ni 4.795746441317195 5.717888157991432 5.355278066948004 -2.2574136632106803 -2.8438136458455867 -0.711886014855574
Ni 8.764169711796908 7.646583790156853 11.160284073981533 0.7883930460743777 0.6449887388123924 0.3978134224093278
Ni 2.1042098243120484 9.039231762845546 11.708441190664438 2.0208117514480874 -1.2411422012896367 -0.6615805817328025
Ni 7.64422377931486 0.7768338050288638 8.03981827385858 -1.705662895218527 1.6253475459972266 0.9114239318863336
Ni 0.48592716150443777 -0.015164463366993692 6.623577625854975 0.4709145132703761 0.8636142686022223 0.7264258603429619
P 1.0960577912428227 3.426076054503494 10.136465842956857 -1.0984958552395987 -1.6660105709342272 0.4542126271346629
Ni 0.7027796380491363 4.205669399768861 0.4468178794724852 -1.0491977803354187 0.486632181115949 -0.06744852056096126
P 8.316278677788006 9.005792081663136 9.598725293813157 -0.38694819756004967 -0.1352449113796445 1.7500797307710054
Ni 6.610539030522028 6.635523554750841 12.967928803577133 -0.1567863849958461 2.78755533757349 0.5482198720207591
P 5.823066593941661 3.7202969337261043 11.19236442608448 0.9676817259377981 0.39834846897719134 1.8595321065675783
P 7.333064712041254 5.007283318638649 8.379600370265425 -1.6177260248962269 0.732264578511926 1.246147624924028
P 2.919612152983085 9.20640229461379 7.193234069653183 -0.40065294874065194 -0.29300265914982443 0.1861841214316729
Ni 7.6600748757575365 7.406002054992606 7.986633478344207 0.7989122004381467 0.7052299429916371 0.5313320951264849
Ni 8.485242446140912 8.193130710466068 13.347255947797386 -1.02928921433695 0.0019704934628095093 1.2357997060308006
Ni 4.096235511198031 2.6919640205434603 10.495136388342788 -1.4549633677122877 0.6591552601207615 0.7893638946280792
Ni 7.025780150756274 3.145206890162551 6.5297179505650425 0.21944339770543494 1.1800144807403805 1.1898594918552605
Ni 7.533396183553877 5.118770602469637 1.9411711697935454 -0.891544162243271 -0.043116371573499936 -1.210305161304122
Ni 5.284454513235052 4.219875921727156 9.255218282656097 1.4886725870392747 1.9521591832766958 -2.030173138058329
Ni 3.121263000635719 8.2194903591225 9.531329330649857 2.781285445404378 0.2507069837054069 -1.583037472375106
Ni 9.017294811672535 5.337406095079606 12.249677157441043 0.059327691226039765 0.8939052062762799 -0.2785605155825654
Ni 5.479768638863122 8.736174780037365 8.206881025604119 -0.1642058173883688 0.2867916452431061 -1.5094239606540134
Ni 9.206755367101962 0.3625617758608363 4.0328822280243 0.09103145008722387 -0.08768773042597156 1.0280720541003971
Ni 3.4369283878241537 0.5078622544011958 2.7139818067335004 0.5951273352055751 4.0349386346768314 0.5915722708644651
Ni 0.8104806840135425 1.726143520529821 2.066253602695416 0.34899357269314735 0.05872913841009241 1.1215643070232877
Ni 2.580086498699228 6.158095219691957 1.85121480377417 -1.4972076210934795 -2.8536257468400015 -1.9776514140105295
Ni 6.1828660421516135 1.9622375185417746 9.845640034449461 2.6469545611985708 -0.24072904655708866 0.2771384384240582
Ni 2.6862312383012963 7.927871066654841 2.9956556046922245 -0.6364177093139298 -1.6987003478577647 2.8553869525054822
Ni 4.827857454978325 4.412941533088446 0.031051796196613513 -1.9303760259633336 -0.3374349213212705 0.933478854803844
Ni 5.020254086888341 7.800188905274272 3.4772464785590325 0.49175021906880473 0.05236128721053563 -0.24585505492974433
Ni 3.969315243081412 1.050418526455939 12.044877460676789 1.1475422191442881 -1.5733757809156257 0.19055705368838796
Ni 1.9064520654105757 5.522165211587582 3.98815630601603 -0.5506300241241485 -0.32141026375824 0.9118836451315714
Ni 3.136101336520217 7.153322941417829 5.79452161241107 -0.5919371104030514 -0.44660987508674055 0.5550083556975022
Ni 1.4312072049495987 7.195682348617219 12.899131700118664 0.6314922469878543 0.02001115301460425 0.5702462556931792
Ni 4.259893900847088 7.441968991879827 1.2478631658086903 2.7654749607346822 -0.011886724135256948 -0.8521291507807582
Ni 8.283164194949965 3.54187453924269 9.680155888381304 -0.36717358603628375 0.33430434611208876 -0.4649912058074056
Ni 5.489152933943488 0.2107768423337573 1.7212776241599328 0.25952406777640463 -0.04434844420838814 -0.32974500887618047
Ni 4.203653170033773 5.495433907680444 11.080377265941289 1.1353479910709414 -0.27499850926291997 0.670227201664207
P 4.126302420980269 3.6274109951930265 6.230393315612092 0.04928059140268287 -0.4563448429863173 -0.0915163601434424
Ni 2.533824711367409 2.097640817755793 7.012274198945564 -0.22045615524066547 0.16430660463229121 0.05425079092376464
P 0.547853288515452 3.423307222885723 3.935378473001182 0.8336483183677514 -0.3016168831813967 -0.7150721258930395
Ni 0.7563128603610478 8.218830671052494 1.860530342633154 -0.9973774532300178 0.48338924869861916 -0.10653108838471975
P 5.947050785577691 3.092013732405037 1.6937807104363367 -1.8420694310064405 0.9875560962642218 -0.04224605315340466
P 1.960119083612742 5.93415434837814 8.5299897383261 -0.7366758202057442 2.074282212562402 0.28989599520004267
P 0.20963957726659227 6.45194444366386 0.7796713928680157 -1.9220091420558774 -1.855304441639476 1.469444077826966
Ni 0.2016917297302119 2.8649416656040088 6.034677802313256 1.0315898374456685 -0.5566880573927703 1.7044025404488647
