# total energy = -340863.4362644987 ev
CRYSTAL
PRIMVEC
9.28433224392976 0.00000000000000 0.00000000000000

0.00000000000000 9.28433224392976 0.00000000000000

0.00000000000000 0.00000000000000 13.58855871367695

PRIMCOORD
 96 1
Ni 6.069084333536203 3.141260922069661 7.855695283735821 -0.02241487736009043 -0.18355851088336778 0.8136659617085535
Ni 8.481190949949829 6.544275018980931 12.601553395821195 0.4758338049488644 -0.33196027135994444 -0.29425118684494483
Ni 1.7535410876994117 0.34673823713473667 1.5974575386322778 -0.539278089446439 0.41022850824422896 1.9977576978421014
Ni 3.0923417762447953 1.236932996765079 3.172792370741213 1.7360679898729454 0.13024514417220795 -0.008185106913953646
Ni 0.16881329680683282 8.214674912741897 10.69411429083054 0.03370099179687099 -1.8448948162703775 1.971897542245888
Ni 0.8074444360732261 7.39456200552082 8.23582183596173 -0.3327801961580785 -0.4607319163104195 -0.5237892497822205
Ni 9.188740614813597 5.042515733449774 4.56807893577141 -1.2741268837457733 0.47491283579649174 0.7827067943228778
Ni 4.577584234973441 5.34771958251047 4.363558097715302 0.22778354214001414 -0.6405936950684904 2.1873171635039106
Ni 8.022071443366904 2.694173909885868 6.340516424590076 0.34176414482424367 -0.6168981512237633 0.5004117513985447
Ni 4.906648817526243 9.335488767956093 4.615503304128483 -2.0755106856528642 -1.9836994199768223 -1.6565715370085146
Ni 6.96822547557627 4.711761402455118 0.2600411440027201 1.410857121421693 0.35409695535798374 0.46289215718653187
Ni 6.460539627788207 7.649556186595015 12.204509862079348 -0.11606936689245817 0.2433058061453294 -1.4334164947794474
Ni 3.3703332479259736 0.9439194757491821 9.548625466199235 -0.14188864194840725 -0.5968281199467657 -0.12675667140297525
Ni 5.016138945959084 3.622031491105345 2.4606163231929656 -0.09236842373109252 0.019943790111778555 -0.36260113617425294
Ni 6.857871904258306 2.395859035241959 10.643972398468357 -1.8500056551343815 0.9014555078197121 -0.9962700790984519
Ni 1.1733631748894184 3.3458690328474914 10.691681795820841 -0.9726030744988152 -0.6633505291490318 -0.779532253249638
Ni 7.062062220091722 2.388218029925226 1.995547416601581 -3.7200695144712195 -0.054067214158048826 -0.40399049775431717
Ni 0.4469820992310845 1.072888132923828 -0.11662420921701792 -0.9751896042790689 0.5022691163222575 0.1991039148171345
Ni 8.712138710889956 3.1766527960276014 0.8982257068951949 0.3045512832193723 -0.7281734391616879 -1.152486193413125
Ni 4.166009793064863 5.980855325608 2.325777182832694 0.9692048474505436 1.75818641903854 -0.7210980203721452
Ni 2.8450257378157255 1.257024291425358 5.612183782324722 -0.3546942226223504 1.8988576436400784 -0.545452593688267
Ni 7.7218068589823945 9.383488764903248 9.57191614170052 -0.9781394309360122 -1.2075916190277007 0.4207366068644045
Ni 5.823495180877378 1.033262603529156 8.510717911321402 -1.2771515295047102 -1.1256461904021453 -0.17345716078330775
Ni 3.110910440440987 7.964889241974733 10.988455471336467 1.0422781703974502 4.542040396501042 -2.006981530433215
P 3.6499587620564165 7.544819636196399 12.860959491508405 2.550877321157323 -0.694082668125566 3.5041647260466617
P 6.450651814103735 4.6778550216328725 10.632421760905117 -0.8712476167777641 0.143311747548179 -0.1132288121198695
P 8.25722500674747 8.832305821235607 12.558192779623461 -0.03500042733458488 0.25264610970964874 0.6911590667208677
P 1.0168850417081154 6.471810806955295 6.046065688965394 -1.2722101263390346 0.7103022153082218 0.8527138196396347
P 0.18010954367058574 5.925418578650272 10.730164423934237 -1.0727148896207523 -0.5606442138270409 -1.2578718553394916
P 5.797304080028651 0.746398095661828 6.268633411753781 1.8952115622470587 1.104003672431705 0.9382145697166164
P 0.450680048705756 1.4259898512785996 5.782651547111437 2.504339839717416 0.990647590705352 -1.5355556247440587
P 5.668047608558965 0.3293756076780881 10.60671251689228 -0.5883167400416449 -0.05195685268326536 0.7502517591179659
Ni 1.4230652866676992 2.756824582883817 3.9595698835640785 -0.2942956669296351 0.35415429095848044 0.2934574872990559
Ni 6.238941189270862 7.098141134624922 6.2369989069959395 0.5181605907415334 1.5116893596494223 1.231895228770072
Ni 0.8947542951237171 3.828747145269443 6.230843394814903 -0.3970258935110259 -0.2356629448880909 -1.1538918155114
Ni 7.0423887203758575 1.5713267859421878 13.227007282540761 0.37056589954728436 0.6576406232484481 -0.7311374068860182
Ni 0.6802212333330222 9.261195542507133 3.754015699345452 0.29326028368658524 1.006887192492666 0.6861816681109343
Ni 6.75055430953642 5.8771400517401755 4.479033835051785 2.162843089621946 -1.22611281776034 -2.2986857824865896
Ni 8.735999444382061 1.4371867557889026 11.416862407338892 1.6037248255211285 -0.8907864581416401 -0.488925605135816
Ni 4.6531865512482335 8.529627310505592 1.5049465967404336 -1.588716267927438 0.8599180506975578 0.2668365422774179
Ni 7.524329115255901 6.956536501464767 9.627561786130455 1.5065903478599603 -1.4645980625885744 2.575061117492378
Ni -0.08081268344824362 8.099187105773686 1.0317696829277823 0.700061254306504 0.5188054234143838 -0.6753185001441854
Ni 2.290760395891517 5.436923445308972 4.770739193675061 0.25564453021634037 -0.4374978854831433 -0.7042716928434257
Ni 4.2944399589778195 3.8930504293808537 9.539983609882329 0.44051764614607364 -1.470999595239544 1.6340391602339535
Ni 2.6432307796636176 2.609835037106768 12.994887838889854 0.41325623932695926 -0.27735338264834164 -0.17066417141920284
Ni 2.5148098980827593 9.461569997848233 13.217373859555778 1.5542061499657105 -0.8681332395184983 -2.6217328105173046
Ni 3.082203285593675 4.1689065046794695 6.857818983565347 0.4069891753713249 0.6244777633432342 0.6255020908426905
Ni 3.457782371957936 4.936683631863582 13.944714935153055 -0.41189226909989707 -0.49406472613459423 -2.375163760239671
Ni 8.638476820023667 1.783213813084925 3.252747181903593 0.5829037965561896 -0.2043942166817964 0.7235698789514055
Ni 6.466110227047064 4.27459934128419 6.003112654946765 -0.3863843546367797 1.5421451050361183 -0.6854270493330971
Ni 5.8007857045654365 2.049748418957053 4.221775205378865 2.6434730304078733 0.33290412333045244 -2.157160180304556
Ni 0.8375098887064891 7.024432822098141 3.4735341697955646 0.39359269945976083 -0.9011256352841192 -0.9472455695706331
Ni 4.983346684988611 0.11150761379775743 12.745211723241448 -0.3368458815870199 0.6256517290466774 0.11791181941783564
Ni 6.872281187674551 8.900415681507237 0.8151894259094574 0.31115773279229636 -0.6630445678728387 0.9303847892595527
Ni 5.370883991095218 6.352897081442887 0.2435503133300827 -0.6201241143602287 1.07289769505552 -0.05233968994398083
Ni 8.802763076499467 0.24660578702356595 7.273534237589675 0.3649385260581779 -0.4759039960651675 1.30307236313553
P 1.4833391706485357 2.869666355204071 1.3100647522685682 0.3743557056070198 -1.0050149151706178 0.23144582148294982
P 6.286077743332893 5.747605050307545 2.288150570138742 0.36774951314441184 -0.31439269478982623 -0.6791761833273787
P 7.741498927362455 7.695049413875683 7.751199197538545 0.04786674177429176 0.05994012799905807 -1.039936666748467
P 3.8022867987898707 2.3943549734420673 7.975573651353222 -0.4528622837543556 0.038491728317295 -0.41509689208012385
P 2.873287244722328 4.308320035464472 11.418031304750041 1.6878868021820284 0.4937129992221304 0.7981683802935867
P 7.611146904705193 3.56443149476876 4.088797573604261 -0.38649336941081824 -0.1219798188396222 0.06288378400841428
P 3.372598624957909 7.766102407422409 3.303677314060906 -0.2440182588313217 1.1758927452625232 1.118979577015247
P 1.6304865500712529 0.9954475188936127 11.200301647417971 0.8577074161994842 0.3250324338918596 0.7933889566270723
Ni 1.0441716937444183 4.676285969508295 8.311958001332162 0.17335843042191432 1.1633730155289577 1.1210174333808824
Ni 2.1624416419637376 6.256525714264655 10.087657076016889 -0.3043702775568178 -2.2666943171816576 -3.0087049193367537
Ni 2.282413781335329 -0.022100424126306736 7.3476594166276605 -2.4426937847708445 0.5238429858382914 2.6079334427403666
Ni 4.7654805479746996 6.120138875743631 11.081293221718164 -0.03998116837862792 -0.9300819133071531 0.23840374085802168
Ni 7.929330250039027 0.3713732839238235 5.1821595156708105 -2.3869388984977276 1.1055476198800576 -1.5659254952851676
Ni 4.691447283824485 2.808129802057893 5.845634599198497 -0.923049946161036 -0.16808329806590408 2.5520664563694173
Ni 3.9973134788424667 5.807656110318027 8.596856087661113 -0.5370862240014428 1.3875832384954168 -1.4420741704544455
Ni 0.9956332055355747 4.306286766734989 13.082982224002635 -0.5510719967575736 0.9439751263494774 -0.5177612984205857
Ni 5.3128847684784155 3.2019340323307155 -0.13612223505622845 -1.425957210287925 0.669109543119996 -0.45396040191454073
Ni 2.307425772007598 8.335705465972671 5.321986199234178 0.3184545235640257 -2.29581668846891 -1.6564190705910504
Ni 9.478838855550691 4.688058502608681 2.397891375538232 0.7428801492442432 0.7152402760397876 -1.029961557813626
Ni 1.1341183031107684 2.333765422169895 7.91293040582095 0.17344764770161097 -0.6508009746187953 0.3438444243920401
Ni 4.322840730865894 8.626137942665297 6.927664085506111 1.267939781098455 -1.4937538582169243 -0.16394202220402088
Ni 5.387298690244652 7.748963530369324 9.068501086677578 -0.09464230736693377 1.1771297029934178 0.18528474954585508
Ni 6.332573678480156 5.311844923283429 8.526439999296318 -2.213203544352369 1.3898663781026386 -1.0059410265293127
Ni 2.4137406588628907 7.209386001824303 1.4679856706579153 -1.0830517527703865 0.18568455608743506 -1.9573085886881194
Ni 8.404260974185009 7.487860258774583 5.135238358113455 0.849599185270053 -1.0734062592608224 0.1227614342006531
Ni 0.8292124811104211 0.4210333194501172 9.25467794137427 0.885715471376636 1.2422279781546477 0.12919510564113876
Ni 6.186429006924032 7.815402210863296 3.300918938994562 -0.11268939467663175 -0.3949178460290876 -0.36647064643198823
Ni 1.8969840186149887 6.561943102963607 12.221440770093436 -1.8140289799294567 -1.4695044987512562 3.5007477299453127
Ni 8.064918635999614 4.111733587619397 9.153769321099698 1.8713517249103255 -1.3317154807935194 0.5426194951148462
Ni 4.44054749320555 2.144105086069999 11.446593624016622 0.3116886655951019 0.10251322547457829 -0.47664755909941137
Ni 2.653536388292504 4.373533184121496 2.398163406468706 -1.51026496849807 -0.8047982269052785 0.9078084466209333
Ni 8.271912820126657 5.627930009563093 7.139958694827954 1.1353541617185288 0.0633866917867618 -0.769380766637933
P 4.512631047615164 5.991281630554162 6.5015141706367325 -0.8944867898113628 -0.8289565693190368 0.06313626633885255
P 8.053480338854762 8.551278372958352 2.706528570608804 0.48586779214609876 0.9910725940579126 1.7801012168337602
P 4.990820572327577 1.6155202067291228 1.1362824809228345 0.45495207640384877 -1.5184220503875656 0.8151168352224673
P 0.6225785290687861 6.179744287813405 0.5657556313288116 0.6706953995498771 -1.233779076056346 1.6300241255372896
P 3.1548253312649788 7.810806466474738 8.764280448386073 -0.7744928910535177 0.6310960399907003 -0.4694232734368302
P 8.022405679322436 1.8931217364621808 8.602563166601813 0.5095317114219418 2.0131359800703845 -0.34546010561859214
P 3.530172309326787 3.4493986200733557 4.177489869704159 -0.5283264755309416 -1.116370164416858 -0.05468607868897033
P 8.131218051512116 3.3371231920110853 12.316560609304844 0.11601511661575502 0.43136400467126357 0.565903148233135
