# total energy = -340896.48078877496 ev
CRYSTAL
PRIMVEC
8.99682376408421 0.00000000000000 0.00000000000000
0.00000000000000 8.99682376408421 0.00000000000000
0.00000000000000 0.00000000000000 13.16776099162733
PRIMCOORD
 96 1
Ni 6.228168213955747 2.003115822068499 11.15992741080581 1.0769194146204035 -0.4947129012415545 1.4795857942466581
Ni 4.565195308184991 0.5427522872956229 6.084361183440593 -0.2776009798827735 -1.1947119348515554 -0.5213029930252571
Ni 2.818381001695357 1.7729590763672032 4.848250678610699 -0.3517989033524264 -1.7983735327803865 -0.1813712734240618
Ni 3.530461609496394 4.119519649057282 4.933578354616493 -0.7266001811372971 1.9026147966896654 0.09466621862633373
Ni 5.038320276637018 4.48226258666695 2.651170533505559 0.3660297022398277 0.5336193484987649 -0.27974862235339565
Ni 7.0381342643816796 5.849545882390844 2.5884266845289017 1.2839991485541629 0.7129170272232496 -0.43874332785447023
Ni 5.173524544262655 4.350351156541377 11.382080582080716 -0.19571931461561776 0.7439466428355446 0.26599502021272897
Ni 5.604220491812199 7.95901315825244 12.357008794436158 -0.4971909304684018 -0.5414478434042482 -0.053510056102998166
Ni 1.760867345219422 6.583272848184115 0.24055617429781362 0.5354934255930262 -1.1862782022619054 -0.22965324835890127
Ni 2.692326503844491 1.7581503044406794 0.4697844477859759 0.7115098624630778 -0.6654750316912024 -0.8452074839602606
Ni 0.7764105968084632 -0.21891161567033426 4.195498725482972 0.028024767347700125 0.21454158952844343 1.4613672143561027
Ni 8.600225785211906 2.391031872588503 1.6003703069272979 0.8405350181852557 -0.2189885695562035 -0.8052867365059229
Ni 6.674320704743302 0.7312717325862547 4.7553125893772945 0.2077533629620164 -1.197610596555589 0.28658287166640967
Ni 0.7555172729658349 7.184107730060811 2.323254300712156 -0.4191728619217103 0.4522385341274276 -0.09555427765824188
Ni 7.628442862446691 3.8199614047890336 3.977559666462247 0.06339980441288436 0.29858426700266 -0.5086747627382853
Ni 7.477341207218278 3.8309195361417103 12.544965038558747 0.5695955094830578 -0.47681005281920463 0.09798139904249577
Ni 7.82027313888493 8.486478942279318 7.011661110436481 -0.04499790486692896 0.9147969621236244 -0.34301935738758343
Ni 6.782615472470864 0.7210459426885104 0.4680318665154493 0.2999726627097543 0.11062351328653852 -0.6530334634937399
Ni 1.8284065012658461 6.5386755927529014 9.208492043523176 0.12275654910464667 0.11347383825114007 -0.39244084524350475
Ni 0.06199441355655995 4.803827061878258 1.3052555939193835 -0.2631202697680952 0.5699009565386185 0.4280153999140048
Ni 6.456633556788156 1.980299876986078 6.875638131847713 -0.07730021654406041 -0.23308952773395983 0.798241142513051
Ni 3.397911404883104 4.1650525741606454 0.31715873061081146 0.28432055799479417 1.1221345777044611 -0.13680814210170633
Ni 5.850598510772013 5.624580304005226 4.843128786838056 -0.4666529097805447 -0.7425055395136438 0.4129700755451081
Ni 5.347019293856268 2.862897285712635 9.181827257231662 -0.28515102431588957 0.44657439386311476 -0.7950072089567857
P 0.10549675553488354 5.476663524391631 12.335479395152943 0.9407933861873862 0.4411835618648467 0.1342079854746979
P 3.9065918208768204 6.180709968565459 12.68621607144065 -0.5215112523813211 -0.8615918388555549 -0.6495020533017137
P 2.4153772777119378 8.341855000165788 1.3256244029361817 -0.11163987036619481 1.3557900052442198 1.0390488648268752
P 6.165928187110247 7.6578264888817005 5.829407392062576 -0.40037501248891694 0.7099006089944291 -0.3969009378973874
P 4.750107027143585 1.0129343946922622 12.512322762554 -0.6860441140918057 0.4291839663008092 -0.21278398340738838
P 3.9332764001806293 6.196220492746095 8.457231167883243 -0.3758104357756753 -0.3751648317718765 -1.0009515437345213
P 4.628110096813291 1.186654064880141 3.6150245554816816 0.4164942866482827 -1.3833404040586625 0.17839265041171212
P 0.17673540551580755 5.600864676545739 3.569661670347583 -0.2345442579026154 -0.9666936509929158 0.33478179996913954
Ni 1.7223699363047225 1.132358233424144 2.553966150440102 -0.7873993147025407 0.32238908273174155 -0.4953327942137405
Ni 1.9159455965544712 6.439503604328799 4.785401566795925 0.455302517764732 0.21694737075645862 -0.46956854076544297
Ni 5.915789495814292 5.454621306153488 9.220197810931193 0.22326894209911227 0.2310473004929505 0.3914499420851452
Ni 8.68707212507019 2.0763589643855282 10.02759256912347 -0.15943924923766087 1.2889855460251607 0.21122152401627495
Ni 2.3569069200263497 5.321810193650848 6.972105675046351 -0.6677044352423533 -0.959429770341651 0.565583045889555
Ni 0.4980182801430944 8.858605567081794 9.061539723417795 0.7664695065284091 0.6893356403588837 0.5449710260661582
Ni 1.4102071419337643 1.192906857400757 11.526228592216778 0.1312805274152578 0.6691519663221572 -1.7054073275642951
Ni 4.032502369547355 6.799349564684312 1.7028810166526958 0.7507472106971458 0.08791887260017116 -1.109780169904166
Ni 5.682726776035071 7.660354596361259 8.127036939311107 -0.730247290971581 0.5639287981155836 -0.3855202068642715
Ni 5.393047044267019 2.9039767830495173 4.596219955275772 0.31283537760503544 0.03279442082220158 0.9271143460383968
Ni 0.9442796324982748 7.4626314003532315 6.877244964573155 0.12703486476502637 -0.010731013264258939 -0.006839648629652737
Ni 4.8718160591132165 4.557242115971718 7.145038123154297 -0.00993422839457644 0.15100834486148831 -0.12895702148840374
Ni 8.116007733050644 7.0889483250384275 9.078789333633303 -0.6932678855337544 -0.6937679650986245 0.31596055349757846
Ni 4.649855419867002 0.22182928561916274 10.355706732039828 -0.325964973008458 -0.211735487538216 0.13782835583610456
Ni 7.958761247186862 7.238403561516808 4.543719889844401 0.10209644965213384 -0.05396025626653933 0.3092936830003641
Ni 7.082272681800591 5.970814069995714 6.972302705486929 0.36868462336417146 0.4876117714203989 -0.06536207034557776
Ni 2.3740728597807887 5.225292268239094 2.495080139496309 -0.7287653071094158 -0.42398802392216656 0.43145270773032796
Ni 2.2118781208431395 5.28024486783035 11.25183896244698 0.20183211238157497 -0.30746639998363823 0.9958846707345751
Ni 1.0725023648778724 3.2718569070322383 3.8222852843689976 -0.25658915351779676 0.5256224463362174 -0.3418785589149209
Ni 3.514105383881315 2.868124440323395 2.741145968671281 -0.6559619499944443 -0.699243386390899 -0.7377726528143488
Ni 1.102335832501416 3.3441553828533475 8.037706576409743 -0.3732089935970863 -0.044759563603877756 0.5081726262908861
Ni 3.518432856115008 2.575169864702819 7.170109571956024 0.4205152348822177 0.5170323906743612 -0.34389661778621416
Ni 3.9144910321474695 6.973150206286126 6.35191682587419 1.3431525189858675 -0.21208387201657022 -1.8502337119847876
Ni 0.6395482145618908 7.315227439694564 11.203012300161175 0.19700872285100265 0.1605643639810396 0.2849875021548318
P 0.1662532061405992 5.602772003185121 7.905463163487032 0.687962671270757 -0.14626208842575453 -0.15246718879520194
P 8.468566266151912 1.4896940799476392 7.924042504255844 -0.05733971426173351 0.18133270687664255 -0.8496107552342788
P 1.7501071439897 3.213548492174522 10.217392262436668 -0.3555385729005167 -0.2729066597308977 0.950400313149531
P 3.914419057557304 6.091191572047287 3.85750874911355 -0.19396736492151753 -0.3732696716316926 0.10882759772838031
P 7.062038825140352 3.859988273744747 10.29679373062472 -0.7088796239290824 0.18021684810464447 -0.21341673189538082
P 6.298721305965345 7.594983674843566 10.240014775808019 -0.13474174649098083 0.0855017785182463 0.0784268739493359
P 2.4748642764836117 8.54325789709602 5.646190674702377 -0.3872788414265911 0.4718755916320648 0.6734112558191435
P 6.882228305259729 3.9215535388074456 1.5562975663219136 0.16908911362259912 -0.0370555100914007 0.31012774886588523
Ni 5.322862822032016 2.7784980819199747 0.4780111434418771 -0.278377710147798 0.31325446742032503 0.043290435257518994
Ni 1.5547771031046702 1.0014364539133453 7.19766954221272 -0.21210212684901536 0.07350501116768632 -1.3645410119639725
Ni 6.908966865506162 0.49684059591151364 9.242741152253364 -0.6987001122929193 0.8627236384671529 -1.4501939713481022
Ni 2.9332524475992794 1.5701076908098932 9.27303975566585 -0.7532977450331414 -0.12637280570099527 0.188895606825565
Ni 6.518864586809885 1.9562783575183875 2.649380165575195 -0.9714373363254882 0.035244425024590915 -0.48546798560451876
Ni 4.18992879188655 6.7466461710357235 10.613412651809293 -0.07955070314113395 0.15276775075475627 -0.40384754441854964
Ni 8.086642100263173 7.337593543588451 0.16432428712416744 -0.35030380686413864 -0.6338175526869213 0.6620387523161437
Ni 7.636728937139479 3.9284630994633205 8.097264650089205 0.18553414655249983 -0.9915333357444152 0.12268275844391774
Ni 2.9129016322300227 8.517715914411086 12.359300285450548 1.5988605554502917 -0.3801679414134227 -0.22149539513845726
Ni 0.056624209447846664 4.790133896099299 10.018348332699107 0.2645896552247701 -0.3300404286294123 0.308441619412714
Ni 8.666757296996014 2.49523308550041 5.84393096467557 0.14760728959973934 -0.34625791892953917 0.3191374085636633
Ni 3.5730615700505193 2.6536761489256904 11.434751587163731 -0.1313327208094319 -0.2234160091999378 0.08138852768082111
Ni 1.0687776798368147 3.4242271144123158 12.479310717092279 -0.6760862315481453 -0.029734550949955245 -0.02084393332854475
Ni 3.251820980494955 8.32404128909986 8.134581675725192 -0.359168199233304 0.8915498186702259 0.5880094932138712
Ni 5.596402251955486 7.506382954350003 3.53678187819529 -0.017327435534854028 2.155585122507952 -0.3577394372065774
Ni 3.153845569632352 8.297149782849326 3.450598604248906 0.27878548710917794 0.4480185825088091 0.8188266799738866
Ni 3.3737549330588537 4.292348633691864 9.310212832121508 0.453171073244026 -0.1725647308760254 -0.4519189460044798
Ni 7.289028688874371 6.05099376343993 11.352782425471528 -0.5685205312513241 -0.5969003679455978 -0.37619892946334565
Ni 0.671627289398594 9.075366042188561 0.21815588247359796 -0.6556752719919612 -0.1105047283204871 1.1427296282469934
Ni 4.541137801422218 0.3998296445571266 1.5156355216079909 -0.2939585953051905 -0.6476696280786652 0.3011214316022169
Ni 5.929806547248997 5.624391370706042 0.27911926002603904 -0.3335173314344192 0.20959041617075513 0.4452266215859687
Ni 7.850817355586356 8.864930334192577 11.264861864855026 0.487949871486108 -0.022508722625477363 0.8850742382482113
Ni 0.10478330740986935 5.049395366698713 5.737377982030009 -0.10854734748380017 -0.5030101082533402 0.12046209664351512
Ni 8.078365022394157 8.881700413701106 2.3569501047804486 -0.4654635174581338 -0.1814026408826295 0.1199609886373805
P 8.448224447606426 1.5637289427564875 3.7429890790190607 0.6071829808185285 0.2652964514838076 0.012326382775836834
P 1.7283438272884477 3.362769811234865 1.4901295262181398 -0.19287156075417752 -0.6583505048312791 0.7711165183821171
P 4.859562385137563 1.0157683941800235 8.193679112027597 0.2022902829649161 -0.45956977768151813 0.1376154684943501
P 8.348404687870834 1.682235105463761 12.37932811484644 0.3562996194362573 0.27303598621991043 0.21037357419368286
P 6.19614851815593 7.673813844722183 1.3184611318499737 0.9514153846776067 -0.1448739498289763 1.1358349580096891
P 1.7962698467570108 3.3177137177913467 5.977742523981507 -0.23128255643220813 0.3311238915015781 -0.05703812386091467
P 6.680546506792607 3.992025659403109 6.04442338304021 0.926246598721463 -0.23356801003227518 -0.26600170508094834
P 2.335458492157071 8.586658574965734 10.233746688686994 0.07416861289361419 -0.3712675535999993 -0.3206738998128478
