# total energy = -340855.2586613235 ev
CRYSTAL
PRIMVEC
9.42697558696673 0.00000000000000 0.00000000000000
0.00000000000000 9.42697558696673 0.00000000000000
0.00000000000000 0.00000000000000 13.79733166481663
PRIMCOORD
 96 1
Ni 8.386463668979404 7.484443516458459 9.068447843217374 0.15669228262014304 -1.0168419897125327 0.4148354108886211
Ni 8.5818754445096 2.277868375545737 8.256709835240434 -0.9421576135247645 -2.1217054390413717 -0.8380690731432663
Ni 8.373275330228537 4.4283217499787275 6.054490110140794 -1.4524796820584855 1.3914216384049005 1.6349259337142812
Ni 5.03552267012323 5.437922547120764 12.216460938962179 0.4635788988409113 -1.4663975776911584 0.5652205203438136
Ni 4.532800919654117 1.292419489682988 2.8915201750377864 1.1660482483682757 -0.12795891924119254 -1.372627902737165
Ni 4.723848005519085 9.255291440698489 4.705883018272818 1.2996548528135488 1.2813218588323159 -0.9313818630654992
Ni 2.78484169197385 3.6955158080210984 6.167572337674684 0.8954802640728836 1.1363034130056753 -0.47779915620535135
Ni 3.6513975625928907 8.6209879659373 10.786518845015134 0.1490692188572465 -0.11105931527237647 0.012027620588495413
Ni 6.274312096079493 6.180805925908042 8.100661338686738 -0.06419247551750881 -0.7530038679418064 -0.5906582436906279
Ni 5.455239901148888 6.404922841893128 3.239006034242929 0.3462265514709715 5.274084117251413 3.227447691430738
Ni 4.620179555738317 5.720373587616481 10.051218525335218 -1.0449078947108135 0.722895221481884 -2.3409598606644524
Ni 6.8577287569899426 0.6637458047016547 12.480252224115887 0.7954571520100108 -0.5123606962303047 -0.200850465194596
Ni 7.031609320435089 0.9041713883343475 2.3579090538860656 0.574762655506294 -0.4147443938367116 1.5411806842403197
Ni 5.4193514053486345 1.953919788816053 9.517799714484083 0.7838630194145082 -0.2464950025065884 -0.6567620772982367
Ni 3.678066476335711 2.735972250884143 1.1862227250680644 1.3709633705505486 -2.7293471046638738 -2.6394212289360026
Ni 7.658606889169171 5.4243288484225864 2.382771759119475 0.5538163922719301 0.5524454800663324 0.40004616839458845
Ni 5.547595980307039 4.268336548448363 6.615406465882857 -0.6652953115802284 0.16082173140748435 -0.8284775728000893
Ni 2.7553164046488186 7.154584216078457 9.047007130097308 -0.3786039393604125 0.018029603808201206 0.5343631686433249
Ni 7.720334724866586 8.882030345029712 5.802163912613107 -0.9388113227603511 -1.141949812658175 0.34836468085989686
Ni 8.569271578240901 3.6570066130266055 12.175041636625018 1.3858850248573875 -1.5891937217844887 -1.825388885026966
Ni 6.444242756782242 6.407430417381143 0.23991935504733072 0.3517032583148265 -1.9679663255122815 1.2495283684708027
Ni 2.237596336129219 1.1180675774618989 11.324669997576732 -0.3738934212586206 -0.3260552187294191 -0.672940486830312
Ni 6.42487032209101 7.564601089295222 12.139899757285855 -1.0202767264256944 1.1566138424282533 -1.5401576422924443
Ni 3.4010830816409268 8.476726959572373 6.377016166264684 -0.48371320769694115 -0.5842988771315033 1.7506294326268883
P 0.8875855676064867 4.509601132902233 5.264854588965343 0.3783378301832194 1.1043196610102273 -0.6647798053963906
P 5.5698530695070385 1.3095483042007345 0.7864850259570522 1.2283165102798783 -0.03947054729079654 -0.18396345963127025
P 4.40719589784099 7.052273250772402 13.449293459088082 0.24701307979358747 1.3482849551164262 0.40541617445725014
P 5.473122873708142 8.663154827433106 6.613709610289464 2.4879850525084763 -0.18734471739867734 1.0140901379990084
P 8.133575623710795 6.685130262215359 7.006588242012963 0.4999463817263519 0.23227011715645804 -0.467627357878672
P 2.4027192393173564 1.332540697491204 13.46793436047905 0.017316894011892757 0.48626631313609797 0.5182824610313783
P 6.421618015537008 3.9358376949230838 13.317570330163223 1.1758873459458847 1.980277795889783 1.417859520881455
P 9.260872210205648 2.051696378897542 2.4634167065905612 -0.41115076294818226 0.48896931388955794 0.38399271447615163
Ni 9.179225175236907 0.07737567236115041 4.055532003085894 0.5031741446350302 0.49835795419330947 0.431480989865102
Ni 1.2648455862903583 7.828914628892674 2.9215300089044867 0.2452696147399195 -0.7863510759436845 -0.9485349778060179
Ni 0.8285858986242263 6.63152847941519 7.5592126300886475 0.4078702924246975 -0.23601544313150322 -0.6974688109889795
Ni 5.236015585458083 8.271803365743661 8.796723758164555 -0.45991456261544666 0.2420289963154348 -0.2722476859906601
Ni 8.482298302104011 4.26344394815408 0.31688024048565183 -0.605484510070183 2.5639202703842106 3.71965171020751
Ni 0.03721864204596278 0.793220599965269 12.915985886548066 2.3300452706344776 1.3768013173885643 1.4736984822279457
Ni 2.6903174084463632 6.58375256748567 11.99328860592408 0.5889654293692373 -0.6554307600813228 -0.8869323745028725
Ni 6.4676310830445045 8.486794969426501 1.282185565059727 -0.36805110354523063 -0.9032732777547412 0.0008263525560372866
Ni 8.8970286630802 5.016800696742798 8.681860774955155 -0.7201166302954825 -0.0277260051603587 -0.7686477451266505
Ni 2.135954686085003 2.9592690199990894 2.800057773158822 0.7555901406117439 0.6777695327878391 -1.1829586509703691
Ni 6.673516228376139 3.06291861582882 1.8603221769820695 0.2686016045976406 0.5879038208739423 -0.519981446000356
Ni 4.135604733142986 2.0683632716148646 7.198232998125826 0.10765440335588557 -0.9045403173926228 -0.10138399696614152
Ni 4.033670846857686 9.251878875560665 0.8703360878020991 0.6987327653030676 -1.3163199721740555 1.2669061976276181
Ni 1.9701341867084712 4.758916354449199 8.680287412741059 -1.3928331740404463 0.22272078290512612 -0.189281529410074
Ni 7.735992931203392 0.19605940874833971 9.188691744052933 -2.856681245836874 0.48495890717858414 -0.08091030249282195
Ni 0.4955808165135853 8.885226089730603 7.123989909729589 -0.45821274943299145 1.500045604762907 0.8286310676588181
Ni 8.271605399257764 8.218635223817358 13.429729656793818 0.4534454099513352 -0.6370671699724706 2.070616076564724
Ni 4.302810997920789 6.17886396895116 5.502968678200814 -2.608410382376785 -0.03853877950514653 -0.2529163326518999
Ni 3.8507592408654827 3.6344007257324082 9.109964243402379 1.3061584582600214 -0.4075617600453432 -0.5964514533336372
Ni 2.5279660360607674 8.673317107042424 13.117302719543268 -1.2548004155030197 -0.864913189919304 -0.8069615531051844
Ni 5.4133558489186475 4.824151025039626 2.1011125845673417 -2.087732424530037 -3.321832374260911 -3.565014253233867
Ni 3.829171466927322 4.335927962918501 3.925340757682847 2.453968843464032 -1.8806069249600064 0.013585194883602408
Ni 1.5502755510500306 7.917169973700127 5.3241832593932115 -1.1472048904095276 -1.7573143008462315 -1.8900423593412936
Ni 7.69191239367726 2.216017989166577 10.629022365021745 -0.3593471480133295 -1.5993117840550972 -0.16672292738326772
P 5.687171779839099 0.03890324257118087 10.548612149241078 0.8574022262542395 0.7228358289988583 1.4341924537135236
P 3.493363744994927 5.873147152874927 7.486128116983678 0.20116902487627936 -0.85396003334191 0.01460592283863291
P 9.425523764617841 3.2824445947362277 9.752023290922926 1.334789748843469 1.1958655888400243 2.9009607844805396
P 2.6797403419142163 1.8754590715726833 9.323367401710296 0.10575255834748237 0.8567666495527696 0.3372734560427417
P 2.90322565053954 4.625628347588211 10.800054096465098 -0.022247241433974586 0.11876182612295674 0.4968782843239894
P 1.275705462088071 7.826906683107159 10.825662475462048 1.1689857337300449 -0.23762983880647462 -0.6162584607572353
P 3.218199756575281 4.58775075995348 1.684240414753272 -1.3150393056894192 2.9928926348948455 0.8273763693161105
P 8.320738795661999 1.5747856873990345 5.681133802019277 0.22670882101859666 0.32758065423501 -0.04555352026008284
Ni 7.2846764782385565 4.54235044585471 10.623062631098732 -1.5098384224836126 1.263352675948405 -1.2594767379327663
Ni 6.401717670216721 6.647186685751996 5.5842216655928665 2.6739472877373305 0.5327881108467212 0.13701177347208016
Ni 9.055514975503067 8.885471191094092 11.451633446562127 -2.2864411607912816 -2.2964278396903484 -2.2297064271033986
Ni 6.376877589724557 1.7792002245497291 4.380473250337712 -4.9879401328946355e-05 0.9525091319624176 1.7270824985448836
Ni 6.588258661783679 1.3062959976467319 7.079452163890793 -0.327932381147474 -0.9752425690041913 -0.2548713994957417
Ni 8.518865540141622 6.194927535235276 12.077121756515641 -1.3399761781404147 0.7642347036606193 0.6713212060593341
Ni 9.115536528631571 6.255580695723543 4.278290491898714 -0.16652032445415837 0.3370669964588905 0.3306279257017661
Ni 2.7685235973507245 0.02954225588096506 8.503695651136692 -0.1137242636990493 -0.5548499757427671 -0.6203886808755251
Ni 0.8846830018442334 2.56459926292701 4.404370633277991 -0.5611360658617949 -2.8113390702566488 2.9132018066314216
Ni 0.44105519011257 0.3435887475256512 9.631158152400676 2.6898127940146774 0.7771143878367648 -1.4331419009618223
Ni 2.6176919890491606 6.522326395004859 0.7622473292005428 0.21642697947661435 0.4021567869796881 0.2894344821825919
Ni 0.7110993881279305 3.0079027867008254 6.915250276210847 0.6499077733805646 -0.28248787566142963 -0.671122974005599
Ni 2.1341729877119406 5.623954482009706 3.8534562985614254 -1.7283292264677914 1.713316812219359 0.055695750900407306
Ni 0.8845227432604131 2.5449817268722876 0.646038173887051 1.196894544325171 1.217077189920633 -0.04370438286648602
Ni 5.4627154927353345 2.711820339604855 12.053417626573498 0.10915567049176039 1.0110991736914843 -2.117320422599799
Ni 0.7835117578784077 5.093244041225135 11.117876091805082 0.30730184938131594 -0.8491376722526021 -4.986651238879883
Ni 4.5742796119370475 0.8078239277415159 12.673483540208574 -1.5824931698358615 -0.651803961962013 -1.1966212360591262
Ni 8.100939434464545 2.0179383795645482 0.2919986813012051 -1.7616990601774885 -0.297766656197371 0.518025607825566
Ni 8.310944168097915 3.4993687284004333 3.941442031869039 -1.6876502606911903 0.0462492607755268 -1.3194641742299922
Ni 2.836322405282277 3.2599141232461815 12.433989341757142 0.2622134416831097 0.2193744921407125 0.8228825952108151
Ni 0.8391375123224725 5.229350713766259 1.7559862973345666 -0.09508273733846205 -0.15351079956836788 0.47543117019380704
Ni 9.067421245583372 0.06363114205467038 1.753378795906053 1.1943424673272787 -1.4866205896062525 -1.7519900604198408
Ni 2.4964705108522973 0.3856707662417876 2.4389546478167032 -1.9434925087406336 0.22648127838882287 0.5361701399450766
Ni 1.119604174471471 5.2128157987062 13.125732321052222 -0.3410792029420771 -0.525201813859031 3.4503587359698
P 6.781125153923785 3.246574952887012 7.973064396946478 -1.4322106473968044 0.9427741640628408 1.0538558479327205
P 6.4668109361743635 6.6615911043447955 10.168109250978723 2.1248830654384054 0.171848164424975 0.6389924120196415
P 4.068117015403555 2.1699106519038924 4.68673306020383 -0.37157480042777297 0.6786354803325603 1.9829221754911652
P 3.5532156125640912 7.690611471055659 3.9410281876437616 -1.46394551660624 -0.9699203854603294 -0.5578985327611037
P 6.065806251553619 4.25502565901575 4.228178575435623 1.1686370921413745 0.3129269088775772 0.38009697896617123
P 0.8539878268573133 7.878415677342144 0.5830047020802755 -0.5125368167968527 0.06500828655058481 0.8369313599943974
P 7.417738237687092 8.035497370412704 3.481149212815156 0.20258313161498656 -0.3555385729005167 -0.17791802476813873
P 1.8140611800184279 0.5590158774774637 5.653139455518506 -0.4811241068135262 0.6368851358686515 0.3854739270073684
