# total energy = -381167.3959092931 ev
CRYSTAL
PRIMVEC
9.26556356757899 0.00000000000000 0.00000000000000
0.00000000000000 9.26556356757899 0.00000000000000
0.00000000000000 0.00000000000000 13.56108885866685
PRIMCOORD
 96 1
Ni 7.200936726294899 1.315144855956689 1.9819263277660828 0.02086527348478342 -0.12116632179939131 -0.6260224821225348
Ni 6.949793620307779 7.249719919544197 5.3707201069176795 0.7868005047762773 -1.066615461591234 -0.24068790890650804
Ni 5.225722372923839 4.761897516159061 6.258497319875594 0.03148881463690061 0.01768276199174374 0.22876930309205118
Ni 3.301088732173464 8.533074626205854 2.04654436949839 0.43132055302783784 -0.5850385835110054 1.5466944149696977
Ni 5.914589242535517 -0.08359762255887127 12.112182158637838 -0.33520886020422913 -1.5994017726657421 1.941439997086979
Ni 8.536762320586334 4.116430547246282 10.504107430647494 -0.12280102918933691 0.06094465800417247 0.28960057544681095
Ni 4.166390467094375 1.6927443762774106 3.031229187370848 1.494089130069156 0.06674198141223989 -0.013275634062983589
Ni 2.007208345069033 4.745460406030997 8.860246315708096 0.0030997219712462745 -0.8661804866675018 0.4092340055414436
Ni 2.709899435825621 1.6413019662261101 8.883096122521408 0.020975573810402583 0.1418971265888395 -0.7209602092427002
Ni 4.053489572556353 8.257016419241078 11.145357641488523 -0.1071016161762091 0.5362652707620442 -1.0733628076173967
Ni 4.574816518078044 4.468874061931327 12.518797718460839 0.8327990829935786 -1.8540186329485167 -0.70278842342968
Ni 1.961010244111579 -0.062378554969086834 10.26436096809753 -0.5902319547864868 0.33521605929308074 0.8044773532307501
Ni 4.0621436091175775 3.124709460246851 7.546895272897289 0.2637288498863716 0.17632419791845763 0.12084390546296607
Ni 7.831106249423331 7.789142511108788 12.045936157351134 0.6457179036689331 0.9575533792545444 0.7326610426193962
Ni 5.5097026369120075 6.57488111348037 12.078034849919709 -0.7915282492692497 0.1378324696011626 1.5049258156733438
Ni 4.667092267663941 2.6570671912088137 10.372280695552774 -1.0085103299183855 0.44531918129977505 -0.25898516455379916
Ni 8.931290025914931 1.8856441484060174 10.144413612312386 1.218052923570341 -1.489668632403957 -0.326948677077966
Ni 2.9776093698335866 8.357686769602637 13.170434626288092 0.6927559788943425 0.086063050338355 1.1162572929880776
Ni 5.338187785964668 6.766270598714459 2.9396919032174234 -0.36260242172583357 0.6997000143123433 -0.6317035916677121
Ni 2.387559737829459 3.3149685467009946 2.903456136425524 0.7023042847044098 -1.1615030521997545 -1.3276528806883716
Ni 7.444778568031224 4.689116512745342 6.916155917597 -0.6986934274247 0.7182219843759308 -3.6593441715667048
Ni 8.588102809436164 6.291966389325757 0.4832565971033208 0.8907936572304918 0.2226361936111198 0.6122423976193069
Ni 6.036746435279816 1.7005645120993305 8.514560176680547 -1.594360353587093 -1.5417141881462866 0.2332509930124886
Ni 7.401869742212137 8.596478879084286 7.982233153851058 -1.2995239836626395 -0.10730267644342165 -0.8951925576291357
P 0.44086849596811023 3.1593904654381366 8.690894973901063 1.8841249654155936 0.011167843691361411 0.19995160752941046
Ni 4.127391709186248 6.209753041994132 4.840088682258109 0.5987834439009236 1.2721911001756414 0.8482907508712746
P 6.187033879629976 2.6400556161270075 6.281224821247142 -0.7782410452420403 0.08354388346092709 -0.384239540379635
Ni 5.033471190259135 0.3265156875873222 0.7119640669776508 -0.1579336112264119 0.8254043331914042 0.7414431596874005
P 2.7347589434206565 8.436119766916084 8.319144803988372 -0.11886647002162111 0.3873318061517136 -0.14373238002536537
P 2.8450098867204447 5.009844002645516 11.19447532158992 0.4388353733476442 -2.172969893643303 -1.00725151781062
P 0.15300596076029271 5.341134235243543 2.548413631102981 0.6054641983552088 -0.49008542977187214 0.8289809947990691
Ni 2.4332019049607094 7.956311812647975 6.074391494321139 0.4771743781371588 0.23245549369438676 0.10746748415606008
Ni 3.6980718119011238 6.515118227163567 7.505100167843361 0.5186231322002487 0.9010821836406933 1.2729246359075561
Ni 9.06333357520187 2.513034002403434 3.3444765876394627 -0.3408794282264452 -0.5251588764362375 1.6464832995345773
Ni 2.3735316742816077 6.893940801901936 10.61997330559193 -0.8192545115399245 -0.6248649714793238 -1.4428182477093217
Ni 0.8189720629579227 4.717117046458425 12.338828040573333 -0.2535912472317374 0.5855317210973401 -0.5674530092187582
Ni 9.458102185188489 8.50448109641149 6.012796806046998 -0.7333552404729435 -0.42899344755655794 0.7555230348192343
Ni 0.3507349447258479 2.2861759390576055 1.2087539465235022 -0.25155621907957965 1.0201427719509915 -0.5626787277585664
Ni 5.061314209388127 8.280893777076487 6.173835084039545 -1.3413776864736318 -1.7095876841942301 0.1290521523053713
Ni 2.3545280029892415 5.678549005493572 3.6645452959555866 -1.0085823208069018 0.10040672065453675 -0.808538410674001
Ni 2.3540183969818886 1.2411037358702441 4.439995152772845 -0.48244436828684656 0.5188853847227 0.9303480224843461
Ni 6.728717268754459 8.021031775581752 0.6215859048518592 -0.20105461078560213 -1.398057141443547 0.35360973130892004
Ni 1.3044338642385145 7.833265125781751 3.8340050448587286 0.21220445675483457 0.21011106456091555 1.0384793654766502
Ni 6.824550994828055 2.289437417504662 10.85181438913329 0.6458472301579458 -0.0015570600744747379 0.17897012018173694
Ni 3.747827889346276 5.0299317448989775 1.8508714141334084 0.6455394691095399 1.7732037183829785 0.6440027207500393
Ni 0.3761439002524475 2.2605195929783455 12.413183263271582 -0.8608809288314594 0.1139021840378103 -0.45595506374706635
Ni 7.116323597946831 3.935844709368068 2.1356679742897176 1.241763122703087 -0.5179327910014435 -0.3661541436328339
Ni 5.48265645626724 4.341583746858422 3.7083880906026945 -0.512905255879865 0.5615636403175167 0.33742643668083827
Ni 6.696519434653546 0.42253750460544937 5.500350903398899 0.3079286843320374 0.9069856936093219 0.8996094557499087
Ni 8.652313166362589 8.572295757644463 1.9870251675087398 -1.0797892799690307 -1.9765700080208926 -1.5457382217040152
Ni 2.433507668565121 5.225222032480256 6.332431885978684 -0.11988874063854837 -1.1995790331358696 -0.7734258832415841
Ni 8.323960117479665 8.927620862661993 4.095910103164759 -0.0165159953771522 0.6737514127673816 0.6826641418759791
Ni 1.9447028518762963 2.1754153897504644 6.583936348952837 1.368782817959462 0.908271759410597 1.123058632180627
Ni 0.374857840001165 6.025377588533968 5.386424310951533 -0.8667062772639847 1.5993722049793873 0.15037302527033455
Ni 7.610372723729503 5.435819031409653 12.171674490492556 -0.5938281567781774 -0.5989731913142265 0.027958689996455073
Ni 1.547441805235535 7.053642059042464 1.6906883476768373 -0.6139650367373684 -0.780949445312139 -1.6059827683173695
P 7.741397061001736 3.31807251056396 12.763995112176723 0.14944485702911037 -0.09519946542198443 -0.01475530393230362
Ni 5.846978423705485 6.476378905041001 8.29092467641394 1.3268033882038828 -0.10194835411004377 -1.4089205665206124
P 4.379507699369224 6.973569056941718 0.810543179596311 0.3178917090820203 0.5321188526938384 -0.306156422922963
Ni 8.84792774867582 8.832889738677032 9.724576092989528 -0.022672501896851275 -0.2975519690834037 0.38258837792945727
P 3.500789428109285 8.71784849890813 4.277086157455126 0.6309980809602552 -0.728191693994133 0.3564531142949861
P 6.525013849269977 8.654082889042668 2.8089761092187326 0.22734362638911815 0.03242418196697642 0.06865436794360434
P 8.1783147205783 6.7760272373643184 7.173381866199158 0.4634580569923309 0.735469715712785 -0.8413778258015252
Ni 1.2623218769036515 6.900028277298857 8.313205577611773 -0.7691879339008365 1.1204003686221737 -0.758599616862029
Ni 1.0190267034297595 0.5836814100249743 2.7462834516378414 0.7750063403548266 0.8809411899164441 -0.07145841305130274
Ni 6.728346646203657 2.287537976931802 4.005091826759891 -0.6332274845114062 0.4835836240976123 0.889456426476307
Ni 7.9071116690290255 2.4295698039628513 7.718035795068317 -0.7917897304607525 2.29922237171635 -1.178869054282028
Ni 2.923637460873063 5.7813967633410925 13.14518411190196 -1.5493449652186673 2.1913789922781097 1.2724793208400216
Ni 1.4540912502523122 4.561409247302786 1.118065388011414 -0.9200589818535122 0.6769791756760599 0.30646649796421416
Ni 1.0071760473678697 7.502669810466478 12.435993228160685 -0.9148802658660502 0.06528082348568112 0.429421536232912
Ni 2.453567614127273 2.886380628953704 10.943839968497397 -1.3282339500028222 0.3226521065851411 -0.6341839348874045
Ni 1.2217757698459262 3.999777099381392 4.60587468783524 -0.7627249518843122 -1.2963494425893998 0.6530447763476495
Ni 0.7672618781136679 0.12119728033772166 0.5457454122812713 0.9734165715390461 -0.5735894611337992 -2.9435220548815177
Ni -0.03580306496383828 0.8763481400475612 7.7328449456419825 2.8876046748886077 -1.6854632803422003 0.19901726864059918
Ni 3.747410938976624 1.26997523257771 12.319612187870634 0.012763727423571566 -0.2539121209062659 -0.5341839627529832
Ni 4.334050843513374 4.842961933583202 9.323628278524668 -0.9007908776525196 0.9064845856031872 0.9881855023181045
Ni 4.365266527854662 1.1614754808304608 5.983952179474465 -0.16447784010283287 1.0417302683137803 -0.1297646049913636
Ni 7.683515084130253 6.404098242070865 2.7077155424450208 -1.063470488204349 0.3408246637291098 0.7169384896778169
Ni 6.319503644850338 7.521664216195074 10.264646347461646 1.0324681262855637 1.4366134044501904 -1.280586266217872
Ni 8.825866441339336 5.218977042499246 8.508796996015578 0.5663546339482568 1.2150210787225526 2.1232077346185108
Ni 2.3149455145636013 2.9974098796101765 13.256886969044515 1.5452322286018743 0.8808280613773475 0.15089367366049497
Ni 2.7465354749723865 1.2959466078251516 1.1335629699731946 0.07213564162398545 0.4182953444127635 -0.19718972851355718
Ni 4.814933603178809 8.881228184865368 8.49260542332742 0.11545101658216891 -0.5178587432303984 0.27171598185690626
Ni 0.3819830585403311 4.073123302185083 6.699788325551618 0.3750396190479218 -1.3324497878563826 0.1588725781009135
Ni 3.6594066142887183 3.4051224821835513 5.048346126335568 -0.4753334682736781 -0.10799198920096241 -0.3108522857367356
Ni 7.599365233970688 0.7595334713730717 13.057403087300912 2.6011593572413263 1.5510843165072772 1.2389158830622793
Ni 6.047040476628338 5.502846119722172 0.7017107941097169 0.04684447115736449 0.1421588648906584 -0.023110617875534395
Ni 5.750727747262237 2.458506159616708 12.97221271432997 -0.1574553860384127 -0.14570544459133616 1.6144733222868841
P 6.538096825313284 5.339030952267743 10.139219337262897 0.1438884459872554 1.2382247705325256 1.703929457467188
Ni 8.043500767724115 4.304882848765266 4.50305472667903 -0.31032598091962044 0.8814466687979529 -0.3897864383397932
P 0.24110016141676774 0.2662728450672312 11.712752970074886 -0.47829769310832465 -1.3861357074156127 0.5479992713695208
Ni -0.153454414046763 6.737732662302715 10.484321745772936 0.2533832449859894 -1.8584319315248639 -0.6913904660053835
P 5.359192819031365 0.6218851825616317 10.406074986291268 -1.0295180425183044 1.1150838415052666 -2.9608613174909135
P 4.112418558133852 3.2061815624768735 1.0547000505008173 0.6671647606887994 -2.487891978574038 -0.9244162303809433
P 0.2977748353290137 1.5610158561586538 5.548560558250829 -1.2108888017217339 -0.8479523936952493 -1.474676529870499
Ni 6.316575726699003 4.002389988364545 8.627511105262927 -0.6188583602739277 -1.261437461203563 0.705825667594107
