# total energy = -340863.03630123835 ev
CRYSTAL
PRIMVEC
9.32834508098242 0.00000000000000 0.00000000000000

0.00000000000000 9.32834508098242 0.00000000000000

0.00000000000000 0.00000000000000 13.65297594959097

PRIMCOORD
 96 1
Ni 3.4377469332744126 2.958568516310554 13.392831530553709 -1.786145366145311 1.225029097777858 -0.12117274955729454
Ni 8.92310286898682 7.392573348536126 9.30813496580569 1.408346439184697 1.482825898450511 1.8693920300807936
Ni 0.22009763197036616 8.647095802308602 4.183066759429707 -2.07279071561854 0.41577540620438713 0.1558080802429768
Ni 2.0593533885725037 7.955417690234232 8.39083217745222 0.4725091114510056 0.41201131117626466 0.28837133102540013
Ni 7.278832840086501 3.6494443907299843 6.809367095754295 -0.2386521094234019 -0.03719717787558755 -0.029397993546142916
Ni 5.005655131438354 5.4843298177816715 3.4556498926623007 -1.7063156983111774 0.977273226280975 0.48317533291560016
Ni 3.1027753989582 2.455127074457211 5.988836556614014 -0.5984530571446983 -0.2441956649494504 0.4877087020095794
Ni 3.7451998503572623 2.858176869305316 2.299666476612843 -0.8764296751993357 -1.3266416658150377 0.21267831106745955
Ni 0.5110132593476886 0.24595300532145492 8.379691335227879 0.06363737434498717 3.1852291490811595 1.2321078590015104
Ni 8.492198636491656 3.9293413772001715 4.640168715531032 0.3934985970840578 -0.3521215767991678 -0.7712736127852716
Ni 7.445800884106827 6.932116919635779 3.141835977243373 0.3934235208717482 0.497877157902149 0.31019973975440124
Ni 7.481034042510356 2.3244089784263253 11.783091302857125 1.11560628966764 0.7481606809168921 0.04476059204514227
Ni 2.4875803861029295 1.8495122717370809 8.255545058126113 -0.6483802809924446 0.7451260078556264 0.4262325969819691
Ni 0.6893189736681602 6.643964347995583 3.159502929507192 0.6641442286949207 -0.042528360280513856 0.031169483624268895
Ni 8.692179692847194 4.729974556829008 12.972278962310703 -1.1577358718478383 -1.8020808064286447 1.8437321634208443
Ni 6.264160788451051 8.97927816152218 9.310564999632568 0.9429772812125824 1.0260398541617168 0.8939082916000733
Ni 8.757580718414347 2.70617149038408 1.8621838953471828 -1.5893770414398887 0.1388791656981221 -0.5387908653973753
Ni 3.2396035608493747 6.6881900308102855 6.938414485227048 1.198074680676201 -2.2724183641496283 0.22227855316138495
Ni 2.001638919141041 7.500800805194253 1.1721503704654377 -1.6507428461418796 -0.08548995144370437 0.5955276559677873
Ni 0.25917873261415386 5.990877598461695 5.636849188502757 -0.38276475560632145 0.35474744445778905 0.022687671405502863
Ni 1.2839813667294118 3.9965054599392267 9.421344691434781 -0.11147994774956285 -1.3234393568276563 1.3930512035885234
Ni 9.168876770087637 8.446405791746376 6.718328980104953 -0.40531461588237944 -2.201780647227408 -0.8967874129200812
Ni 6.532630552510773 2.001219143623922 2.4776195794989344 -0.2660472136069031 0.09921167190517108 -0.136069721273785
Ni 6.338022622774361 6.74866569030991 9.807342271943025 0.8678848709531183 -1.4655285448226438 -0.5932802546945073
P 1.0963230538875268 9.302281429428085 10.454929962202653 0.4530985681348777 -0.7712515012980847 0.5008817490564277
P 4.093837409841908 7.449177744933429 2.996568461789139 -0.013288746689106146 0.30235427556805344 -0.5122488532427887
P 3.7606196043527707 3.841449712260258 7.814307818068443 0.45938825779833137 -1.3442048715097819 0.8315754949991226
P 1.121481599880198 6.265037652864589 13.025184669984947 -0.27880657015510046 0.3242076239977191 1.1056298951812185
P 6.042276778446722 7.838804051578548 13.203465197774392 -0.2889194902193863 0.2665773750787602 0.18963994119075728
P 1.9859206581111368 4.51410732923672 5.2921118099893905 -0.4728423264207082 -2.1729243851173483 -3.683228948604102
P 7.258105257885643 1.6002029279476382 8.262425645268936 -2.3526007873374906 -0.33909919639757086 2.616347892056307
P 8.740659100902036 1.7316113214955644 4.13864051720127 -0.1498588046380774 -0.00642184436594378 -0.6333501261321995
Ni 5.687202661032917 6.1822672492335276 6.158597507074905 1.8365870677356304 1.1332255454112998 -0.11355559933166895
Ni 4.965599218760369 1.372759224427688 7.633119645197087 0.9144434354389477 0.7782852682164144 -1.1344007966663237
Ni 5.364796407195803 3.3520101159890436 11.917982900362656 -0.13846496097883895 0.4759752156227351 0.4904217300653683
Ni 3.8210113087489708 6.147724388347038 9.308298211840127 0.9752981048324751 -1.7625567801920936 0.6881300500865568
Ni 3.333008277580786 8.896078654029175 12.368244381203905 -1.6242553413743124 2.6883819751054214 0.8294648764140231
Ni 4.355189646800256 0.8272198952141951 2.7867907776985255 0.6664628495257684 -2.2723720842927255 1.5057691375102455
Ni 4.686933573807064 7.675763240729492 11.15392149661972 1.1787088745550798 -0.7599404471606396 -0.23424163906053208
Ni 3.1220757444008536 6.707499704597764 12.869445154630315 1.6646093197113268 -1.5157002805810285 0.025887923510355414
Ni 0.10878809018210206 5.933760143099024 11.264469845470273 -0.30370281917614794 0.8278954750443742 -2.496895724734545
Ni 2.6835875675630723 6.416837808199678 4.650353402410824 1.2721605040480222 -1.1215301113512426 -1.137186586941577
Ni 0.9917429800559232 0.7662666244595376 2.2104716419008956 -0.057860876872526154 -1.0075307396139357 -1.368806729218862
Ni 0.5841577439539671 2.440201722737421 6.151799009366541 0.45747201461222503 1.557170631910673 -0.2826513978224874
Ni 1.4268636244119268 3.1476633942554684 2.5829104732061934 1.1258719332597062 0.2827318733514356 1.855662339199527
Ni 6.192966860747652 9.261320667302087 1.261267779915339 1.8321678556220122 -1.0201607696731205 0.7352102914038112
Ni 7.985958691190853 0.49869424717196686 13.231917582324723 -1.3023761083994536 1.170429922375739 0.7946194866000638
Ni 8.141555482869665 1.08969992906187 6.564623976756626 -0.44053512964757036 0.4376778627044334 -2.383447340404702
Ni 2.303019083742901 7.323571581866572 10.640760852293345 -1.2782357637078245 1.6066990776581038 2.3171846126217255
Ni 4.970925703655369 1.4341957034442736 0.051293769688505894 1.1286638941825464 -0.7421214167013477 0.5164060699442719
Ni 1.5890368991922703 1.3397368837476524 4.342260560872988 0.5998679352143539 0.8107536731577649 0.5262773063113968
Ni 5.4304306413835794 3.7615431104904324 1.1073370306222494 0.20372110187417172 0.23936996142603292 -1.4979897506751427
Ni 1.3038693978960323 1.9379916224009612 13.593052325371243 -0.2577168393643368 -0.5479226524953145 0.8453905465053441
Ni 4.123622814867713 8.270995595659544 0.9042244489090043 1.3111831651681225 -0.8031100405695782 0.13548839484901828
Ni 5.854170705053243 0.5053322973493435 11.590324788389141 0.7583458489800101 -0.08388198352663617 0.0962351057753504
Ni 2.3716757016539356 4.513631583650652 11.804062354857914 -0.5049320078664014 0.582376720408126 0.2299918626452426
P 3.0464601812504672 0.7602927524336918 1.0563035217543573 -1.6714327703910634 1.3185118376190519 -0.2729753081853041
P 5.43573846958893 0.932216013224988 5.484960413891832 -0.180333833298483 -0.29593397386400644 -0.7716173692779357
P 7.215484050380817 2.997784877954302 0.23453044708340312 0.4273921645077091 -0.8651726142282776 0.04556740421715378
P 9.018914298683047 8.149186068936407 1.7495469300903397 0.7429418557201141 1.1251116580549139 0.7411994191077106
P 8.470183742704966 4.768827113024587 8.308108415545284 0.5126509737772139 -2.147158589007154 0.9861358188779275
P 4.74367789537674 5.389964281533299 11.37000700748091 -1.8029302989131335 -0.03407148776241229 -0.9568003031386039
P 1.6042700862912809 7.730296744575675 5.9133767768222025 1.3338947478330252 -0.3104000286906654 -0.7140956209123831
P 1.8231037275378774 0.535147553078589 6.556637047917573 0.5102415930047729 1.7560827424319756 0.0603497047326509
Ni 8.040650776899058 6.894402421508834 0.31832323730726936 0.22711145577365402 0.24579206290229286 0.12185794854977722
Ni 5.946045573233376 6.134403511937126 1.2890979638658524 -0.8080108203053054 1.116194300960626 -0.8728756392994902
Ni 4.763043539233169 2.9061152333603166 4.511243527375486 1.6216472143275038 -3.158315355409451 -2.7010446581747547
Ni 1.2949421718986327 4.517437548339198 0.8048169422827903 1.178173827987216 0.9290581000283289 -0.7459875845249734
Ni 8.377404025076821 0.6115896075804585 10.148925737071105 -1.1796257299423942 0.42462874282995905 1.0354616616962489
Ni 4.108072464044658 0.699101608886 9.616500195012412 -0.7330515931895956 -0.5697124946768962 1.222257705680308
Ni 3.8864776327298998 8.73350426042136 6.32334820353036 -0.2340158962029712 1.9039754244826177 0.3975917933168249
Ni 7.90624798466235 6.496399261210984 7.6772184625221715 -2.73379434180195 1.5484224534043978 -2.7332322986508926
Ni 0.4535170731851274 8.569567928469118 13.02118374288956 1.49811213518562 -1.2128574954123306 -0.33070608723786915
Ni 7.410437128875749 4.414788441886342 10.226201745600317 0.9343070071320941 0.8004160386771828 0.4923217753015585
Ni 5.863909497050406 2.9063577703257635 9.577602862761674 0.2415302023021453 -1.8440034148043598 -0.8426320099236003
Ni 7.615809968540061 8.01570678283736 11.665594269946526 0.3303304490660053 0.05192342834216864 -0.8804868759878449
Ni 6.890036756130796 4.48743759138242 2.742595878421745 2.6779353258508007 -0.5848843173213282 0.10429268597250427
Ni 2.455108417767561 8.594241400530896 3.9427060968307615 1.6287077207187113 0.07960829585194677 -0.8863528478503188
Ni 6.477966451837043 8.700192741051755 7.059899385550278 -0.27442566747858543 -0.5977472893269253 -1.3201293186178167
Ni 9.068513108116873 2.737794579340384 8.315153181557024 0.058282023570344794 -0.9651196216375766 0.14146800947122087
Ni 7.160763979638136 0.06122565842354367 4.036871073665399 0.5280783640758776 1.342383502030327 0.47220057907165125
Ni 1.444699419717076 2.0725809815341676 11.167683603739848 0.9222711590134827 -0.7170475044518554 -0.6696744144845306
Ni 5.579031174443738 4.954591771867023 8.241332391950943 0.580641225774258 -0.46476854827363834 -0.2170327313814133
Ni 1.8391764656711265 4.723593968968798 7.223011091820005 -0.6580337449218085 -0.1746956611760991 3.1341053338221507
Ni 4.263781195861367 4.5451334041242335 5.763221208679737 -2.0529909072837933 1.7433182436774557 1.5975719185458552
Ni 6.612779691246047 5.890915055318402 12.222211941474031 0.04430010746895596 -0.4422983921955802 0.299863905046032
Ni 3.5786982235781797 3.401580940388396 10.043757044681051 0.47189898867083246 -0.2708094108822368 -0.1669371002766028
Ni 5.429814970625138 8.051872775723377 4.659582866780549 -0.4357976149625849 -0.6213137637929558 -0.7423276191748829
P 1.6730013309609142 5.955793693575363 9.215021293432816 -1.4836316821812576 1.3177878149688336 -0.6434920996622079
P 7.7312668924374615 7.475931437891154 5.5686254057915985 -1.9420555191837907 -0.5776795720427729 -1.7217212342329704
P 4.453501072909548 8.016900810974942 8.589114542215148 0.34068608126871647 0.9345913711417323 -0.9316099199159052
P 9.326786991283015 3.6158530210156323 11.244030509124503 -0.2861141595601073 -0.005016736488301037 -0.18069301641011462
P 3.958818946846757 1.5412757736889424 11.623173621855434 -0.4772132017948943 1.5803059323765556 0.04313256952341604
P 6.319179366228127 4.351560920663382 4.862985560017847 0.8276018550633554 0.3221245162164452 0.7116605291083292
P 3.5929426061257543 4.794881180120446 1.805810841901536 -0.7993413175557653 1.6635749649095417 -0.9883729357385622
P 9.005807974204105 5.158201554359434 2.156691868316562 -1.2890649931128444 -1.7129522297910886 -0.10047074112325277
