# total energy = -340895.86542713875 ev
CRYSTAL
PRIMVEC
9.02970107222446 0.00000000000000 0.00000000000000

0.00000000000000 9.02970107222446 0.00000000000000

0.00000000000000 0.00000000000000 13.21588025537810

PRIMCOORD
 96 1
Ni 6.44095797620732 2.1408879339792883 11.454454763468867 0.14160813459351096 -0.7857635788713306 0.9621026891881237
Ni 4.611883677900688 0.484948220087806 5.960190507692444 -0.04477087645778741 -0.6320478623810082 0.27674505964038143
Ni 2.6946975570267626 1.534480302481878 4.7757962286626325 -0.11890786478251782 0.48281897801744594 -0.37122050241214777
Ni 3.638147808850756 4.082562604023382 4.725192881168334 -0.11426985178987417 0.9770366847901367 -0.6077123709594373
Ni 5.175084190010468 4.506823106516136 2.5969998038550988 -0.08018036630533289 0.38806457055268007 0.6242144823795185
Ni 7.198089377154748 6.100240267565008 2.891859272889884 0.3622380964078794 0.055297229910407995 -1.3830917783829664
Ni 5.128418695131622 4.490804416904086 11.374233996624218 0.6118469619531011 0.6995156662156792 0.5382987562523052
Ni 5.4167551081485135 7.8658538270929 12.443531191584137 -0.101946811448147 -0.1636373464794085 -0.025020947524369813
Ni 1.8590077571927337 6.261023123952918 0.24543901237429558 -0.07295968018717756 1.436780269045358 0.4496625458701352
Ni 2.7254888375099013 1.5308413329702342 0.40622728658281876 0.2199175091283761 -0.7585304541869904 -1.2787456134647075
Ni 0.7004600943667151 9.05110141286924 4.655333696245796 -0.945105640409495 0.7054225186184174 -0.7104616237042216
Ni 8.547596254212255 2.3694657856362333 1.2224851698186905 0.6875597794053836 0.008203875967031033 0.3982211993707077
Ni 6.79038934633533 0.7811991660499961 4.88847515879898 0.2717308942552417 -0.9468038540475242 -1.2017775834490851
Ni 0.6755579848897647 7.5465545692734635 2.4927663530841118 0.5228752226083834 -1.154329931490083 0.2314720467351949
Ni 7.573959711873559 3.8006733975358062 3.828217597531632 0.39173739141857694 0.5932483730153074 0.30767105979527654
Ni 7.710669385338288 3.9810687645423024 12.554517955749066 -0.2670131770645982 -0.4372423178289115 -0.20735227086885577
Ni 7.728882292298549 8.972850023817369 6.8521037409365215 1.2992265070268785 -0.5209602649738576 1.2797915382307186
Ni 6.7836531893733305 0.5963033960544099 0.4193555688979026 0.36286955934429116 1.3963332167739049 -0.46506833890224425
Ni 1.8577706881527953 6.3896692744054935 9.215195460621715 1.0094775789276615 0.5960318492977154 -0.7350709376124696
Ni 9.218512069806893 4.867324890096443 1.3132002551904676 -0.8204503316202386 -0.45594272245189216 0.4787106122760272
Ni 6.331508970126344 1.962235299269932 7.120386090954877 0.27680188102024583 0.36988789964365326 0.40841896583931603
Ni 3.2826755687393967 4.179776365220296 0.27534899403774127 0.18013611546538008 -0.627802456841093 -0.13530147564919276
Ni 5.987161321673409 5.57121717382141 5.055629372227625 -0.13962221451173373 -0.30657731251046555 -1.4149251208434792
Ni 5.300434499590215 2.766357264332977 9.47139877958368 0.12106013523883023 -0.23354384166255907 -0.8480979181341782
P 0.14890970251480784 5.57583135104337 12.310103814440705 1.0236680114954306 0.04842955625629724 0.3995381184099184
P 3.914980382766321 6.0273164021157895 12.705033139105488 0.4852952074720804 0.950284870617589 -1.2874056031325507
P 2.311982708933693 8.549086154880793 1.3234119440756236 0.23589640105513565 -0.8175287870980695 -0.18180836096148043
P 6.3410262750029505 7.716502572198144 5.758792959080162 -0.4857569775998473 0.10609477217824954 0.09356501514235499
P 4.686505127141937 1.4319661067853742 12.720865816876495 0.8166826370476902 -1.5099973166589802 -0.05377667950082351
P 4.057938609337892 6.166707896783889 8.07804818921653 0.025970198811516566 -0.14222699912443248 0.35979349152212875
P 4.644544106495267 1.0698570364232503 3.7065125782542445 -0.02219581937074887 -0.4159672105002191 -0.18862512677299773
P 0.1781469714521556 5.592120931686063 3.6152566137912823 0.6435193533557175 0.3393100268567963 -0.2379435133921515
Ni 1.4621433675990545 1.1374082297647057 2.4549553830268986 -0.8981788939509693 0.5488685613483515 1.0067843483662144
Ni 1.9283197422333715 6.582615925831803 4.717858055028611 -0.35554268666557476 -0.6722406325498099 0.07355231946585397
Ni 5.98698072765298 5.603787305405774 9.237833824052588 -0.29908537500879456 -0.05007557650015247 0.5225947152534871
Ni 8.617251367891708 2.497199936285643 10.238672340718397 0.8838537355775489 -0.9559793498992052 0.5072120621498297
Ni 2.529986780694522 5.237723225996255 6.801499490472121 -0.4624149604397972 0.683859704845977 0.45568252681197
Ni 0.5891590966062399 -0.13044125501563938 9.047036241469383 0.2315314392182206 -0.6337255071937473 1.0795766497375925
Ni 1.489458213188936 1.0625700676989414 11.466599711342715 -0.5018099172976519 -0.2510903351867546 -0.6740686868974842
Ni 4.034036990734118 7.080107303608503 1.4942141567169331 -0.4148618932511823 -1.2838965615380276 -0.0773683507778345
Ni 5.611652174995455 7.941008028694415 8.201880606054571 -0.001699756299926105 0.2938647500398036 -0.9423933836846545
Ni 5.504433505066777 2.753733742304992 4.845179548341339 -0.2806585357621747 0.5418959866852603 0.41343235989350735
Ni 0.7951482481879296 7.388290999470537 7.150769228951847 -0.268770268965021 0.12405444198046377 -0.9517228886156964
Ni 4.981297776389163 4.231570730279324 7.41827141280195 0.9338061562362757 0.6238439864139773 -1.0811460511072413
Ni 7.950723986993493 7.082157045740371 9.274613602253153 0.6059838183041047 0.6483555984020963 0.2607754236850025
Ni 4.584505624403657 0.5461677870730219 10.593281341412107 -0.028760359962144016 -0.6210072882961304 -0.3510918499830728
Ni 8.289355834699851 7.266001758537061 4.97753690591373 -0.22680112362208682 -0.6413475425153793 -0.40613608334241025
Ni 7.10951703983536 6.0699817394421345 7.183028738821073 0.6808718258622467 -0.2099406004213223 -0.7126131228295857
Ni 2.357871649524694 5.199527590675529 2.417898393004976 0.3379555697114309 0.15407412827100564 0.846256236939749
Ni 2.379362337955741 5.249768847158868 11.22773612725224 -0.5618472329962065 -0.7554397310768086 1.3068822237999236
Ni 1.0843587362636964 3.39858984075173 3.5929351928662614 -0.37655014215517735 -0.02282445409368327 0.46128058972503777
Ni 3.627068365697439 2.6570437037673225 2.4145808808496962 0.49308230761666694 -0.14350663716780448 0.7807872087026617
Ni 1.3189052202958187 3.3415221302961764 7.962343406267894 -0.6872656452037326 0.44556446454136167 0.3933103923326517
Ni 3.519434329521774 2.493199778733141 6.9536544675340375 0.4504480178859081 -0.06740378336595489 0.08655258838026385
Ni 4.272114087865627 7.00184688485561 5.831242765225753 -1.1950909154575289 0.2856950697448177 0.29185620425020703
Ni 0.8119055673435335 7.420879190456944 11.310321772794405 -0.4302283484049236 0.28906758576147634 -0.0385115258116369
P 0.15801886490524497 5.576680142939385 8.11443156354225 -0.04998044568318489 0.026328353481883688 -1.03121651326665
P 8.704658873779328 1.5820848862669539 8.132564106163422 -1.2453940345874552 0.594393542363344 -0.2670080348582757
P 1.7427503565415854 3.1306786114453558 10.201350780456545 1.0120905910704763 0.198521045730471 0.4710466679728662
P 3.97226480604639 6.042603685945102 3.7478911831850317 0.12105293614997861 0.6634248340303929 -0.28712871686755065
P 7.0146690603060655 3.96328928323107 10.297694981445094 -0.8895572137202292 0.8483820250335001 0.6445390528694835
P 6.048156952073294 7.796135505506298 10.299796192872787 1.4564286394039045 -0.3323986444489437 0.5811847569825539
P 2.325157042723986 8.476144230029533 5.854079782079099 1.2654753787183626 -0.5000844499661129 -0.5378326152491641
P 7.111205593926371 3.9963921671757 1.5359756209710298 -0.29380330067424887 1.1225840065370536 0.7962979027437512
Ni 5.4429773599148 3.2008484180830314 0.5125962616453789 -0.37230422239462974 -0.9627503500744514 -0.5897491016127973
Ni 1.3378585627398387 1.0269208080662628 6.952848115232821 0.5102161390834762 -0.06264621407631146 -0.6030879848135485
Ni 7.1926625268408575 0.6360241478776593 9.480729169649143 -1.0465821970894427 0.05097391994470576 -1.2103306152254187
Ni 2.608066605426986 1.3584011325636338 8.96782048034842 0.3723582155610168 0.5176821084432182 1.5996899933301223
Ni 6.422158138680665 2.0222015437533707 2.6142465328060656 -0.8121153293919819 -0.062492204996950435 -0.5797539380732983
Ni 4.1082430737283815 6.7336467051165485 10.400342816716718 -0.14002459215647498 1.0277074716721268 0.19967675660146902
Ni 8.137367907106833 7.075619542200843 0.34722089931795985 0.11122258032311812 0.07376829213140199 1.0902760384329673
Ni 7.840381040511394 3.739677767135922 8.241198633212264 -0.3076970279372056 0.11513965598933718 -0.8092071546062515
Ni 3.0747305839164616 8.304977217466957 12.373050763231324 -0.22146454190052184 -0.11816430174827393 0.6223406623955733
Ni 0.12433898306534455 4.893574230965792 10.196011518242564 -0.39128487726219063 -0.3405359288440974 0.22937016990084366
Ni 8.618334932014282 2.277407983722567 5.789890346427928 0.042709880163700635 0.7662378501335773 -0.030097333606012685
Ni 3.6294522067671013 2.7516117625649517 11.380405797272376 -1.3276752492858748 -0.2741806413473149 -0.16647995813452618
Ni 1.0485740311156964 3.2809960443494073 12.365861315278048 -0.1357385631866114 0.4289047444974936 0.3666958750689168
Ni 3.192396617926956 8.30854394937043 7.870744313166117 -0.27905519583079685 -0.6332866198841157 0.3979682028196372
Ni 5.518890056402116 7.840814466160424 3.447798099438215 0.01473576354827785 0.019777953957875617 1.083138913167554
Ni 3.0004432336130056 8.375490152743447 3.50385990119998 0.6476140922503815 0.1134661249416562 -0.08891440374422106
Ni 3.550306877314106 4.319185919290438 9.399160268441989 -0.7191396110941938 0.2800666678144467 -1.0315710683925914
Ni 7.208771513463121 6.2161545395773405 11.576278071829636 -0.5658604679206577 -0.501982181209458 -1.650047876957384
Ni 0.28759868644343817 0.06599447288535783 0.5324597979523611 0.8229090775733763 -0.1679503720324656 -0.4768023395097208
Ni 4.771998336413011 0.2884637318012929 1.5657781491923202 -1.3248670904131183 1.5541518996890074 0.09693855960027821
Ni 5.935971946582819 5.5901614865644085 0.35002010663460886 -0.029014384954479062 0.6952972572589574 0.669479524864905
Ni 7.677756125115108 8.691349094473713 11.58722116649753 0.44541765455085225 -0.7241638037816626 -0.2313136667804597
Ni 9.011172074952395 4.897863338950981 5.728833314061099 0.4997363225980748 -0.2610595305843246 0.7824861936716394
Ni 7.819287658925291 8.914039581064674 2.6309514796957454 -0.40897226723962465 -0.47694169330106245 -0.15216508417375083
P 8.379093003451006 1.74090829753321 3.5445919795376315 1.267697840290978 -0.3864391191341151 0.7705441908184149
P 1.7569450465473022 3.136520828006233 1.385512809880533 -1.2871790889440413 0.9068391407291285 0.9446168736985344
P 4.703002390908124 1.039083815342154 8.29595203129602 0.1266049763164594 -0.2629248659278375 -0.6223128944814315
P 8.435898852576939 1.4903070050849523 12.366006693464492 0.3856433627056971 1.295810025146162 -0.42425233332714685
P 6.25518090739204 7.733866687262389 1.2744745764197818 0.749738052706341 -1.4057856204360564 1.4971649407810022
P 1.9421080956931234 3.4389887231216902 5.78574029583847 -1.7096072245782559 -1.0434621634032222 -0.31197688625948206
P 6.9095633404164065 3.9619348280778532 6.141524963605172 0.1215314184482939 -0.3686457997064361 0.14017885834615212
P 2.494165956742436 8.451592472952216 10.247924172384973 -0.5207705175605547 0.011913206497818194 -0.6086698497767
