# total energy = -340890.4813171477 ev
CRYSTAL
PRIMVEC
9.11243167307021 0.00000000000000 0.00000000000000

0.00000000000000 9.11243167307021 0.00000000000000

0.00000000000000 0.00000000000000 13.33696485224829

PRIMCOORD
 96 1
Ni 6.354235190841315 2.2140930504788634 11.266107334810906 0.279165496156416 -0.1465924751819798 1.6015072490445192
Ni 4.992573660066519 0.6117065935466016 5.676985611044361 -1.3403322759282528 -0.6585608210698722 0.1298990736866989
Ni 2.778189011778765 1.7045441043046599 4.718231151516517 1.229207911745896 -0.8251063423350113 -0.588106938023684
Ni 3.6441798295962697 4.659605412038953 5.20631120901111 -0.2039411883047778 1.0686702872377338 -1.8991458643044583
Ni 3.5498752757145713 3.2277508212051447 2.9054176920137307 -0.17545567927057523 -0.3334376272364193 -0.0856241630287235
Ni 5.484143778836279 4.758138134149575 2.8330777430867573 -0.4762953179663152 0.2749103204244878 -0.3802921256961128
Ni 5.336349251886112 4.690615016528221 11.529485765746601 -0.1346846680008003 -0.10894021204684463 -0.38730763778199745
Ni 5.627719249989052 7.9375839558255965 12.241840076761438 0.9407316797115153 -0.013604992377944313 0.003606743514651853
Ni 2.066125387329668 6.354052942210758 0.0978383548281982 -0.4784717567923436 1.2483343481627018 0.021660515692569146
Ni 2.5379124172524694 1.5525122966940441 0.20170913932783177 1.2357845365221494 -0.07849423685216159 -0.5335342449841264
Ni 8.152108818854193 9.162276528305311 6.841462324744902 -0.07470545923369071 0.4098978643776876 -0.0763810471639007
Ni 9.028697394538586 2.1419681549359466 1.0440240375496823 -0.2780290685591276 0.5345277192456471 0.7067492078496409
Ni 7.077816928741612 0.911306939805493 4.583621401743994 0.6385823210654163 -0.5408649743175847 0.6005521057655722
Ni 1.049542526082947 7.431233473117668 2.1323135337321917 -2.3018585237876166 -2.2846233908562525 2.592954452833031
Ni 7.7721204241429325 3.7916280841483783 3.407914527428533 0.4366944157452415 0.3122669066960751 0.2873650012480728
Ni 8.058387460590279 3.7861150630740297 12.74452371702256 -1.9585463177499625 0.6440243180165941 -1.214030175564193
Ni 8.345383491559849 7.540591763883371 8.874055786538394 -0.6680487059556495 -0.6900794605034437 0.7084867593660379
Ni 7.008589786424551 0.48225630250514595 0.2769249716449946 -0.4970688030682407 0.2167997894350008 -0.8735582671888117
Ni 2.0392983889116834 6.545459566453205 9.099037164745198 1.198868123111774 0.3742826862772393 -0.5912645098160592
Ni 0.09732167996056922 4.70243384021984 1.3134549455061748 0.15393683136219297 0.1926360477046037 0.1292822660383064
Ni 6.427836300291744 2.2289098641431444 6.846637274609567 1.0856909901654463 -0.16258370840391353 0.6192517390576044
Ni 3.468492149739361 4.351432090198663 0.21296754848048793 0.7549573921237515 -0.30794488228195355 0.27772542127577976
Ni 6.492142729583766 6.007252023123919 4.761202644872389 -0.12879761309240398 -1.2075638511135591 -0.05342880924310153
Ni 5.419290603652584 2.8588887053893863 9.167162614090543 0.3333021300998195 0.6056678297255828 -0.06421870076975393
P 0.2245339578187854 5.640403754675815 12.474330098547188 0.7819406055808146 -0.4838235080225603 -0.6543940912866923
P 4.214381120019829 6.20490977539447 12.66063376113404 -0.08511996969879534 0.8177743274499722 -0.25649427981114536
P 2.283657352762455 8.449556808786207 1.1005120005908118 3.569311337947324 2.4320640729711402 -1.9845134312376855
P 6.575649052104965 8.096778134617102 5.838789590225441 -0.41853137168296944 -0.1396525535290369 -1.5118991616673834
P 4.656115350763788 1.320117955439337 12.510273173465631 0.2367831745354632 -0.609791364975653 0.35811353271654456
P 4.281512403085485 6.274218929595282 8.11839737841692 -0.6658609542757113 0.4385702926117157 -0.33360217783874163
P 4.791826793508028 1.368678103051239 3.453460282691023 0.20347324752942378 0.03884654055355245 -0.008247327610456765
P 0.3361193268498951 5.6238100168636045 3.376185952091719 -0.1353701241035991 -0.6411320840704635 0.5831740194984408
Ni 0.7141476375395158 0.2785251146212847 4.45766663943662 0.40372490279775625 -1.3916131855904164 1.3516996372249301
Ni 1.7782819002280057 6.698685102593968 4.724953392254609 1.2536989549087247 0.04924022508305068 -0.5121871467669179
Ni 6.190165861182412 6.0875963319049555 9.285275217825049 0.1771685481966239 -0.5033042424549913 -0.48495710740637127
Ni 8.659015159885321 2.598054465336266 10.1419877578609 0.8729286040246127 0.05223041805962617 0.24546681835239018
Ni 2.3100469544671025 5.4275373541852865 6.86461610201401 0.00857077238814653 -0.1287294788586299 0.9515966474504772
Ni 0.6443327433889084 0.09002626727937413 9.103305427672842 1.3705555935891685 1.6866822403509658 -0.06430406139470861
Ni 1.675338761257907 1.30710540321757 11.286646755474678 -0.3474750791660919 -0.22575468463544346 -1.1425164837949227
Ni 4.141818827763576 6.822632396235757 1.5718142491563318 0.6682291973975717 0.7956047333314684 -0.323075824386121
Ni 5.690212305407033 8.324607147676357 7.878477991206516 0.2517482804857277 -0.26959096509410346 0.6095579088086083
Ni 5.2597228151684385 3.1789173006474076 4.746452351958262 1.5290746450054054 -1.3123435040248106 -0.5318743407832001
Ni 0.9177494288956816 7.77107249451723 6.820363400785323 0.4771350402587912 0.7674575814732911 -0.43380552423322066
Ni 5.686312184713114 5.023701726165648 6.728244919227155 -1.2123409607872282 -0.12224541379618303 1.3309356652047013
Ni 0.9807436680476946 7.290364394128666 11.078963506037187 -0.7700569667693513 0.3185002892002966 1.2563603037909719
Ni 4.31888248478119 0.45764453619158135 10.111659763249914 1.834738958783298 -0.24248305313371787 0.984871093232891
Ni 8.551051071143378 7.235398207152687 4.6327410526517045 -0.5167007183665553 1.0473959512399897 -0.1316026866413669
Ni 7.502228427151132 6.494530186644062 6.926992518308436 0.5632163454295913 0.4153033516639751 0.09171742041065495
Ni 2.354852780289531 5.328512560772163 2.249519450529678 -0.5215593320104372 -0.5704144058399273 1.1249705044913592
Ni 2.5422317097966687 5.301065917010285 11.33968748566882 -0.6489580078727856 -0.06511293044924915 0.10274282498688113
Ni 1.2556475023798126 3.431185855064351 3.77542800337817 -0.9607649442133067 0.592569858891044 -0.44302267195611444
Ni 1.6789108344168233 1.0731437237400732 2.3575482375354686 0.21765339568454775 0.5988922015646461 0.5895698957224556
Ni 1.021011502969255 3.3668794257723276 8.093016522882404 0.4500440975792701 0.5324574669801797 -0.2548973676376707
Ni 4.200694247865002 3.2183650167314615 6.9845420796225595 -1.7436015792458295 -0.9148833511898438 0.5067505491323789
Ni 4.252079249250536 7.193854631817228 5.97772045502847 0.3009764213839204 -0.790260952521052 -0.6964635096529167
Ni 0.5188891884902476 0.02623651285497991 13.187883605551088 0.95546898592169 -0.762218444561539 1.1579441312039025
P 0.42580934540589166 6.006495691307109 7.791867974506933 -1.2337973308887913 -2.075446150963516 0.556957251893757
P 8.489751744255546 1.892879839122222 7.883013248377926 0.26509641965785957 -0.019993669513107503 1.2313298431849051
P 1.9651869832956956 3.5604548087184025 10.237333862666231 -1.641580462916321 -1.582017515751024 -0.5242235091061617
P 3.759096703593961 6.282994201156599 3.6921923200733477 1.1784365947302995 -0.2107381566219532 0.29346571482917205
P 7.157013071150138 4.171388668071442 10.444003809717822 -0.4006308372534649 0.4791867805814973 -1.2498194173486605
P 6.705975047816247 8.059699650730288 10.213487540601006 -1.6226340037208054 -0.9337112825296242 0.2115079449084422
P 2.6429605279055006 8.675936945232536 5.6150092304940085 -0.8447595977895644 0.947876775396729 0.170236596963481
P 6.89472995448409 3.831185149410766 1.2657823487250852 0.042310073622120685 -0.6015826039126155 1.2256117097542054
Ni 4.984955667309238 2.6853971215306887 1.0172653823681566 0.5720717389376923 -0.33411588425036653 -0.5894914770760363
Ni 1.7403924099352137 1.2730340217349465 6.878432370696534 -0.8925934294433918 0.015452072889012097 -0.05940405298992995
Ni 7.028992520615403 0.904277610124911 9.356333958879208 -0.08989425115898712 -0.3923994504826081 -1.1523954334715316
Ni 2.918383770834706 1.8674470427279983 8.904864917534049 -1.4375112336741114 0.7258972415330015 0.7819927989749886
Ni 6.850707797773056 1.6713475162487095 2.390464162700361 -1.0702119206932408 0.8191167004104797 -0.7010331313014702
Ni 4.061629430318514 6.829412045292476 10.471411270024133 0.9335865840263019 0.9863309656078691 -0.377513277399395
Ni 8.241055262997518 7.07363432267033 13.609572309420086 0.16948917727449522 1.1489905215550404 0.05032111685205528
Ni 7.8057817462068035 4.263123516262288 8.037535483525103 -0.24277024535683348 -0.24334360136180025 0.28633398888039724
Ni 3.2894237577856202 8.581969551317368 12.425316151845198 -0.31034346442111715 -0.37346970345764063 -0.3118146496500049
Ni 0.24467152025217664 5.197147747866706 10.00165631233204 -0.6405962661716516 -0.9254626693675868 0.19427923973498154
Ni 8.745647046420572 2.4336570881423603 5.7398431637234575 0.907883779943559 0.2433927094321808 -0.2848221802215611
Ni 3.660655105798619 3.0578768726630026 11.525311360863695 0.34264243366413893 -1.4124157241580644 -0.37443643824628414
Ni 1.2564858460803747 3.4286252618050255 12.491894310317115 -0.017921103254794943 0.5701269565064955 -0.26829230088733796
Ni 3.1545871084680535 8.534211297679915 7.7959621899923945 0.2872099637274473 -0.12257091545640181 0.9505913461144145
Ni 5.740622276619088 7.918566311226978 3.717145802569207 -0.5951597311054072 0.9205750022579823 -0.8424744012998135
Ni 3.2460394712815357 8.51899353702841 3.431627807993452 -0.1375157096916922 -0.1650897626552189 0.4638586348648591
Ni 3.587136008231941 4.396848448933458 9.144316837007073 0.5041282810181833 0.8449092359935514 -0.34835105401314204
Ni 7.3733513080527775 6.104718590745781 11.543276519620848 0.2838790995820014 0.4585711612136748 -0.4917993271391853
Ni 8.456382020000566 -0.22036593163794774 2.290050634722393 -0.8763116615642327 0.4348247095263543 0.26919527231758156
Ni 4.483170512796761 0.2846814733614988 1.5082103883351057 0.5900458069176097 -0.22790361265764622 -0.6579895219474344
Ni 6.123891146680374 5.660733589414445 0.45400503103935885 -0.3361851080745694 0.4954880888446821 -0.4336592284633434
Ni 8.32801519706777 8.91265057903144 11.31664123509174 -0.6994714432413051 0.09602453242644109 -0.47833625965574395
Ni -0.03417617444519385 5.036422680578524 5.69909874863299 0.9775383070169037 -0.5212901375094506 -0.3907518875768561
Ni 7.519296011402791 6.230816418228142 2.434102686044072 0.215408565514429 -0.26003314620233925 0.8699085862513664
P 8.856518000819898 1.7499149008818151 3.349845557517322 -0.7559061291902659 0.22218470789599798 -0.03014747011765776
P 1.9195245889096495 3.261548829741933 1.3295620794747987 0.05922407576863993 0.2281697218348393 1.1340380140102662
P 4.644597237312588 1.2116526829633625 7.918169009212364 1.0463276578764755 -0.24309806100989745 -0.3928205971804267
P 8.533691889082828 1.7254297973664874 12.313072865257778 0.20566588430536836 -0.4700467659534421 -1.1716149438227759
P 6.528483106516824 7.92766051789177 1.6160268556862973 -0.8918658072487479 0.3500374405766294 -0.751797506338531
P 1.9611228388342754 3.3200324152876615 5.866290908576486 -0.1826020605073694 0.5652176921303362 1.2971811944620757
P 7.194674750654735 3.9762732841971613 5.632947051956577 -0.8633283619306873 0.07343276316885418 -0.10417955743340768
P 2.498892985450224 8.500741336678129 10.189241182791706 -0.46814055006966476 0.5550664626289472 -0.4094036983500885
