# total energy = -340891.75228170294 ev
CRYSTAL
PRIMVEC
9.10462681298619 0.00000000000000 0.00000000000000
0.00000000000000 9.10462681298619 0.00000000000000
0.00000000000000 0.00000000000000 13.32554165058662
PRIMCOORD
 96 1
Ni 6.3314757625996645 1.9424356864878687 11.607465809596466 -0.750547950202146 -0.2787582334156683 0.2525314385086554
Ni 4.845072617920898 0.1514618382801001 5.94870815179076 -0.020043034693804192 0.04522621882765114 -0.05250038389156119
Ni 2.9875102614670577 1.6610116754009956 4.890847039083639 -0.28928124443417924 -0.9255894247534383 -0.008634021525914163
Ni 3.794790196473197 4.527275623194683 4.776939964987658 -0.6192260280259916 -1.0840244010963007 0.7702271737986284
Ni 4.934771400102323 4.680661269095056 2.42956599123027 1.031811209427855 0.32650824710643767 0.928450291241001
Ni 7.303840788806943 6.247849766422605 2.694184682366831 -0.7512007532947966 -0.4700750480882162 -0.8748574456162095
Ni 5.280191832215713 4.529624616881528 11.894578391441252 -1.8122592896235432 -0.6919663931135115 0.6053713815310864
Ni 5.735468690009278 8.028405190305342 12.477397412266535 -1.177194237682766 -0.07971731062598529 -0.8018856812441738
Ni 1.8429312213578644 6.630407970817565 0.4310749391176953 -1.2214195260497287 -0.15883452577412643 0.08708069296959196
Ni 2.727591378629527 1.7309807315382528 0.335767706893257 0.01461337903780064 -0.20136622848874997 0.7785801737490139
Ni 0.45802645505491174 0.29129979966098923 4.711938393174212 1.3094949788324222 -0.36369154102495427 0.2857423780429853
Ni 8.630703559940732 2.4731170625545325 1.0488721147729234 -0.6076668624334826 -0.9993597737673693 2.1403639346828234
Ni 7.221689742154182 0.6946502400352152 4.937765911821717 -1.3430941549441062 -0.338359747128385 -0.6823142147357281
Ni 0.8456413691152768 7.641531392857805 2.560170040218914 0.12118174841835905 -0.155730432927506 0.3524781888076381
Ni 7.644463082653016 3.9704457592651425 3.7426379843118665 0.6754413988752949 -0.056247252528503135 -1.1172062871649082
Ni 7.706920821768382 3.8059615734257557 12.5235569591384 -0.2398232469133676 0.9991615417136341 -0.0007299361874890654
Ni 7.838774025539332 8.639899232900868 7.132243158132158 0.3753088135489085 0.7217701067385053 0.179334188389375
Ni 6.685509171564824 0.7467833324804897 0.3911028965465307 0.709216695553527 0.09954411554392534 0.4219717648230862
Ni 1.8466823275554636 6.74358758524076 9.050268429992881 -0.37891864238735384 -0.3694659816148863 1.284491514809549
Ni 9.185384731970677 4.766253864637848 1.5841668051850324 -0.7603299692895744 0.6718238567273656 -0.7730327615682235
Ni 6.458594560490151 1.934514661264783 7.106630932781512 -0.2824588221957071 -0.12449024396630172 -0.3411673917805092
Ni 3.4089998496021496 4.4295738741499315 0.6636981511290058 -0.6559866325847928 0.34957464200759797 -1.4807713299143273
Ni 6.027353917166639 5.559184907975501 4.894937747856896 -0.24034338108289574 0.19747434963351151 -0.29785741613896444
Ni 5.2885680887734585 2.705394298751501 9.386711700186774 -0.28328594608269275 -0.07531172535912191 -0.8380695873638986
P 0.04903387751890856 5.661757632301115 12.603656733397182 0.16571891159878557 0.11446062764444158 -0.052381856035825916
P 4.115273056073907 6.252893729610639 12.545490915304994 0.3830815155157919 0.42275183752222034 0.6695165487504275
P 2.3901465994993822 8.66234213769961 1.3103861282071023 -0.1720489675818714 -0.08788133449401639 0.7240221359974757
P 6.424789081578292 7.571562336720548 5.834401384582948 -0.4052295123677408 0.282270617444301 1.3936063047610452
P 4.648567460001519 0.899294934218316 12.720202328308854 0.29864365948568566 0.6692203576662474 -0.455124597425971
P 3.8802006994821245 5.825404192484727 8.19775306772424 0.6428408392314541 1.833760654030429 0.8402295711296948
P 4.820918043303832 0.8906610167251525 3.744170292984333 0.9264787693369269 0.4647677769426899 0.6284987115771693
P 0.03723610224985744 5.787374166787222 3.532774518108223 1.888536207109412 -0.5151410871889193 1.0813332274173828
Ni 1.5694828632542361 1.158281503282462 2.702926034454974 -0.488857728012358 1.088931351479615 -0.7132363582358813
Ni 1.8481663817064555 6.207825827479289 4.802085122988944 0.6117297196489465 1.3769638111083575 0.17192375485791683
Ni 5.9033215877251495 5.656495158072444 9.1925182069848 0.7172868741561711 -0.29607127077281914 0.8144434633045263
Ni 8.180616339362293 2.4076912151371825 10.238186403624386 1.5544702022603745 0.9317875831443501 -0.10183599690189557
Ni 2.1332959758574614 5.2104321824924 7.224309143253817 -0.6116330461700821 -1.2274839870762537 -1.0919405706195837
Ni 0.4611921337561381 0.27517641624999784 9.529640682330006 -0.09631506708366637 0.510573779533211 -0.8555841992088944
Ni 1.7545344007935662 0.8689082426297544 11.56908889762195 -0.9671759899459729 1.9503923211842606 -0.6941117215912884
Ni 4.0917193868185935 6.795392911125079 1.4631308083882746 0.21296241796678161 1.340246401082666 -0.15293487246023982
Ni 5.556189485793438 7.843062304711831 8.145836665394262 -0.20225865839603233 0.4227945178346977 -0.9835809136665575
Ni 5.519115445898719 2.6983746315710424 5.009257261542078 -0.6801593731762544 0.2862283165404683 -0.5741054815382692
Ni 0.9338069321615674 7.436640873753987 6.934385052686169 -0.5239376024346266 0.24774790107708297 -0.6528226330345144
Ni 5.193279065802407 4.495200023354532 7.198617707650939 0.5396236457113158 -1.1541602386814382 -1.1282100944745797
Ni 8.434426017688684 7.344602202512409 9.198315122800363 -1.0341951362789996 -0.31619915187094577 0.27327715569643907
Ni 4.7152042227690645 0.2907899405661699 10.408686926782641 -1.0950973710810108 -0.5988009274024203 0.6606727252065525
Ni 8.34256943898097 7.400349831754884 4.855107737462144 0.20550081948241383 -0.5768470488391485 -0.24889409886638428
Ni 7.468652741207285 5.931955638675269 6.95025623793776 -0.24806311832465663 0.9864808609221719 0.2867857317058351
Ni 2.242396717522101 5.467920130002844 2.531586064715606 -0.2559438066243141 -0.44077064269714405 -0.06218804349297032
Ni 2.347263807774401 5.571184805957141 11.681928909469487 -0.6962380239056718 -1.2199835649341504 -0.7854149372826602
Ni 1.4970555579098144 3.629450175724649 3.99994110790044 -0.5015715760346007 -0.4596659369397503 -0.9318575171503372
Ni 3.8753479334546483 2.62136769899994 2.820337479365168 -0.8408533207566229 0.08272627265563817 -0.40530330302846973
Ni 1.0642853373018448 3.129123625053121 8.585979812698385 -0.5624118472504249 0.2623031731834386 -1.0160719443157276
Ni 3.75115172073268 2.4004712461694737 7.172672252963321 -0.0011207438680045213 1.1439475598144944 -0.42537847651179006
Ni 4.21417661584216 6.804716048858918 6.261738874443085 -0.25013028526633047 -0.22733976973437622 -0.8922015933216119
Ni 0.6569752947787454 7.465775679172234 11.432834517307505 0.5802858993173683 -0.22192605491797263 -0.04310377316800964
P 0.07055266270829143 5.544899748693867 8.353142641959787 0.6874263391513129 -0.6892045140976583 -0.8756082077393049
P 8.350654347484534 1.680003926683015 8.059433758075775 1.7884681007412166 -0.5341698216855961 -0.1276313606984447
P 1.8054019501284857 3.0934243837890762 10.642710430379367 0.9928798224699804 -0.5965661245346306 -0.11404950824895196
P 3.8999486347796797 6.296677879378247 3.6391120055714747 0.7249009390580031 0.4127610448580956 0.9496976306555515
P 6.58984685889935 3.924494708344552 10.479179498954757 2.180924372603689 0.8745661396280356 -0.9627660338037356
P 6.384810665768442 7.863884585959184 10.087341859034085 0.3761580489230812 -1.9942777097133009 1.906338011177523
P 2.4953960840727976 8.621890281301713 5.794824482810269 -0.6597741246516831 -0.10188381942069549 -0.4984008916161029
P 6.676131406070827 3.996585142501326 1.330804164029277 1.7416264577973295 -0.02821451476100302 0.3061312261119824
Ni 5.05765654658047 2.790813906387122 0.6154909737138399 0.2416361317523903 -0.8475132492753017 -0.7171845442503518
Ni 1.3890564760750526 1.166612236706742 6.888851904130797 -0.5210361125171156 0.14249130852941266 0.6752773624936048
Ni 6.824773541464041 0.7316468906030414 9.402302462936213 -0.04181050827788283 -0.24130420233426825 -1.9961988379954139
Ni 2.6517316290217683 1.398670961863074 9.172463445767685 0.8572551591534138 0.3078412668245537 0.7983342164474896
Ni 6.488494154550627 2.080079432835696 2.599453773012072 0.05572069060107177 -0.4272504967235222 -0.04664623910362935
Ni 3.9531196546679794 6.81911046366087 10.260987120252173 0.7908613051092122 0.6024187266606658 0.35384807257197126
Ni 8.007883361738866 7.582606248899401 0.1900581717579219 0.7883809618895197 -0.6853483735763616 -0.20509329963135
Ni 7.628265951765809 3.881484451845866 8.138894387540695 0.34619287001955856 -0.44158876772306527 0.7518219318185633
Ni 3.060911761867652 8.316967228719687 12.549808329282909 1.3785409257874903 -0.548493694507436 -0.44334097452748167
Ni 9.49421366940409 4.730672983520814 10.41099221826136 -0.7741699604964603 0.604462753673888 0.4653416471682889
Ni 8.766799519750716 2.538588433105348 5.599965441397022 0.7487823736612911 -1.39247630492166 0.8765404897455871
Ni 3.8254636838025946 2.586979523979716 11.506498230956863 -0.614169953659323 0.09750394518544499 -0.12591746333113152
Ni 1.0696297531707546 3.3648879332735864 12.747199367379537 0.47594076284037384 0.7943533774228707 -0.7095553098398683
Ni 3.124716985733611 8.430319831050051 7.8517554022785 0.3111788158382189 0.11765290932949417 0.4405988930059702
Ni 5.802160080536981 7.833001692215841 3.8229517172979404 -1.3875004489736233 1.0104162886918469 -1.0777390823082211
Ni 3.1153028017328404 8.466346838875051 3.608316516244389 0.2511854660037222 -0.5195556713168472 0.2881941820175875
Ni 3.4914968720692525 4.120490007169111 9.449327859806603 -1.0107947550771883 0.27317996799694244 0.34468517512578056
Ni 7.096583066762894 6.175203950037546 11.569781759713301 1.4473217920066301 0.09914430900234537 -2.027703336361598
Ni 0.5817373911741323 0.2397594184134422 0.22850518935797523 -0.3172772154264729 -0.5836422173841109 0.5806851916383161
Ni 4.490583977621078 0.31795541523067666 1.5762512427379627 0.29410386263380317 -0.6307563972630944 0.4745397687277892
Ni 6.127841681979509 5.860930445841602 0.2748950832851779 -0.17696903059130814 0.043282464837719005 2.0016158952459273
Ni 7.927917425492472 8.940124298109202 11.298219880260506 -0.1681300921434395 0.3043980454709596 1.2930720573897085
Ni 9.280528080914637 4.808007682652872 5.711579970491654 -0.12504251692534593 0.8134561596905926 0.39437225793826275
Ni 8.029370280734822 -0.20765741515588132 2.2947119025012395 -0.35778417440158383 1.1370096950440804 0.9094639799464852
P 8.565550851324181 1.8831645667151238 3.5163306518376305 0.05007557650015247 -1.0743035742641112 -0.7851902228663639
P 1.7590138771266217 3.334423852358132 1.6762327903066905 0.7482946353915951 -0.5804689618624519 0.05486554168962809
P 4.778663470820682 0.9115097013899157 8.254133468521891 0.14305900810742458 -0.8861397033982481 -0.5140830782380501
P 8.576713123650045 1.7280035186095757 12.348312925472987 -0.41123406669060786 -0.787851828858927 -0.24280881190425282
P 6.268480850509401 7.745160253879829 1.5077580465876732 -0.22019338849758205 1.123330654895091 -0.4253314253239385
P 2.032161782549374 3.251007262595016 6.066918982924618 -0.6799567702471451 0.3520842958033291 0.5651760402591235
P 7.181092211729195 3.9264886215903636 5.843636207437863 -1.611902219125598 0.6734017427374468 1.5059424298633162
P 2.464895584650571 8.519007999668531 10.192453863744433 -0.24107743103544285 -0.3069246685475553 -0.13691715687574485
