# total energy = -381170.02036263957 ev
CRYSTAL
PRIMVEC
9.19917600250725 0.00000000000000 0.00000000000000

0.00000000000000 9.19917600250725 0.00000000000000

0.00000000000000 0.00000000000000 13.46392394662722

PRIMCOORD
 96 1
Ni 7.99103888068691 0.676893756907066 10.196418020179266 -2.169167746288393 -1.4154272572908784 -0.08775072245342307
Ni 6.978255616210768 3.1862817401657044 11.005814866099106 -0.8635142526892484 0.7613460692589146 -0.5559509221164296
Ni 0.06031439641707454 0.8351048627317309 0.3254107263658893 0.7634705718010851 0.5296958450746426 1.8648380921615237
Ni 0.6423287735931766 -0.1959976405189034 11.62941043800484 0.8019178200336898 0.6914334034281769 0.094658762427166
Ni 6.257996944378043 3.037917432163786 0.1891470142683436 -0.1398674977533204 -2.8310501755323307 -0.42450327299568824
Ni 5.574029021247422 7.5675824182647675 13.051913955533797 -1.5800189972637564 0.7081365751154708 -2.0128603578114945
Ni 2.7524946032714546 2.4960767758132776 9.50105967751938 0.389296128966936 0.05986479467643239 1.0638391843976776
Ni 3.44948855939629 4.937004492445535 9.111656724234237 0.2707854996228369 -0.48476350333832646 -0.24431907790119217
Ni 3.871979108354878 6.167090688693831 0.6135252341099917 0.6828631452606627 -0.7508333426530488 -0.18160627225300335
Ni 6.172904567826842 1.6543429869688122 6.656846531336746 -1.006315893370228 -0.3496204076438688 -0.618281147614219
Ni 1.8593466206383775 6.049700005756549 12.856350516114702 0.04340407801724783 3.564099197618765 -1.0192251452327286
Ni 5.0479097564132385 8.289055381308819 7.328710178892656 0.5897344463247779 0.44612650769241874 0.36758419121114116
Ni 2.3480068414383473 -0.1174817547781312 -0.209769726674017 1.2910717391302282 -0.12260973911413724 0.5193101309649443
Ni 0.0027119170386263364 2.4429147386144257 10.329898981584192 1.0208894203090288 2.5776427621766254 2.996184932492872
Ni 4.873300199730177 1.6855097947261597 1.3823279568681965 -0.6051188992006482 -0.8197527913325817 -1.0478240399163437
Ni 1.2143372072044423 3.3947718614799083 2.6339742615406063 -0.292827824134857 -1.2614798844057242 0.6019219895299054
Ni 2.9440306435063217 5.15504335828516 6.477224343736631 1.6472109217292212 -0.739220698114785 2.4042830462031306
Ni 7.689453099837772 1.6534966627912218 12.516291942053408 -0.0352451963555393 -0.1720602804357811 -0.9818929844411733
Ni 2.292453018520218 1.986635616783129 4.843484750904221 -1.9182489036824966 -0.9604183595071653 -1.1825231060948473
Ni 7.354115542819299 5.146865290960401 5.618454601147824 0.823178272074363 0.13698374844762215 0.6643727997659591
Ni 5.503075777967488 4.320724105170452 2.697349223760771 1.9614339237104028 -0.8862392050905898 -0.7084885591382509
Ni 0.44642588458546 1.3334757335519647 8.573691680666542 0.6012288201176227 -0.9474466298378456 -0.2573023775347375
Ni 1.7793505875044069 2.2243239222241984 12.24087413680833 0.04274227606353284 -0.08040508072162927 -0.036392679696421196
Ni 2.589696788371284 9.237812381915084 8.976169422577872 -0.31361956406922764 -0.6782598421606963 -0.7564853987325036
P 9.32253679143255 2.6636213654486283 4.492844364870297 -0.9992199057553952 -0.06781078899638644 -0.21746416249187708
Ni 0.5354297507052617 8.06762201958299 7.569484807829177 1.3274595337306427 -1.2702044087629156 -0.29945484253307136
P 6.5267416674663385 0.3048422890976918 3.1524701693533874 0.029038810434511283 0.012724903765836149 -0.16627555543320396
Ni 7.6260523799252455 8.41809222086381 12.205369917640834 0.062408901254524786 0.21146655014754548 0.7159475865194573
P 3.2642171579107595 7.196966021886959 11.669047846878765 0.8675166889804221 0.27358954473053526 -0.27780281148093444
P 9.246183631932553 7.944049490478961 13.579174838090145 -0.2959987656636709 -0.8568198713882083 -1.2812606665770774
P 6.424345641153755 8.660803276315361 8.966946328877308 0.25463511511521947 -0.0038759380156384864 0.039597045566331805
Ni 1.2123961811014903 4.647966387446758 5.099219079597235 -2.663891703273541 -0.3899221925867091 -0.29543389429913636
Ni 8.170993158534971 4.201015229920641 3.1269019800143165 0.2605303975537319 1.990133348527624 1.3024959218067698
Ni 2.541069944863214 2.699590142996217 7.181374338750027 -0.011198696929296842 -0.26646193254681855 -0.24156876884956457
Ni 8.633950882028556 7.48445866534405 5.538196391502316 0.06933468184008058 -1.032826280955931 0.08263679826562542
Ni 6.850479063746318 2.9277481022635516 4.8340739940164505 -0.0716515028987153 0.8076788908871831 -0.7317953521849914
Ni 7.382145431614057 2.288672157248592 2.2789983039317008 -2.0611986399055664 -1.7486190870650786 0.39142397394321615
Ni 5.607265643569528 0.26860673545064584 10.957641541960117 1.4628967636267516 -0.345719787037882 -0.24449776957090147
Ni 7.596440232885429 6.841031510155174 7.84754185662372 -0.3773739236080533 0.7592675894633312 -0.060771365651101784
Ni 3.2131341344525097 9.51939915448073 6.319440999588683 -0.8514601497381916 -0.6288761495212459 1.540397269107076
Ni 3.9428311607005364 8.078817416584373 1.74794000158721 -0.08352382885626905 1.3447759135219035 0.2619769001922714
Ni 7.823954249843728 0.1624068499268272 7.174898118956292 -0.49236471272435206 -0.9406509470722509 1.8827861919995124
Ni 6.624878475363441 7.104698288177929 10.607229295487107 0.6645769453569652 0.24052181564228897 -0.8559289841428227
Ni 1.8854814792094001 4.455252852703938 11.030924936481178 -0.9165175443591571 -0.41659635944378576 -0.31257029686910687
Ni 4.893584382464814 3.4204191637312316 7.6139563836087945 -0.010968326086045628 1.2888436211306578 -0.6343795958379785
Ni 8.23568176306557 3.7459320009489825 0.8451209253899953 1.0542003757563327 0.6531350220686106 -1.3320024159063188
Ni 8.283894643660686 8.088522547099133 2.4448870419152446 -1.3159836718805593 -0.1351675211744898 0.20648195244876055
Ni 3.1699072071645005 4.102823226968478 4.403699751360092 -0.2281977468592973 -1.045239052797987 -0.7217973604320149
Ni 5.048047744050889 4.859694618657829 5.208492409770325 1.2087627565176666 -0.6245662092919825 0.14059203462417078
Ni 3.330782394313406 3.8236834351771702 1.636822236657524 1.930719011125049 -2.386445760911393 -0.12282828288284654
Ni 1.9809229285843941 6.701553606017955 9.942797662095058 -0.11229138790726469 -0.16189079610194698 -0.14993259529880631
Ni 5.025031406090769 1.399075056491057 8.82964127007429 -0.9651892985332474 -2.192952764523133 0.20058435601740293
Ni -0.23953458003283443 6.016169009807455 1.0150986970359184 0.21908909968980977 0.12615066238786016 0.21597935041623448
Ni 9.305150349088574 3.1215195422283593 6.640891480754 -1.5467460941432394 -0.5386240008022078 -0.7447177166736142
Ni 0.9144422348753163 0.7266612982197136 6.5710816950313955 0.09506808205044272 1.3854926745149752 -2.3575612166665594
Ni 5.465671928988333 5.849617931163189 7.3035320346093435 -0.8548090116057664 0.469732577147133 -0.9479366821003868
P 3.0342377618264367 7.588933705397236 3.804069872361515 -1.07382946284117 1.1983973541229425 -0.6502718415882027
Ni 3.378710100457379 0.7161953958627082 11.146876868316557 -1.5382982204862024 -1.5075182589908682 -0.13819268115405878
P 5.049749591581913 3.2343106372439543 9.859402533486962 -1.0390177544786234 0.6436306821226012 0.5145440770348686
Ni 6.067491211837632 5.109397047750343 9.329974325101915 0.08330219976376622 -0.5601533902335514 1.203552930181953
P 4.877826194245117 0.5211333115270759 12.963079354249514 -0.9079531997289138 -0.23207497042651642 0.5362583287835088
P 8.805782287606919 4.131027900104259 11.765894010405042 1.1106283768370742 0.3526476245059669 0.5781094604913398
P 5.632563377138804 4.841517047191323 0.27840845731175967 -2.4138321233441458 3.1898360517255515 0.6469625747093115
Ni 4.882039416781381 0.40418878861819757 4.857272475658268 0.08310216793781817 0.6544498842252923 -2.074650137424782
Ni 1.8206180903377778 6.931155835892699 5.688360058299199 0.16947657886900488 0.608213478965572 -0.6379788831534626
Ni -0.009279208673210262 1.0402704018961397 2.9681223651225315 0.851966914171281 0.3844902229378604 0.21719471088057435
Ni 4.3672995324654496 7.155339751195696 5.431010354328087 -0.6146409797584705 -0.39672661710305224 -0.029669759150290836
Ni 4.63613624731218 2.474357521647074 11.913310803295092 0.6449368025285345 0.12552819831251286 -0.7103639217840928
Ni 7.736488485924938 0.7936432572880647 5.015109175026108 1.8767983498471936 1.0409404254226329 -1.4929053941737
Ni 7.121459186564554 5.544352479976702 12.379323573086262 -1.028815617134641 -1.5727270915880331 1.0210172041361447
Ni 4.534669337759777 7.102306502458653 9.522387046794657 -1.0707929900076913 0.7070163454680984 0.13552387607264402
Ni 5.5914706586464575 7.243026295334727 3.221082222381184 1.1647853224954519 0.3128268929646032 -0.41201131117626466
Ni 9.316833302409659 8.090721150125699 9.669803839684707 -1.194091784769053 -0.9211105630464782 0.29117717590531145
Ni 8.621587189695063 5.443115549820383 9.577225173832172 0.029763347305361648 -0.6248816836498723 -0.07845001387778747
Ni 6.69671483952434 6.520007870748989 1.1429994383742539 -0.027562997219933178 -0.49299283322665416 1.7282996587814363
Ni 4.108351931650345 2.371464739838948 3.225444471566112 0.25027118171956897 -0.4984759678284124 2.6994174069839767
Ni 4.909894521235114 5.31481464433286 11.466160023653174 -0.6136369639739885 0.6429657948450928 -0.43044637795300067
Ni 0.5447245979774057 5.646941688981996 7.389526850310779 -0.11479821348951841 -0.014076018477091886 -0.647137409724279
Ni 0.8847252172308844 3.692999943146215 8.62041153502228 0.8040621200702024 0.9473263022098973 1.2760865785753055
Ni -0.35136160142004425 6.442403623334295 11.571568780054463 3.3978750642487867 1.4830087038852782 0.231952071695407
Ni 7.224959113978343 2.3963945063744885 8.623158408929111 0.6864698887753145 0.47986066672007033 -0.10832340439845216
Ni 2.3902954527903324 0.7221592215619669 2.4064473657361263 0.906733982609832 -0.9500876670051185 2.0492368395579996
Ni 1.323421034355158 7.908733854416252 1.7553729356686554 1.4796251321250258 -0.28021347780495615 0.504303373143467
Ni 1.1097793745686655 8.73798436164126 4.586539810670219 0.7191774063106647 1.1663153859867332 -2.158458073180373
Ni 0.6729233926130663 6.353208414356952 3.496755764714709 -0.6527920369068951 0.08030866435308105 0.41290476952481153
Ni 1.944779366695782 5.352899232324424 1.8163101162903261 -1.162803773289049 3.9542432764082935 1.1339827352922986
Ni 6.519879082287182 8.132991363125997 5.116923813425391 0.168784952118619 -1.7069129655755442 1.3634297811776648
Ni 3.4753934385712286 4.130043588289019 12.884557949003236 -0.4182516356590216 -0.23236164842899984 -0.20754973159164256
P 7.4979630554821215 4.431482182324663 7.9103786670570475 1.2019241363292783 0.46141505842037306 -1.6883226041678663
Ni 3.8604249434956017 5.7159171094556065 3.147797907942538 -0.8928749652395525 1.7598195837665886 -0.395554451171822
P 1.9375856111862644 1.995742800868068 0.9699224643866984 -0.2450274168221264 1.6047350119531976 -1.8663069633975664
Ni 1.1732168911845653 4.223084052768892 0.12740122609004023 -1.4373577388153826 -3.813933806021548 -0.9291020658923869
P 4.209202496421243 2.2887365514794955 5.712218120848986 0.9874792202796994 0.9149900519710371 0.3522758429888449
P 2.510271104139602 6.963380548872034 7.725733729446451 1.0073703027766716 0.2813385925483348 1.2975668599362686
P 7.598850416956392 6.352205704190024 3.747144452325139 0.09063627153133423 -0.08384033165542334 0.06282387730475632
Ni 6.613443899790129 0.22654994332991352 0.7900224616761132 1.0782741288760849 -0.5922016769183479 0.9525692957763917
