# total energy = -340889.1199563753 ev
CRYSTAL
PRIMVEC
9.10494582869921 0.00000000000000 0.00000000000000

0.00000000000000 9.10494582869921 0.00000000000000

0.00000000000000 0.00000000000000 13.32600856233115

PRIMCOORD
 96 1
Ni 6.498673265404658 2.089284594918978 11.616067983259487 -0.30308883974123285 -0.4032811303921184 0.02652375732214142
Ni 4.6661754565180935 0.7524563927015699 6.184533515364983 -0.36798451197335336 -1.730320288755891 0.5063432863916311
Ni 2.6497759526245193 1.4481052076485237 4.821683378088161 -0.5934270646850167 -0.28169777565996645 0.7122107451848444
Ni 2.81782593701626 4.228509817479973 4.532655068529194 0.9155690644029586 0.679152786288611 0.798954880750624
Ni 4.954201311545906 4.393081712581057 2.677954849340887 -0.599855851029496 0.49805764934407126 -0.9657366863962853
Ni 7.279449681482295 6.152466806797541 2.7487421608569527 -0.147510616120875 0.06375667353167083 -0.7722143794319862
Ni 5.571462006233757 4.617491311394691 11.589296711161799 -1.7424803211571926 0.4328755562197835 0.4160258316522964
Ni 5.724288521269536 7.900279514918673 12.494891918539643 -1.0407370511625753 0.33801907595951464 1.3169159538868416
Ni 1.6393272790683289 6.769536297623864 0.2505089259122371 0.8355272805580191 -0.38182090363581334 -0.4224137374565113
Ni 2.6928514511430937 1.7540222811479063 0.1084335308618171 -0.12338441249663265 -0.6877482412671059 2.1459990214814137
Ni 0.5353635283224167 8.851127213352777 4.768325664292262 -0.27471877323897204 0.6567366233769399 -0.18323455188504573
Ni 8.727290845702994 2.41640708715642 1.5143546141843198 -0.3922395278659761 0.0003177883507349366 -0.3700241681112015
Ni 6.756051872913231 0.8184381138312262 4.905383323719433 1.5273846588974922 -0.548847478302429 0.24439878209919197
Ni 0.9139453531591563 7.464762643086298 2.5648705121710402 -1.050493359218391 0.21054455255390836 -0.2532901710515508
Ni 7.595363985455867 4.0226834130177265 3.9518141569895766 1.1879972418355411 -0.2748974649086814 0.5231012225762603
Ni 7.610004738281458 4.086700286846535 12.624954248118618 0.4857441220840409 -0.24103423650233324 1.184258600728715
Ni 8.117232163132705 8.791863121224813 7.285168497931147 -0.9742766055464964 1.059019394411531 -1.5908862789955633
Ni 6.912110643703414 0.7257288243436595 0.5693668588587658 -0.6137799173097559 -0.10661953433346798 -0.3377789349242505
Ni 2.1963769672663616 6.565275943836991 9.343370628922264 -1.0104430281647243 -0.08703646999521784 -0.3868227277257789
Ni 0.18425860888186252 4.795665995501641 1.306471402468776 -0.5071094751336943 -0.031085922771527105 0.304112910130373
Ni 6.5325709785698765 2.042976840645998 7.160464428947856 0.6164397235301061 -0.4151380297307044 -0.00619558728775062
Ni 3.5824957039965906 4.413485896089856 0.42164275544205465 -0.2954678328608653 -0.023846210489978287 0.23552590508959437
Ni 5.72112000013564 5.490737556885695 4.548966578906709 1.2778063894798897 0.9257840572627475 1.3353903585419453
Ni 5.533831265295843 3.121621558147258 9.517915171143914 0.3299185583395673 -1.0033280143864978 -0.003958470427115763
P 0.14082983846675035 5.586685475589719 12.500848374073538 1.4083770353123162 -0.36363626230698665 -0.19672410173104832
P 4.007277844746023 6.26539544939443 12.736012734850846 0.4660381590146812 0.32260968338297985 -0.40473663189172226
P 2.3456343435536136 8.666888635351647 1.0476469295692186 -0.5593396360830044 0.8753500689819118 1.9072389257252378
P 6.511019571891909 7.845922988569933 5.883392896425492 0.26162851571391715 0.3429921036940738 -1.0994990996931322
P 4.771137271551305 1.063821865759928 12.835744669023969 1.2442185262221153 0.10514012157446408 0.0781283688723106
P 4.33311653962749 6.061972750619965 8.356806959649264 -0.9297890646570826 0.7139794070494929 -0.643970324850207
P 4.841655076672074 1.1812847713587713 4.05315857706159 -0.30633305771014335 -1.8156230638894537 -0.5409603622448684
P 0.27243272487289555 5.5188081047471975 3.537015589295654 -0.13017083929084677 0.007041223117497551 -0.5668215462823464
Ni 1.1480881390191557 0.7409304418297324 2.4605542377941307 0.5491637239912671 1.0642374482773607 0.11327689174898554
Ni 1.8635456740204341 6.592335842716129 4.688423391548771 0.7480686354237182 0.21672702721553644 0.5254854065377208
Ni 6.2505543877615235 5.578245190845116 9.386946899459126 -0.7072891395135109 1.494603350701413 -0.5251208241094504
Ni 8.750799815725179 2.077712208823627 10.301923842975956 0.07079121178094905 1.2166025642770597 -0.32927398277703296
Ni 2.5154415824822567 5.524626165105127 7.02272663007039 -0.760834933950451 -0.2507465786940908 0.0468544984596935
Ni 0.4210126931935902 8.975446143129277 9.179287669409945 1.6595794705969034 0.9028673005655741 0.6823424968705023
Ni 1.4828132609887914 0.9306802435157701 11.627102267058822 -0.6570132740770943 0.8289696819451594 -0.9956460723612077
Ni 3.8554164539636724 7.116443837056584 1.5468428817417021 1.4492778872917362 -0.10430091350262038 -0.2867690195352868
Ni 5.9844714520805224 7.84407468457516 7.996618035796962 -1.1160387492193682 -0.05999026451070313 0.9428919205876278
Ni 4.9236086937013885 3.1120977848539946 4.951451617918214 0.6198893726416034 -0.3656548353989122 -0.06415776562483144
Ni 0.8494941734163045 7.417043622216325 6.914239380028429 0.12050297718377957 -0.8498028166404268 0.40099824789521266
Ni 4.74889388899352 4.7800054887479 6.627304297505907 0.09795517379025065 0.031451276530745836 0.8773269902026246
Ni 8.210749061311585 7.228343620779535 9.06964135976929 -0.7275008385746955 -1.949539743375978 0.2595171257978692
Ni 4.345490160952102 0.6115282208203193 10.637059598000588 1.0340172159402385 -0.11169514908416248 -1.06708725902133
Ni 8.249144617695611 6.791624896103269 4.914072173484024 -0.16219701448845614 0.607487913653457 0.4353060200381471
Ni 6.949231507677253 5.855745728543088 6.8770329295641925 0.8449480596512866 -0.04633693539332665 0.21970899266199584
Ni 2.2440504634074006 5.535788828640062 2.3207514372121607 0.6025585946726397 -1.4910729689506512 1.0048562781055663
Ni 2.4356640474960494 5.196629598072128 11.696491058901998 -0.5744584940023139 0.16991855150242993 -0.8126195227219102
Ni 1.028704089859243 3.2425807629283314 3.547023745704789 -0.6714518180999275 -0.33692507156438745 -0.5611733468576335
Ni 3.595615930875742 2.3799873040081856 2.9368394148826393 -1.4235696838923548 1.2141433041032896 -1.9845401707105628
Ni 1.4087809467942178 3.405604817245616 8.41087030674366 -1.55680887769588 0.3085922860579653 -1.6416509111429405
Ni 3.8889590742431963 2.705807788998078 7.227440410157458 -0.20298730903194073 -0.5534497529611307 0.9721755000430935
Ni 4.421388989033023 7.142320092983406 5.919359253273531 -0.7191108147387874 0.43812806286797445 -0.22111307209837402
Ni 0.6305156747646514 7.329408519015886 11.199963766339701 1.5436800536234059 0.18212974885664118 -0.11893768957918872
P 0.2003343011634932 5.426547689086932 7.867022789936863 0.3121288384563141 0.9643616604256293 -0.14262603433506404
P 8.805329336043872 1.6569453491662873 8.0099440344509 -1.1745519149639128 0.6066103961445101 0.793950228447181
P 2.046555084340312 3.2511303070223794 10.768254582835473 -0.31900679652306996 -0.8579277597404064 -1.4073087419488022
P 3.8644212453470734 6.146320968391277 3.831907483941487 -0.21614544368045355 0.8358340131651605 -1.0154510229022768
P 7.346443872583472 4.097170974501653 10.45563991121513 0.2981230110955253 -0.961293563023267 0.061527527090835976
P 6.2108659290757355 7.76600887939692 10.506092236810382 2.3544519816136162 0.913452275170272 -2.6794039399765275
P 2.4893468078565464 8.437853724078188 5.769001999535202 0.3873804000014619 0.7758476053091994 0.4652012649356827
P 7.01186442974643 4.067170178133295 1.8293675285249735 -0.5615973217689296 0.4807633810399978 -1.5870175400687765
Ni 5.046698455796634 2.68425638232011 0.9635081255510098 0.5997008135088704 0.5795436218347052 -1.628781768489756
Ni 1.4623089230763353 1.0024727410467273 7.003004407001042 0.30631197466422083 -0.2800597258359112 -0.4306014154736261
Ni 6.877994411839307 0.5163096082738391 9.521299479492964 0.1824562789581245 0.2400065665687673 -0.579455432996273
Ni 2.359655960065684 1.5027439873166626 9.210590473025853 1.2485567485861528 -0.5220295867786364 1.0928098605984147
Ni 6.376011435761404 2.2149874764551094 2.792545144543913 1.0777570800303504 -0.9888426762861292 0.59767658398999
Ni 4.257354285733374 7.1556224187782975 10.318115168069083 -0.5428274973605941 -0.3365193514855366 0.759043389267667
Ni 8.215164960018308 6.941692612565569 0.5727721085831257 0.13938695857247607 0.8270729791430788 0.1690114663071283
Ni 7.676616521659579 3.870284830433939 8.25556906744296 1.3812524111813824 -0.5680181376936089 -0.18844103578664964
Ni 3.297884203638925 8.54956230393961 12.487775492912478 -0.07650420300532632 -1.2108690042273922 -0.2643705972354286
Ni 0.47123102168211195 4.906136302736023 10.014788451646119 -0.8783878273669711 0.1776452307227263 1.2169077542223043
Ni 8.583086714327559 2.393417099044097 5.766284173217765 0.3846318907220473 -0.010426594649962689 0.28490599818461904
Ni 3.9399467706507245 2.7202300231247785 11.700608315386905 0.3323299959945374 1.6575051045663776 -0.9345090958405713
Ni 0.8215292429259328 3.301972324297315 12.655430322657061 0.5339749320659707 0.13773271079850471 -0.08814512967836433
Ni 3.362929936341672 8.224934566847823 7.939115750678793 -0.005351751230216589 0.47988972018579285 0.21358925291750314
Ni 5.42525478678517 8.172071251608159 3.6774320632236717 1.1248013259033467 -1.31373755615886 0.30654311683842045
Ni 3.1445569165848584 8.663574435085158 3.3693480126269697 -0.9510392322851106 -0.5641812804460219 0.35414272099425465
Ni 3.5005238770757017 4.150289228223353 9.099398143590555 0.13588537317712082 0.9342280742650426 0.9617599611367242
Ni 7.554355309630956 6.489022022870375 11.516509953550894 -0.6439559266725039 -1.568177267433822 -0.18195517095198988
Ni 0.3364222838643434 9.019177197744519 0.1556399432839799 -0.003063726526988272 -0.23568788458875536 0.8851968798690046
Ni 4.768332948248891 0.5168686519451645 1.79509287060417 0.06435188391350852 -1.392242848754615 -0.6245530966658599
Ni 6.000341372587366 5.723933428383841 0.49536368049071083 -0.590280548636235 -0.6550584643435686 0.21150074581959058
Ni 8.073692312378991 8.97054768229584 11.43931184970616 -0.5125100773239754 -0.23644636002133473 0.07381662887083415
Ni 0.4463226214924557 4.7253393942424 5.610969276498382 0.42050315069735966 -0.23921363835382672 1.0590841862111953
Ni 7.846105087485674 8.7429058277278 2.6428407154185165 0.016001774744895024 0.13560769403570191 0.361403516321726
P 8.590388880848781 1.603308113534725 3.6639995367040243 -0.9441949556697674 -0.6749063523074312 0.21381499577506402
P 1.9650931343834988 3.2609636484724027 1.51963093026792 -0.45306797200725846 0.4444560619685313 -0.11211423889945209
P 5.121969042618248 1.1710963370230525 8.517864345676545 -1.9671577135680571 -0.5021816988147738 -0.38824017689859586
P 8.408417434348626 1.6611973588488436 12.61314695442196 0.5902800344156028 0.6619523632499245 0.19647136229029388
P 6.284579570167762 7.738038485939075 1.3165432934984203 0.007960906718289515 0.7178977682672927 1.911211537219741
P 2.0374683484448277 3.013982889052651 6.211572472868811 -0.9637975603920435 0.9824563131438111 -0.39989627308028547
P 6.71909489796356 3.846502712038142 5.970877768020444 0.6039505899241598 0.5354368613234778 0.36846916491925574
P 2.4261584840943597 8.657510541190977 10.275858204176766 -0.3539282909906033 -1.3622398746346216 -0.7676789534554779
