# total energy = -340863.1752069174 ev
CRYSTAL
PRIMVEC
9.40135548318363 0.00000000000000 0.00000000000000

0.00000000000000 9.40135548318363 0.00000000000000

0.00000000000000 0.00000000000000 13.75983405321317

PRIMCOORD
 96 1
Ni 8.567502186720448 6.201312650432461 7.035114160562598 0.30391493518695406 -0.32990081772775437 -1.658879359206085
Ni 1.2781142672153063 9.051512167000297 6.814310166994922 1.3825086521859866 0.07686852832328052 0.6354967401615571
Ni 8.141075508291967 2.2507784973447333 0.17502127301979017 0.4438590518144807 0.4958992082401718 -0.11038311514095829
Ni 3.232355212397442 4.752300544677694 3.229130547493765 -1.2789011652059654 0.11624728723121915 1.772717265664863
Ni 0.11928251709874488 7.773303886230948 10.000220803424014 -1.804852712746827 0.07456739099392964 0.7504448489653786
Ni 0.9501479839361158 7.687356695124789 12.3672009937015 -0.21298041568891063 -0.4650469987460056 1.1317654159260058
Ni 5.599917346574456 2.4665584065843484 0.12343979645852866 -0.2753214398199774 0.43994069059668106 2.859439268197985
Ni 6.881190469205609 3.780294409426568 6.076590509096786 1.475182265862324 -3.2456269334429266 0.7857926323370532
Ni 6.991825619603474 1.5030981033957367 4.54510689332883 -0.8430546992833158 0.7231628733209738 0.983831596224783
Ni 4.74320943400173 7.7518687959091315 2.6126347865853634 1.1892511688473002 -0.6611586637040354 0.4279359528263211
Ni 8.894114674821418 9.219730619249532 13.646342829062498 -0.7720616559042058 -0.23827595703090573 -0.5239031496522655
Ni 5.902706800080916 6.808950454278927 10.407167873454773 -1.1847499385428368 -0.7054752262332237 0.29798082909070617
Ni 0.5846185851390233 4.270669107315133 3.757425612405595 0.2604830892555643 0.03528761955770052 -0.7436291115951258
Ni 5.342545841026193 3.9374380650095313 4.112869237124949 -0.9953835627284406 -0.1334695646467766 3.696065438247138
Ni 6.093103049728908 9.159449128397126 8.101817328394668 -0.41320018927804325 -0.05083302349146729 -0.2662444172193737
Ni 3.6582178095016635 1.177068499329833 7.769173870801836 -0.38904030420238805 -0.7055934969786429 0.1272870899851485
Ni 4.412262921059375 5.072426097549693 1.4386734352166537 2.210170156842684 1.491064484310219 -1.8952562994420648
Ni 1.1966891280586183 5.280327670960501 10.896233902671058 -0.11030778181833262 -0.5873705740782916 -0.15723967048318083
Ni 1.6813478018613652 9.250651677174293 3.5438860461588257 -0.6819298348131159 -0.023914087613436236 -0.25358739057699553
Ni 7.487634300915727 5.320640682934163 11.367067883351776 0.22538881665559246 -1.0428906071704684 -1.0825912681942
Ni 5.232747411259312 9.364229451813705 5.529513416358235 0.09890956728371997 0.2541136953941108 0.3016621345970353
Ni 3.5786353360042193 5.607776879692454 9.994593152078997 -0.30529304648140326 0.651030317020782 0.4339019406017689
Ni 1.5056646734211119 6.513456452566206 8.65194986163962 1.1183074906488868 -0.24596458392441511 -0.49282005509421584
Ni 2.4896105300357054 7.08477682048584 2.736555932440593 1.2822621112583983 1.4862284963741565 1.9068031237393999
P 3.9790296613181777 8.135895361464195 6.725256768063179 0.9783217221501475 0.32068109890169927 1.9818353701848899
P 3.413368909351936 7.00668916249768 0.7921685478577098 -0.018265888188723378 -1.1338770629523698 -0.8733394663097862
P 5.3285096174075655 2.137257130837747 5.970020504775743 -0.5316750802882004 0.11256289640109646 -1.0888223367055765
P 2.2246709333869776 6.3598477066152626 4.60849835254898 -0.7041845324462582 -2.068608559216392 0.3606069885623596
P 5.067565596805667 0.9603766586159999 9.70470047791616 -0.0367336079756077 -0.27449662992583695 0.20569905153614895
P 8.711972815218408 8.400289679499473 7.189128104931467 -0.9710493568584503 -1.7446657588442858 -3.030497332621497
P 8.275308060754638 7.229914945217505 11.751214786256012 0.057537946315468644 1.3130168759427516 1.3084485398457788
P 6.622587386099382 0.44559510196231816 13.37773670380609 0.2601753282071584 0.2184869473294366 -0.7035654108050206
Ni 2.3513447961045872 7.80636845318789 10.550325132602751 0.316789477156777 -1.0927736080438406 -1.7273843460560188
Ni 5.166138808219809 5.9890676508248655 7.945464326801208 -1.0837163829375789 0.9467074376789761 -0.08736865652365597
Ni 0.14432678776027377 4.015177872847731 7.550323478887176 -0.29197036123056813 0.849097563043286 0.3842320841804673
Ni 7.295122746301767 6.961506248424588 8.722097134853303 1.0328653617239822 2.2319854529455627 0.41101809402505984
Ni 3.5688203209621245 3.1328606681536786 9.429242644841096 -0.7200284414570503 -0.7064283341751124 -0.6207717752465567
Ni 5.715864262775754 2.6199697240718027 7.975007146023696 0.5861379872227712 -0.2856536749839209 1.6843433078051442
Ni 0.8431135526580998 1.9774904970969824 6.489963405546389 0.22152856236923782 0.0011850214470366688 -0.3437747474963692
Ni 7.685326002357459 1.1377896364506455 6.866913570888631 -0.10929039629741179 0.35110856215362113 -0.8437864352430178
Ni 2.5035527401002904 6.715594995114175 6.618274044239887 -0.09330713349527801 -0.7549627914403901 0.22215231199616578
Ni 7.012790642155074 4.70084692654993 8.571248626849062 1.6463182347116228 -1.7553787743864155 0.4357420791343012
Ni 0.3154540193716007 4.447856452620075 13.120552285230374 -1.9968328720349868 0.7535252876629152 0.9266623461026428
Ni 2.232577473281998 2.4252018441608096 3.30864815163892 0.29966515877166455 -0.42318121175015505 -1.2556653346064761
Ni 8.7460245244928 7.3904806941676355 2.8080795640854666 0.2509946901491549 -0.9703564445564838 -0.08875705223075037
Ni 4.413945763676746 6.125669344849421 12.382254443974874 0.7127686745708434 0.9354143812636598 0.5708394091924878
Ni 2.6606775929724447 3.7420308929310457 1.105496920772397 -0.5394644944256323 -1.8489173071662093 -0.8570870090066658
Ni 4.676281184878481 8.701621922918267 0.3071798864802716 -0.0019062158837773622 0.0184908597153359 -1.158601048061611
Ni 4.537752212996042 6.427105003177663 4.995906585642971 0.06438762224745039 0.40603323921595874 -0.021806554352130185
Ni 7.9291501547681165 5.107558962695582 4.48588493523049 -0.5476616855244438 1.0536535021139273 -0.5549551338620636
Ni 1.0368566848300236 2.4505290956200083 12.654079593321717 0.1327270300537972 -0.7036209466333043 -0.21926779135951913
Ni 6.553741260473655 4.238084009483811 2.429216222918448 2.2157959876698934 0.04619089673376561 -2.958154717193028
Ni 1.3031688793677798 5.622743837496109 1.7499344500779344 -1.2360984682181422 -1.8156477464798022 -1.0730049100573456
Ni 9.13600214801879 0.47718271598524353 4.785711081513513 0.06619665043173116 0.10921789118826351 0.21133876632042956
Ni 6.238927473405087 1.2879104795465925 2.368066986962225 0.1910152242717291 0.2857904576721014 -1.0441440199615952
Ni 3.1923148397305057 1.3775524033266435 13.662730331667742 -0.3406261745650585 -0.11014014589221677 -0.518681753352326
P 6.825026772020289 3.417496104374426 12.35228574335257 0.1337801539086599 -1.242558364910873 -1.2213930436871674
P 3.1198867976957376 8.581434995429628 12.178787489908279 1.5979861232651384 1.5879670484662394 2.92439973222977
P 2.5279962641514837 3.2116440264417574 7.320603239854055 -0.6511249336171173 -0.36951123303052485 0.7056945413328815
P 3.6479891348217794 9.253697716325288 4.121290031160585 0.6210201438119369 -0.6641622264170497 -1.2689900767398403
P 1.5856514052009416 9.338027874301906 9.196673795120473 -0.2690515476508657 0.5148004160200489 -0.521096790551722
P 9.191451342193382 5.651803427050816 9.413446487490782 -2.7470190680223396 -1.4052567445157798 -1.9370891763174507
P 7.484503649566093 8.973010849374347 3.421712612273257 -0.7853421750631959 1.4418810806070328 1.315493105397386
P 1.0482699302908502 1.3021629343395194 0.583587256451171 -0.15194499774314477 -1.5059455151871097 1.7797536036863542
Ni 1.4456746245862397 8.188524149017496 1.1765580057313791 -0.7677702276177035 1.4304589548130202 -1.6252832684181944
Ni 6.751414159204578 7.136164629125773 13.333389570228443 -0.396602175710046 0.709552995847023 -1.4351075093286252
Ni 2.349361110114279 3.787232609714945 5.229149512546084 -1.28328541031659 0.6730435880670795 0.2937482790665973
Ni 6.895151481981002 8.578605187452931 1.4013425331772382 -0.01034226246627251 -1.0298224611326006 0.07595270137723048
Ni 0.13888810365888316 0.5162133830817575 11.22247973791126 1.1578101767291995 0.12287661962227871 -0.30186936551183496
Ni 2.9581270766092604 1.3381983296042215 11.024970422764373 0.7743527659312277 -2.653627602343372 0.0689569867856877
Ni 8.404539092142219 0.06980976455466904 8.820383604927613 0.8239357190656778 1.545083875949468 1.9053962160895441
Ni 2.3047610800762546 5.353112964500633 12.808837184903066 1.4499021511392964 0.7835112925020441 1.5745967978069206
Ni 8.732721606595709 3.058289117086729 10.914217755423953 -0.234605450157854 -0.24341096426462597 -0.019613917576185573
Ni 3.9559869392222256 0.5630819601788407 2.1568956221418 -0.6892615925878387 1.548246847058482 0.034184873411824995
Ni 5.282471179992683 1.6857946429676016 11.863412441922074 0.24230384724337625 -0.7374623206627815 -1.6532874669406044
Ni 3.063431658492884 1.4980307728328162 5.317418838437106 0.5199356803640852 -0.08518938948415007 1.1290217917425975
Ni 8.315564664595874 2.5808506842344885 2.854959422809035 0.4309495428416643 1.6200706138690035 -0.14415944026045494
Ni 4.291361490560009 4.18165707434717 6.331766798158143 1.1410599538540542 0.15668508353129146 0.8532558081860336
Ni 7.2921707207048145 4.945470194169955 -0.040982388478447686 -0.21726695887940647 -0.5419978023704473 1.3632120087399038
Ni 0.7936031946924068 2.2115184371763545 8.937934392360885 1.3237458323244815 -1.3164696103780424 0.9792804865189909
Ni 9.001553364381818 0.5289127339618931 2.253888465712478 1.4844068697843855 -0.539330025730297 -1.2289384601345932
Ni 0.3446706115615603 7.572340513108517 5.073167864491093 0.5771152148988706 -1.0229789558482059 0.22098785937441942
Ni 5.335532429894582 8.6337817423208 11.622725521809832 -0.4275744557218442 0.5498368387988919 0.2999153271092576
Ni 3.9942786597839612 3.5810796884093383 12.372911376974075 -0.8875656372114972 0.71762034623619 -0.24498319384775227
Ni 7.205509026587929 7.900560632983624 5.235809432714494 0.1945803159151681 -0.8068633369644233 0.9274236497486995
Ni 7.310493962387806 0.782213452620091 10.740884965834777 -1.3577574133832357 0.5516314688054693 0.16750531407524702
Ni 9.044940619572687 6.606868319863384 0.5322605566213662 -0.8747456026286935 0.5514244950009859 -0.9559801212301535
Ni 4.195881325073884 8.234026709174334 9.258373010367848 0.40140139687090226 0.10410036745604007 -0.9712501600153468
P 8.046695301388146 2.3956721868358866 8.636951879363131 -0.21811490870199857 0.850533009938232 0.6516255274026197
P 6.355786321080602 5.691119895351621 6.090198971044518 -0.32516895946972385 2.6233194382781337 0.18917919950425482
P 1.8462757797190934 3.0253937745270645 10.820306676154809 -1.1949119666775032 2.7751513074821816 -0.8824583978919188
P 6.534957352375852 6.342521008605128 2.621138312548558 0.2312679011441888 0.7828754586902582 0.11026073063048109
P 8.734573673610356 4.450752070084601 1.5359549003982431 0.8489852058351378 -0.3451250908766766 0.27949742557453805
P 5.247197294515729 4.337841791678894 9.745085880326437 0.9749461208096952 1.331540645778552 -0.12586964081233162
P 8.85632122609611 2.7390002848457122 5.015156800968827 -0.06217235976368648 0.9435349534882653 0.011231092829129045
P 4.736036199828246 2.907397362847629 2.452553207438555 -1.9114305952090822 -1.0793647908371025 -1.8832765013723696
