# total energy = -381166.28736907995 ev
CRYSTAL
PRIMVEC
9.25656542839944 0.00000000000000 0.00000000000000
0.00000000000000 9.25656542839944 0.00000000000000
0.00000000000000 0.00000000000000 13.54791917244419
PRIMCOORD
 96 1
Ni 4.034992502216852 6.714083269369895 7.096630283263639 -0.003973382825451221 -1.541700561299532 1.4736020658593973
Ni 0.17023194476049608 0.38423170884036817 8.527155673553853 1.5649461620910339 0.30154720628572584 0.8096637825276958
Ni 3.8217304864185513 5.303391922278215 0.7384443753076347 -0.8946917067333171 0.10036198345953039 -0.582512474655042
Ni 6.668624275507946 5.695472273125414 0.8903964542406867 -0.1052085129185543 0.6070341139454901 0.6353617572455896
Ni 0.46969757940183826 9.064140154255202 4.125246794184306 0.027392533080339922 0.15964648015246055 1.9166573908256601
Ni 7.294377369391401 8.072974875135682 4.110316879462266 -0.140884369053609 1.455605629281977 0.9540062853332344
Ni 6.163493488489704 1.4270662117102486 10.403380071165577 0.4794606030681742 -1.9173649584156462 -2.742750522553973
Ni 9.341263216409354 6.718156158251846 4.654590905605741 0.5787308961254226 3.554510011268433 -0.768053048965445
Ni 0.33428142932950444 4.674315721329714 5.0810112636671665 -0.19195547669781135 -0.949212720599333 0.48014400228844406
Ni 0.7691308160634378 8.288180769718549 13.12553608430586 0.34267148712986145 -0.12465428034799177 -0.49349522678436947
Ni 7.782818568559287 1.1681415576059009 4.511538088879751 0.08300343757642478 -0.22496664151650936 -0.16075462561497475
Ni 5.646495784319962 2.6273002823927896 7.931710426891493 1.1286001308241467 2.6870190333196238 1.063312108249614
Ni 0.5511877550205865 5.93832752927734 11.80871927200375 1.8318246133499807 -0.25136107234963806 -1.3274227669554364
Ni 1.0344397234902425 3.7057549755050174 12.86323463505575 -0.7689053696634113 0.38368341076584883 -1.0077603391262384
Ni 8.648955415568576 4.086144283947891 1.4311076282690203 1.0306562698878057 1.1652494066160641 0.42707720437045155
Ni 1.6357832537789185 5.853315230432268 2.268125171085492 -1.9343699776140753 1.2921737139451552 -0.8013912581062586
Ni 2.2528722022225884 1.141454878863486 7.162107525980375 -0.24971350944388607 -0.9328355647928902 1.135571162825341
Ni 1.6080135568565304 8.607189791397303 10.393056223506397 -0.8167708258861225 -0.08686472030404395 -0.6149130024729346
Ni 5.495474915890374 4.0652614718622555 13.119358252397193 -0.9187857715680435 2.4859880766831055 -1.7956083113304238
Ni 0.43909352208023833 2.5230343270148627 4.5647411255567905 -0.31953567244334646 -1.5044450193821832 -2.565149257695305
Ni 3.709226187620316 5.968846426195045 3.092285344226899 2.0547932505998547 -0.4948645963280704 0.3308068744817916
Ni 7.763111340310032 4.794706614053908 12.32746831839273 0.04450065351553626 1.1676749853384212 0.002971938144130365
Ni 4.580842921488956 3.233790463177748 10.285011738033898 -1.4499461170033545 0.016289224078326787 -1.1119954323879302
Ni 8.280618155590018 8.258337602092622 6.55105570964763 0.17801238425415794 0.668593779825842 0.6129733622480604
P 2.447982092799288 1.4905662520061096 9.913161611394658 -0.9292385914702513 0.39623399373734985 -0.01935757859100537
Ni 7.338512674366717 8.847897524320565 9.598741994960609 0.8694874395535478 -1.0080297907375413 -0.2995409744889745
P 8.293392216174318 1.9684457097778476 7.95787133270551 -1.4215002029578356 1.976385145703596 -1.0180820327672209
Ni 2.6223943026031677 6.049073080603824 5.224876806856418 -0.7934617188465366 -1.2185347483027658 -0.66438668372303
P 2.0522361419583337 6.46495206171351 13.535739865021174 -0.47729059200004903 0.03608029066232496 -0.27288172003023325
P 4.322695818898435 4.628125458782142 4.780613492865796 0.6230590286188367 0.5038752844671129 0.33593545395760854
P 4.433506166184404 0.5302040463694659 6.437049995902458 -2.633128968169388 1.420361461367702 -0.7663931447645188
Ni 6.344496373029831 1.1317447415062907 2.5623589948266563 0.297684638006526 -0.6527017911859339 -1.6742293592995938
Ni 9.279892186210878 5.2512774577205334 7.4870546345177 1.1548708915952175 0.6022824581931175 -0.968583411816461
Ni 1.7290338960442981 5.778457384095151 9.246062215763459 -0.701022846888825 1.899641058773322 -1.3373138008169032
Ni 3.296938753979259 3.249369263151208 12.21296182444639 0.17472985684814424 -0.7104341129003958 1.9078310507832823
Ni 6.002179319067551 5.98797049080893 10.323731026452784 0.9095786511474787 -0.04998918743393326 0.3307796207882819
Ni 3.2544140914254416 5.692824895352147 11.788342794058664 -0.9340583814563979 -0.08144920571542748 0.18898482410526163
Ni 6.108379896664404 8.750083395194272 11.890480664995772 -0.16975940021674635 -0.9071438164537409 -1.2408483241983017
Ni 2.3297572364350407 4.076286041540444 10.358102505990187 -0.39848962254074594 -2.2202010587161247 0.4637673607026335
Ni 5.214575174954777 6.547242930260188 12.52413053502739 0.8348263978362525 0.6854460754964905 0.8648604823044976
Ni 7.988342095481882 2.507594375526015 12.390777673436391 -0.2594183954364758 -0.484048736659489 0.35490325330936295
Ni 8.238843274853107 7.458672152949891 2.120344100630183 -2.425856915719164 -1.3859984105068 -0.22641571525821005
Ni 2.751236439757408 8.200215626434064 3.3529613405504852 -1.3525596712323802 0.1105108989680742 -0.4506848164870625
Ni 7.302041805741981 4.861566787677377 8.282209359223671 -2.701193267937477 -1.8405136564835465 0.07923934254830226
Ni 6.817571673233995 3.6398852544051126 10.360486997299256 1.1477486787281392 1.2803363549905948 -0.02864903119526034
Ni 6.087024999731089 0.8002699028790757 0.18356880453575503 -1.9830728421364172 1.7278582003686436 0.15541804389340974
Ni 4.005630676004247 2.706592023671849 5.944149909065401 1.127215591771794 0.006539600890730672 0.8285889015669731
Ni 6.656331556336968 1.2021131535076226 6.596970126539108 1.6758434978642496 0.36653235290785907 -0.35179864624211027
Ni -0.054512840715212146 4.057735883996288 10.224994017732103 0.19404475512667224 0.9744586396503154 1.1506316567028894
Ni 3.6125598726334824 7.733027501977445 0.9725410690502392 -0.12031322977047666 0.32735285449492013 0.11152802737867888
Ni 5.829238903200558 8.427584648268938 6.406079378581483 2.5907924121847055 -3.3348223587626764 -0.08283220210588314
Ni 2.4443998018963 0.9325712186132817 0.5218120439595202 0.20792639820477093 -0.7579267591647204 -0.38272027552163124
Ni 4.333174251203816 2.4096599110463925 0.9167563762159816 -0.9236330723580157 -0.29453169419984115 0.6732117382138276
Ni 0.3175418560246888 0.8525880118808551 6.137153005302255 -0.6924682724505945 0.9837133254793639 0.6597383863177413
Ni 7.599066484023844 6.197566906613475 6.155294022645087 -0.29988781630543193 -0.6098962659846335 0.2326843218757412
Ni 4.1627145949285564 2.7851710093965663 3.652451042262493 0.3629199529662524 -0.7164422667676887 -1.9786253478880247
P 4.016497884066542 0.583227505673074 2.3520674109424875 -0.7229060201151615 0.4343104888940972 -0.14217403439931
Ni 2.893185873859016 8.291642725268208 12.275471412218685 1.0495813889270826 -0.90380266789565 0.1604733469291301
P 5.182279017434039 8.732421867951635 9.77711323788906 -0.766243506560532 -0.8682209141362983 -0.14633973574122539
Ni 5.436575388717989 0.7612692148647096 4.467304664308643 -1.5078147071853645 -0.6002985949938694 1.6733639259755053
P 5.037432278286863 4.693763765741027 8.731837778659699 0.7197083391134701 0.9445754789376378 -0.46608341043031987
P 0.3801560429887257 7.621189675905347 8.47320748334273 0.6783524018745027 -1.7698880237461843 -0.4697752574596103
P 6.388011488107213 7.961229614719991 0.4611315535578456 0.08281626126628319 -1.4636848067456858 0.4482337838434087
Ni 6.687192946183384 2.9925643625786025 1.06203909960484 1.235634126987214 -1.0840531974517071 0.9894314589100636
Ni 0.07971198935915128 1.951135932029559 0.7275244048211875 1.47213088063051 -0.2568141250444093 0.7000928788753878
Ni 1.041863489134161 3.190932564260862 8.347456113455952 -0.2917050233843234 -0.8051473827145811 0.6531383645027203
Ni 6.59704325340767 3.25090585304758 3.950763308824992 -0.3092144930229965 0.6797659943925777 -0.5411858479921131
Ni 8.50715408651722 6.111684490598169 9.56751404511482 0.21927627599995136 2.330955184043256 1.7011832621806187
Ni 3.9542011973039837 0.9045821410852066 11.4551453085657 0.19427049798423318 0.48782543009310175 -0.1603100818783884
Ni 5.937225997966085 4.615971588095777 6.339572805765491 -2.2464777330244665 0.2602676308106485 -0.37526433346421817
Ni 2.702880140849889 0.8054498770116653 4.944543567738037 0.1715028652704143 -0.12442828038011475 -0.7474734250418804
Ni 8.182868822423211 0.11940044020062852 0.21857806144580985 -0.3184344689593677 -1.2580490043473043 0.7173061574298808
Ni 2.1839385578955803 4.011119819429239 3.6439970208627543 -0.01783291441636284 0.06359495114282596 1.4507187335033207
Ni 1.4408399813837531 7.710376685854418 6.3621838186562645 -0.1650825635663673 0.8587075753292244 0.22573822957521122
Ni 6.371534801266596 7.203135401870075 8.245832907568472 -0.4308839797110515 -0.7013992563916372 0.004110679734263888
Ni 5.062998912586741 7.949899578375657 2.8422312569761257 1.82495359726176 0.552866369653835 -0.35019042121472593
Ni 1.7855637424126398 3.083500863433783 6.206369900537872 0.2291385135060118 1.1440738009797136 -0.7269398238649029
Ni 3.8432334884021206 6.736215717817039 9.675761249374853 0.8747720849912547 0.3588516964341497 0.19988090219247512
Ni 4.078646465778847 1.2118603171273807 8.375377618054848 0.4984476856936383 -1.0554262777436338 3.123340381996163
Ni 4.218550198873838 7.672202609151774 5.098217367880277 -0.014390464393717151 0.8467066942136063 -1.5890034601505536
Ni 7.783003699872103 3.3023723580104063 6.015980858437978 1.0839377549197657 -0.4035135581178986 1.336519329940066
Ni 1.895078170508898 3.693064224011486 1.4497355409645583 0.3848347507614727 -0.9112259569429145 -0.9903547420552814
Ni 8.54900301977926 1.9671497905881363 10.236563799126536 0.2692857751488588 0.5211980920162765 -2.832780013739244
Ni 8.559268551074902 0.26312528359214093 11.450878031805292 -0.04803592036230437 -1.2953770513738014 1.4068737112939125
Ni 8.017740947957051 7.358710500594934 11.639044572494829 -0.6039225648997019 -1.0921711985731515 0.431666880623663
Ni 1.8836463119425149 1.6094575810964944 2.6892618814791507 0.3000845056972703 -0.058105903003796706 0.644710031229709
Ni 9.110645140034562 6.175369662206846 0.4081923290015688 0.15161692497976467 -0.04218049002279187 0.12127070858773951
Ni 0.6967574319443096 8.639597027705731 2.1038026178300804 2.3330622030839305 1.1261179878322414 -3.0519189928303825
P 5.716577242786429 2.368560759601258 12.051538427549676 -0.8168471876500126 -0.28884724222055413 2.258693044143736
Ni 2.688023352996412 8.263252838447885 8.289579436786873 -0.21154805411775823 0.19793123466527202 0.34481810115921907
P 8.230197642544603 2.2703856244149745 2.6287026520873704 0.5931002774732173 -0.1926548167576811 0.4903309701237749
Ni 1.3272989472337484 1.2541905918027412 11.90546426779853 0.8359566547859538 0.8017375857020838 0.2917649300879814
P 5.160044746764847 4.20032402112711 1.9302123910551034 0.02389300456751369 -0.01271384802224262 1.2872559649285638
P 8.493833888560115 5.452802148286304 3.20925871291651 -0.7928109726364152 -0.15271915690500795 -0.9338161835386046
P 2.0813850671612006 5.030295466177808 7.058669107570735 0.5535957916206917 0.3853844526173556 0.8532349822504274
Ni 6.271286195376774 6.105862110810108 4.2397403289387485 -1.0200265580881014 -1.6961991787024662 -0.43564412010385617
