# total energy = -340897.68819420424 ev
CRYSTAL
PRIMVEC
9.02542677087800 0.00000000000000 0.00000000000000

0.00000000000000 9.02542677087800 0.00000000000000

0.00000000000000 0.00000000000000 13.20962438330594

PRIMCOORD
 96 1
Ni 6.292004130037878 1.9343836365826446 11.349365967726905 0.6964218577817037 0.21185915760027388 0.016434748517255564
Ni 4.612453420766483 0.0770970012990317 6.057273535965527 -0.10024037028000156 0.017298896289763756 -0.4146076111485312
Ni 2.9684177661779203 1.5992334356697366 5.060223800545426 -0.2598554829738944 -0.3110158078977934 -0.6578195720284735
Ni 3.2982519906719747 4.344669005915242 4.848276091488547 -0.051236943798105304 -0.3897841243469481 0.3810421164882599
Ni 5.026630259240479 4.581893325428219 2.487887794535628 0.82616769371999 -0.003632968766896969 0.404082286137175
Ni 7.490770350629609 6.244611613611053 2.6455836627542606 -0.9658611277892912 -0.2760729732740213 -0.6577038723862157
Ni 5.150423014012962 4.529672205632826 11.463880583690253 -0.5765498293137039 0.13688116143148685 -0.027747859537229635
Ni 5.530564967808696 7.862401326899063 12.362293234074082 0.06030753864080581 0.16853401245007749 0.37518334371463774
Ni 1.9364685101866432 6.426510066489784 0.3745434815162519 -0.12479749079407539 0.00714715256774253 -0.04998918743393326
Ni 2.716211238082097 1.5175984497469366 0.5559202647226391 -0.006912153738800999 0.6471826611399176 -0.33276785486290433
Ni 0.6396004123712662 -0.12814842577373878 4.498603978762506 0.12852918992236573 0.619656687805507 0.3540136516155581
Ni 8.646006937489371 2.3805826895457605 1.408027060073242 -0.09896690288421665 0.3732609298809443 0.40009733334749803
Ni 6.858286487335195 0.619942130133737 4.673895819181811 -0.6820555617577028 -0.5166598378262909 0.5966841381697336
Ni 0.8076728138475484 7.293781384045747 2.422130339539903 0.41871263445584017 0.154772696999927 0.12729454618431624
Ni 7.717091954499165 3.8866195674887054 3.7600135871648512 -0.016674118221571284 -0.36996066186311766 -0.2095395083281617
Ni 7.506014296591312 3.939310009480669 12.458155000351786 1.0089980681880817 -0.5547712999860316 0.00461153063008238
Ni 7.875226458463054 8.815323945329252 6.939703057928052 -0.06533378821080361 0.016474600616255497 -0.12802808191623113
Ni 6.904225910038019 0.8081132546781767 0.4346049896224384 -0.7230471736787161 -0.14852105966326035 -0.4622396112041975
Ni 1.7289919975947885 6.496132209265735 9.155907453210157 1.0267695332388898 0.15907235281654541 0.42640203268029786
Ni 0.1224976060184856 4.878225165428582 1.3749371375869224 0.08472813357701538 -0.29683385997045647 0.10316731411880942
Ni 6.016972297420355 1.9259087607637935 6.90224031612945 0.9055350772057245 0.5531029111446734 0.19518581070965094
Ni 3.576180985310637 4.420428438954046 0.5036657508478757 -0.09872316230452675 0.2712660388036812 -0.8081262628372469
Ni 6.038127897973483 5.588129140303513 4.687977290164316 0.20467241004384754 0.33130695404666166 0.25999509387555225
Ni 5.193356969572362 2.89945447956254 9.269193708578248 -0.06458405452897265 -0.20683779312628248 -0.0038034329064902243
P 0.29266300398293776 5.532460307448695 12.239615119518454 -0.39696315859389053 -0.1365168361135326 1.1195822435962524
P 3.9859443900514933 6.23056804942135 12.503966261993238 -0.06199572497650614 -0.3627646583353107 0.2778532051028957
P 2.3771620527669057 8.537629611788876 1.436110578281908 -0.30521694182782916 -0.1603933856208141 0.5157411826667634
P 6.363043264830399 7.708391443008885 5.7196621011486775 -0.9777319110849485 -0.5173869458003024 0.4298357409521952
P 4.700424256342992 1.0535561278872618 12.68890086846671 -0.11697516653617918 0.2474928476434834 -0.7086736785658634
P 3.948904038229805 6.075592444857458 8.12263777726968 -0.16138480299980595 0.5820884997437459 -0.06109866708353349
P 4.761345887628664 1.0089073412250074 3.8226274859862364 0.009207377530880918 -0.5147718767749586 0.3543342681797704
P 0.2813902458383743 5.6281388575612 3.7033447370142625 0.4852630686825642 -0.8309239774580529 -0.9266811151557202
Ni 1.6361835332228536 1.3298605456916397 2.7330978117317994 -0.9575911744710152 -0.6933784429696898 -0.3914463425407194
Ni 1.8824874321541099 6.606883222229657 4.851802325761629 -0.24440341008488228 -0.5362711842993151 -0.48476298911769417
Ni 5.854947834481041 5.497974151427576 9.219010530167198 0.1831515052529362 0.6447483406668122 -0.3430370979993963
Ni 8.711423231349896 2.4422805075411462 10.036236758343026 -0.6640496120985855 -0.39218167804484716 1.2211045659124713
Ni 2.3024134675361014 5.077380234458157 7.105298882274736 -0.34750773217624026 0.37371524380954346 -0.5029149774363726
Ni 0.4674214416749868 -0.000544233239485333 9.212022142151717 -0.4929766352767382 -0.13189682084301801 0.013118282549512892
Ni 1.381106919386461 1.1810583330980298 11.475914185318874 0.2977759121687517 -0.47912867365005235 -0.5820172801861783
Ni 4.214928494843904 6.842338558078635 1.5536234410471972 0.026584178246431635 0.3979070105643986 -0.066176338716757
Ni 5.500284660703003 7.6182906066940905 7.864125183428777 0.5967923816128239 0.6318336894876732 0.5666976191099724
Ni 5.249116056695751 3.0458378777584376 4.762716849968263 0.562071947412503 -0.500684288333641 -0.20760449608897794
Ni 0.7936951352739011 7.36733861293141 7.0916136275312605 0.2930342837187082 1.4378935567141946 -1.1291989407504102
Ni 5.061098364407883 4.51654923498255 6.873271403546099 0.40883574166176045 -0.0042446342089668835 0.23450157759013807
Ni 8.094372847981186 7.061638379853338 9.005489689209119 -0.4023069394043072 0.7440047497669896 0.8288244146165469
Ni 4.712789091137269 0.18272337689347198 10.524239783423027 -0.9031056418286252 0.8402074596425079 -0.5985445884172401
Ni 8.206206912167966 7.117117678744156 4.871128472290816 0.4214043223553904 0.2670517436120175 0.08158213174886594
Ni 7.32213927523087 6.011331405634645 6.961247654378722 -1.0435794057073768 0.11025764530668752 -0.9921653129014589
Ni 2.6056948862164604 5.147895894492965 2.5340943698734244 -1.5703645048931278 0.7290098190200541 0.9060989201289943
Ni 2.3077384693818117 5.124917157714695 11.439970422860327 0.132740656900552 0.40999916584224233 0.08503640884605355
Ni 1.1271855601877816 3.3991291866541897 3.873815194406486 0.11831419706257688 0.18936534737313193 -0.3002683395733022
Ni 3.678962546359708 2.5649180076759173 2.7471260326958467 0.14481712844911188 0.8430390155540319 -0.29829553211764753
Ni 0.9944486073998747 3.291221183150266 8.199861134544712 0.3531690442270756 0.5084611040655824 -0.6759463635361713
Ni 3.521649356239818 2.8031892767043214 7.365408976669355 0.1807549799963016 -0.698405463870636 -0.1946242817792261
Ni 4.021459444734326 6.65068361876734 5.920567200445851 0.5407058230319011 0.8311474063227686 0.8323378270864439
Ni 0.6769864380415829 7.45092309105535 11.215671417149455 0.3224947550716704 -0.20360051713590743 0.4698014827118554
P 0.17572235328039115 5.577677696002949 7.887110238005845 0.7261772346672655 -1.967179053724296 0.7133839395573391
P 8.552720125494009 1.615849246513725 7.991875587878115 -0.5960945842148508 -0.1472265092215529 -0.27837950992001087
P 1.821105504098724 3.2774122800588463 10.332792428929446 -0.28792010242059446 -0.7248060653513516 0.42092095496106857
P 4.045078986819451 6.112019067652861 3.8530233185557003 0.2291817080391214 0.7805617229554169 -1.4411498588679632
P 6.8782778078237525 3.8713395198195735 10.257009529780815 0.4693086022358369 0.2473154415253547 0.7667626122887955
P 6.3462559708761255 7.767706548313987 10.12513721288582 -0.4425251634944056 -0.5873050109476788 -0.15559519290122234
P 2.352396281470923 8.473540055676349 5.864862265883605 0.4702961629600868 0.24453582189768855 -0.22612980858667509
P 6.975012332878542 4.106181126642266 1.6432378068543916 -0.013944635105550177 -0.5024244109531992 -0.7416429344030324
Ni 5.394786446169935 3.0125611289361753 0.23187765664280896 0.6514172680465555 -0.47154391932425893 1.1986315816209356
Ni 1.5005042912795203 1.0134290800804329 7.139590991618427 -0.7331354111526536 0.8034710234534227 -1.2974375334472559
Ni 6.851959663108342 0.7767318454959129 9.115116133986643 -0.4105439826021187 -0.32438451589521555 0.26708465373248197
Ni 2.519502059730806 1.4435538478109886 9.247225819607978 1.0934492939546268 0.7351673539810178 0.7489237843351618
Ni 6.3667527152686825 1.90861604290552 2.680998535198979 0.5612227120383302 1.1093675078467797 -0.9430328170408662
Ni 4.01066503421319 6.820208211424935 10.335963061384358 0.07528164345213487 0.37846355712780627 -0.04526298560285753
Ni 8.390027780967264 7.08101597131561 0.2858749804436854 -0.4000739363087304 0.18987751112286008 0.13372076142563422
Ni 7.584255722015829 3.9727582414132168 8.181949272404038 0.14057480823299018 -1.1933245675857254 -0.47941586587316787
Ni 2.937821569132227 8.37522608092156 12.541732258134243 0.8644167098988597 0.09360178191756137 -1.2503740043005498
Ni 0.06709773088401012 4.9193720864702675 10.136021877675528 -0.34045828152862656 -0.5884283259188446 -0.17188621675176202
Ni 8.424865928635812 2.030576636026006 5.6764790438080235 0.7590606156588475 1.4620665544159723 1.6901776550987344
Ni 3.4278841966210267 2.770354773798059 11.84179415959496 0.22997129381995232 -0.13622630145630735 -1.1395568869459665
Ni 0.9739157612998891 3.2825477479405576 12.65064569419005 0.09012436489192222 0.6255596835535032 -0.25623022751648133
Ni 3.0478685988012932 8.408015456693537 8.059402929080525 0.9799973100803575 -1.0089273628511464 -0.202685975741438
Ni 5.653527383310324 7.882266291411621 3.4915017229089256 -0.3520814675898517 -0.30918826777075137 -0.028703281471963465
Ni 3.0990337436543998 8.394874435189546 3.533878809631238 0.4231673277930841 -0.18177519373069986 0.35438440469141547
Ni 3.3958168549976206 4.4364214953448915 9.345690518991281 0.15567155466511254 -0.4398828407755521 0.2767957103726588
Ni 7.260179719856628 6.155341116567117 11.33002718560012 0.09073885854746953 0.1516999716118742 -0.18618617831420192
Ni 0.47022564179949916 0.17203275878119376 0.33048495777045417 0.3725029686689972 -0.31127343243455424 0.40791194429591043
Ni 4.6627701754950195 0.32323844254685924 1.5507705036176562 -0.16020595220035636 -0.4456297705616583 0.35812535979108645
Ni 6.162958576834539 5.698374729363436 0.2806528684641462 -0.5164564635662332 0.2145606156918369 0.684021427234822
Ni 7.7888440980134 8.827490220732672 11.428346575611021 0.07324532974839644 -0.051036397751525006 -0.11411712826209379
Ni 0.20624273674048407 4.7893698380200735 5.7092918856898285 -0.5325993918746827 -0.5732122803000387 1.0477229955621052
Ni 7.972683017666414 8.849133194336085 2.3921442613497526 0.2909082385146409 0.11705461362386292 0.6541511220379508
P 8.528649312066024 1.6627904915976923 3.6105335650142707 0.4462972289423282 -0.4216390640740158 -1.5364480546513408
P 1.882902601789538 3.4042195274016147 1.5050522038728313 -0.5031132094901077 -1.3363900034510532 0.33534975665746763
P 4.679719927132721 0.9729951677604611 8.39155939590492 -0.2975879645276617 0.0017473217084098941 -1.1834037089275877
P 8.42291643643467 1.701726183059379 12.320695944232225 -0.25754740366600803 0.5430874358902003 0.203147745869205
P 6.4358423578600625 7.751659339361997 1.2161925147674908 -0.2731285459337167 -0.2563677815356101 0.7700775355946415
P 1.7930815537073153 3.1328700689418048 6.0354771301055425 -0.30962432686690544 0.04274330450479736 0.030946568980185413
P 7.02062684021451 3.8780995645355687 5.911650078711 -0.8298335726073515 0.19638625877565535 0.2384420502951248
P 2.3570985288634914 8.4803723038072 10.190776434789717 0.10689541370267398 -0.1784939518762668 1.0121409846924376
