# total energy = -340852.0224333455 ev
CRYSTAL
PRIMVEC
9.48033013198217 0.00000000000000 0.00000000000000
0.00000000000000 9.48033013198217 0.00000000000000
0.00000000000000 0.00000000000000 13.87542143460547
PRIMCOORD
 96 1
Ni 5.012032603190418 6.1666515156363255 3.669827342338835 -1.23192325379453 -1.5601793368300096 -0.011392815217973928
Ni 7.6406532769084174 0.19439796575500884 3.4634159019769055 -0.3861745526188188 2.026957202224193 0.057806369485506895
Ni 4.613251987766253 4.393753899402908 0.9635760355982435 0.7293422626588084 0.197581307525021 1.8254331080013397
Ni 7.1434194309027585 2.792412341003167 5.342634474941029 -1.155839426156074 1.329307128462343 -1.530617306902177
Ni 2.6369728447475898 7.471429380338397 7.598930343081826 0.3506473062464865 0.042444285207139804 0.73571577028532
Ni 3.403779883972776 2.430481769610804 7.631967398250857 0.5825734097999645 -0.047525556384789114 -0.10468040832922618
Ni 6.420582163794757 4.708690473299609 8.074274106332293 0.7882876308447649 -0.4294282211011314 -3.475442675521621
Ni 8.39202633833999 3.1681462733706542 8.7777999405376 -0.6463843336083384 -0.6232426053845523 0.8547773870368827
Ni 4.74872590832567 3.578796262380572 6.144786081740017 0.5816701812594046 -0.4166639794569275 -1.2157738977281771
Ni 5.656628704001928 3.6810321447677485 3.499090385046541 -0.5004899129346477 1.4829729655513364 -0.19437205655910395
Ni 4.367142612138368 0.5329775354867776 2.3431423302869585 -0.8210753667987472 -0.1414528399625693 2.2114639359534425
Ni 1.693623093929858 6.280699889627213 2.697382457707468 0.327336656545004 0.7616851977658882 1.3718794546069148
Ni 1.7475377325737633 2.9857257569672737 11.652052181234342 -0.135843721305908 0.049956534423784935 -0.7938725811317103
Ni 8.156847783594191 8.16792080943138 1.8043324955749778 0.4457896931782903 1.016040833967476 -0.36040284297135355
Ni 2.7651089896238026 8.02865475673594 11.813978119508588 -1.4170244265746694 0.2745408529002111 1.0109402795161169
Ni 8.522011147632515 6.163835857525329 2.888696472002856 1.7288218498334933 2.612768402235165 -0.4017045299336178
Ni 4.181072168554065 3.7997258806252647 9.871974162801369 -0.696395889639775 0.1903310537205109 -0.03464690064990807
Ni 5.9888099987871914 0.7476624601364749 6.277976190720515 -0.5636665455931325 -1.3092126717053127 -0.2943625156118285
Ni 3.1758253409461004 2.5425203135695997 2.3262142524317526 -0.3359467668115182 2.4342232854059884 -2.731716890447631
Ni 4.226027895026617 5.417838143396567 11.819847392022119 0.12522043726410692 -0.8625719433806371 -1.0829905605151477
Ni 2.087559260550255 3.8895804515883268 5.3759350832935136 -0.45387478417926996 -1.183144798839246 1.7908810810580835
Ni 7.652949265359472 6.372336762694205 10.860334626007623 0.4127613019684117 -0.25989559218321046 1.3528239806373605
Ni 9.259950580972227 5.387055510782401 7.572233732844225 1.835782312446148 -1.8365942668244823 -0.08681998310903756
Ni 0.6794201982496412 0.7858264779534091 11.808025420088066 -0.270365895586915 -0.36729108545075456 0.8925582053300822
P 5.630804284155611 1.741688368753948 4.255605577654561 -0.6409107120882768 -2.758423710314856 -0.9718278868956876
P 5.184896946611022 2.5584093472195355 12.363388859606822 0.13687036279820944 0.5131196858835163 -0.34997727676265533
P 9.015689869760653 3.542287510241011 6.262574446050057 0.05236308698274853 0.5844611137409804 -0.027927065427571257
P 2.4811541352784094 2.533950094942188 9.517664828969377 -1.4101564958102422 -0.66548248789037 1.0295920902893492
P 0.856779166284465 7.871669966634932 4.271174176139003 -0.25323874898832516 -0.5909868306746402 -0.9687736734503961
P 8.851708595868685 5.204957325610583 13.174865319328289 -0.5934239793612232 -1.0995716048022803 -1.0655983331806294
P 4.57973902001415 5.741307014599318 8.441917524787575 -0.08472504825322183 -0.1645536876460908 -0.15582324975162842
P 6.122444735260638 2.5126951943197793 7.418951959774044 -0.3005699299741211 0.36649687168423334 2.069551639855952
Ni 0.40076958872950996 7.591763213344743 6.3904091164214565 0.3307413113511788 -1.2890593366858896 -0.6329665175405357
Ni 3.7300359722955045 7.057091542826197 9.925782621745464 -0.7817305464525376 -0.7805172428707267 -0.4947607237603544
Ni 5.802417223971328 2.2538916563665583 1.5369663232586168 -0.6986535753256999 0.1493417557923428 -0.11627659780725781
Ni 1.8370889329659437 5.404357113653006 12.564443913326617 -0.5497437648644532 -0.5716076548170801 -0.2666887038456439
Ni 9.089266713529838 9.800101882427327 5.340385740584368 1.052243509140278 -0.4432931520086817 -2.495086182329632
Ni 3.1879317227903536 0.3813358595654267 10.04402888601093 -1.9175333656727105 -0.3039851263032571 -0.05778605777053273
Ni 8.114508628295496 1.6297351477682127 6.926444058442903 1.3178279241781496 -0.7615694981236303 2.5761438090335953
Ni 5.917622198263702 8.168375865287702 3.283993066027051 0.005273846804429627 0.6327662286042716 -0.7376356130158521
Ni 3.2795117138753063 3.1023527808106572 13.506931902116438 2.0353117448364753 1.2542548274121947 -1.0937285157579422
Ni 1.048714142217127 2.8844568682747824 7.6160802606669895 0.5461059110015498 -0.533447598807591 -0.039365646281816075
Ni 7.631172946568361 7.619113966375807 5.052652026565428 0.7390571759537272 0.6214873132563425 -1.24618336325797
Ni 7.309353652844779 1.2106855860770045 12.811884327334246 -0.3354472014672804 -0.6508318278567307 0.006969232228981546
Ni 1.2179475191174882 3.996878830377094 2.997577117925379 0.562921954117624 0.2656198962614974 -1.0559253288672397
Ni 1.0524588727014497 0.19654146844489578 7.183278531784494 -0.27279353119180116 0.8816793536340494 0.9717371269540941
Ni 6.142448232278159 4.829261314564456 10.100710833081099 0.34741722934496294 0.26537127058580107 3.170720928162656
Ni 7.2669196942426835 8.302797469179373 13.334918892360372 0.2692837182663298 -0.6288895192576847 0.10480073595717435
Ni 3.3554301992384836 0.9867791441055335 12.338677430542429 -0.764612141604696 0.3893128411374844 0.28750718325289193
Ni 0.44290681299196216 0.9587552876203244 9.414376629914452 -0.3652182620821259 1.34384903083226 0.2576062819284015
Ni 3.748304568860794 6.211929573340439 -0.061378502720632305 -1.2590237095557477 1.1268939467663173 1.4239082981786961
Ni 1.7792020359095544 1.671230553666643 0.35556832170115127 -0.8238189909821554 -0.412102071117858 0.1969912393495059
Ni 4.9511214807555515 7.687808440019863 12.568870279562391 1.1722674898051102 0.5661607727698958 -0.8358401838127475
Ni 0.9142991745566942 6.592204583940812 9.714779857399845 1.3983679878157467 -0.23029371015637756 2.051810256712131
Ni 6.648337619884291 5.2105507205112165 5.532324508649166 -0.6081864823823784 0.6611704907785775 -0.2815872182240312
Ni 8.775230771015444 2.9330909629192763 13.005335208088285 1.580423946011659 1.6195144842552172 0.3153843692791342
P -0.21196691394120284 8.376156265350735 12.556812247402872 0.21183396078929323 0.29648470416115397 -0.05770352535905546
P 8.476685688276701 2.1239068470740343 10.915822051454944 -0.006405903526343806 -0.6646232252138683 -0.16097136961147115
P 1.2894576508725395 8.523063464300261 9.187291433179961 2.9572561166381583 1.4547368535237786 0.28183892922352105
P 5.5173152496547875 6.633396619268361 1.2318997212789502 -0.9779154878506642 0.2823032704544493 0.7202482707773402
P 3.4425165137422495 8.983229218676298 13.880833286629192 -0.7480125853748021 -0.6890517905698779 0.5766745278170262
P 9.786165796827442 0.41321441836690304 2.9214149880724616 -4.9676901243963485 -0.005614517973300009 -2.8482061184863268
P 7.748624759151329 1.944719123316613 0.9256736748986949 0.8000630262131383 0.6156411388882107 -0.04164955721998633
P 5.430304777793742 8.170935554479517 10.22644940241431 1.5442873481901018 1.5006055910314349 0.5067348654030951
Ni 7.296014828056319 0.44079649145826544 9.134620613876672 0.8078879215741956 0.2471076963899228 -2.0294915386102725
Ni 3.579848579048318 7.677721368538041 2.193995877311111 0.4801069784029215 0.32113721260251143 -0.7169996819330555
Ni 1.2009872081391257 4.4833145801254295 9.58566818653164 1.4165377167462376 -2.755400864328132 0.08120083715004725
Ni 3.2973726562359738 0.23836773787219412 6.942012656927345 1.147535534276069 -0.0134358137899317 0.40651737794122894
Ni 5.680405372494791 7.993681818111468 7.852309236014467 -0.8244170295774704 0.004447751358708469 0.3698547324128727
Ni 4.096498141590415 5.822164752069666 6.0868972886175605 1.8267384570763248 -0.2779131118065536 1.2725345995579889
Ni 7.687012092271297 6.765571384869438 7.1759796254556845 -3.690456319590476 -0.30994931430649203 -1.1386713990172195
Ni 6.22535372110196 2.2012284213275404 10.260999518305614 0.4154067100110588 1.80326325677252 0.2759675580444086
Ni 0.7920948723742549 9.069841516663061 0.6053683899304203 -0.12628718796572444 -0.9404858822492964 0.008575657484152972
Ni 7.643724903938597 8.608320075048397 10.836718175097507 0.08712671571617898 0.5965972348828822 1.6695998309473825
Ni 3.391019359335059 1.647871019708742 4.197509165297657 6.963706156956994 5.462563205364851 3.8037159849482816
Ni 9.037693716479927 5.478825108474155 5.077210822311346 1.4375297456168727 -0.12422850566448283 1.1499996795458451
Ni 0.6081669834468052 6.26699133195549 0.6935743314473465 -0.11067185002597067 0.3008118707815981 -0.2039825830656745
Ni 2.0341565597447127 0.41216115366612266 3.7022955776874626 -1.723497866517419 -5.75323773060213 -0.8711419444378352
Ni 7.5581459619589 6.183640267605707 0.7904993327780233 -0.4257435731606926 -0.3261156396537093 -1.1592736486486035
Ni 5.539025206133519 0.45919591658224845 11.601809274531142 -0.6983746106327005 -1.3511561060166344 -0.5972176420757005
Ni 6.457830381700841 4.207399045908404 13.476725673586948 0.6900324093155923 -0.945149606273553 -0.49940336473868824
Ni 2.1869320831747343 6.452398152415989 5.255468525662407 -0.496083556336836 1.0156765086495219 -3.5873291146809834
Ni 8.899062845917271 7.741855803288528 8.656181522770176 -1.5143108564326695 1.3855798349121429 2.063343711273027
Ni 5.4793654873035385 9.267989901100595 0.6917787568809397 1.3632109802986394 -0.9989679376455892 -1.5297328474146943
Ni 4.949490863937061 0.6769524682621242 8.739891891639845 0.8509135332061024 0.6072822254005541 -0.6189126105506308
Ni 4.233090741129959 9.041874542159892 5.042869273687522 0.5031823721651464 -1.0202381598782753 -1.2559252731360822
Ni 8.6154682441248 3.9640958480611763 1.7508558481927834 -0.09608392490946678 -0.846054148231272 -1.70305399684077
Ni 9.220133193543987 2.664323597778654 4.230838214641161 0.3635768698239609 -0.6020649428656728 -0.5361819670196185
P 1.646031835622771 3.9532408698218107 0.6551116832247005 -1.0161655324707983 0.41486626412655647 0.8754104899062022
P 8.292767279679593 8.918668169060508 7.092338462997496 -2.0123006286532825 1.0687834157768301 -0.2828393454635774
P 5.593148412044905 7.430066699064727 5.679460183559887 -0.09920807236074526 -0.2651355004259111 -0.6942778148555075
P 8.64374806952919 5.1083527594454 9.572403308319831 -0.9713961986749076 0.5671398488537136 1.0504200827782944
P 1.9635660200326466 1.530532971089854 5.628218050038845 -1.640876237760445 0.2038064624991264 2.7309134207097294
P 1.887211439473826 5.522140737797876 6.985081797662224 -0.4743027130163186 -1.1495304532189106 2.045649636427374
P 7.819366984148836 4.488813171722662 3.6543421707613857 -2.0451660119227357 -3.0342732547241615 0.8173315834855989
P 3.2201174442948477 4.533787858855893 3.787726626513854 1.6185140680151608 1.1853009259503007 -1.5280150933926395
