# total energy = -381181.28403402946 ev
CRYSTAL
PRIMVEC
9.12689211782579 0.00000000000000 0.00000000000000

0.00000000000000 9.12689211782579 0.00000000000000

0.00000000000000 0.00000000000000 13.35812917484051

PRIMCOORD
 96 1
Ni 4.091886792238539 0.7914457260527302 9.7689467595386 -0.5424261481571174 0.503757527942326 -0.28904778826713445
Ni 2.797675277777169 2.29701049986647 11.492104848644946 0.7729456011710559 -1.5608681353669183 -0.5300311169268743
Ni 1.0324066224829465 8.995072125625903 1.9890518286220302 0.17196977760450383 0.5726759481805944 0.33314734968951015
Ni 4.494227564526663 3.9445331237361287 10.771781339821814 0.48979772332812416 -1.1715282976462404 0.799850653092016
Ni 7.41329050356627 2.7598990725166255 10.317311412190342 1.3452813924034122 0.29117203369898886 1.1290495596567394
Ni 5.813200336507205 6.563056641895223 4.081308724614241 0.9839444676535634 -0.906353973562594 -1.0478993732389696
Ni 3.538879289715804 3.194822848617299 4.435673077339047 -0.2119000381405383 -1.012473942551824 -0.4761677912495154
Ni 8.688472448574093 1.566585347172267 8.319642884997043 0.5804892735774261 0.8770325988906572 0.0860404246305357
Ni 0.2048512616167794 7.878113977283165 12.332024409865415 0.292600024394767 -1.386644014510599 -0.5793862703212344
Ni 6.082735705860763 7.7293000060888755 8.354427295117599 0.9539630908001248 -0.28982580408373954 0.9170096535042271
Ni 5.647976213812926 4.1283304712927436 3.635027444327479 0.39483942738266836 0.2497065674653506 -0.8850963497353982
Ni 7.754444593064666 2.1545944798409757 13.276617555350585 -0.27315528540659406 -0.2109523295152883 -1.204306777628842
Ni 6.914724910775147 0.9580772154663078 6.897763495008973 -0.7064609871852608 0.524383945943426 0.3453194662756698
Ni 4.888436276199386 1.7585147553442828 3.0933016927886916 -0.7231577311146513 1.0827581327893676 -2.3129865153799782
Ni 0.23199189983453217 9.021959948940124 6.572586942338098 -0.7442528612220537 1.1467906856902443 -0.3363848827902013
Ni 5.696503897642428 0.6945254363927242 1.1068601552283948 0.4799411422490186 1.142689261927361 -1.3379398644366765
Ni 1.9843962011024838 6.413165697465673 5.780970543408254 0.050629906341725706 1.5502607921647173 -1.1748216236855313
Ni 1.2582880682411475 7.19076775399939 7.877903146082025 0.12925038435910643 -0.3408506318710388 0.45166929188751886
Ni 2.0436114752581753 3.517011256904917 13.285687860445519 -2.6809753982287052 -1.1092083565610962 1.0266929143646835
Ni 5.122331132979274 7.8757227316252125 10.719724286923878 -0.04949090764127606 0.011947145059547167 -0.019400773124114975
Ni 6.265437826398468 4.090097921440988 12.823643525289107 0.412570011893212 0.3426123517571519 -0.23332401234226915
Ni 4.025881110565611 2.392185727809681 7.545953526988379 -0.6855877432806773 -0.8384066589883432 1.250978213543452
Ni 3.508149044943577 4.994901469329186 13.015906977701889 2.0220132279553567 2.949826656943307 -0.46741318498533696
Ni 7.463917372515349 6.627930588981946 0.0816710788000601 -0.04884298964463201 -0.5749871128122742 0.10082966712456828
P 8.378778755193864 0.6970517600496747 11.27488847398468 -1.153765831456497 0.0524751870805806 -1.2908807061653444
Ni 1.468918477761038 4.913863796821729 2.290277591767726 0.5040076962799191 -0.8549090275187406 1.5566242724889
P 4.905165868913224 5.880374260333637 5.991841902872305 0.18032483443741845 -0.7997020433292936 -0.42004780832749594
Ni 8.034329857746915 5.068801912430086 11.376062807923967 1.9102597148294327 -0.9753785803614233 1.8475353392170182
P 6.474571425659183 2.876513369354984 1.4952285688227844 -0.744417411824376 1.1340809514330596 1.0191564967783222
P 0.1658766954597126 5.797419940543089 4.314769141343294 0.54858574000061 -0.006323371114866529 -0.865698919045393
P 0.8418973586787831 5.675439031312075 12.741423920290408 0.3427511913278613 -0.6279965751297701 -1.624576215048841
Ni 3.0366538133031598 4.420564420613195 6.439873721010956 0.469480866147643 -0.4277495478471278 -0.38705695522377215
Ni 1.9397200656228122 0.3915409211924968 7.978890378738914 1.4020176687531918 -0.5976932961605383 0.6449010641945926
Ni 1.750994196481106 0.11982970082803954 10.745973227810401 -0.6347539484582617 -0.07307640827069996 -0.46634592006308717
Ni 7.847356351835464 5.75825644772526 2.510579768553767 -0.528684887311625 -0.36523163181856455 -0.30635028410132403
Ni 2.195811523319259 5.08816917688113 8.529058505215128 -0.5964709937176631 -0.9084550790659968 0.15278883380067879
Ni 2.0285429768563494 7.368824286598556 3.4183586831766695 -0.7425083677271213 0.004087282695496187 0.26806758647104156
Ni 2.851131483191763 1.415234100050838 1.4435858768136678 0.7260386522068721 0.5165973600194715 -2.0121782441428055
Ni 8.455928371784193 2.607854181616554 5.874984830711422 0.8524451393592802 0.37906673792944395 0.7202994357302498
Ni 6.5503611353677 8.957341554824481 12.376880345114024 1.088743660948841 -0.66632195307253 -0.02982299689870348
Ni 6.2282092346473785 8.106989043559718 6.032544189651701 -0.18368809448269655 -1.3007136330953664 -0.3611780305744812
Ni 7.478547780109611 4.8812807930091795 5.202189611063038 -0.2272677788458602 -0.857849341093987 -0.7673871332466718
Ni 8.299411303890244 7.7714571194250555 3.3470128570973756 0.3043965028090629 1.8237955723979171 0.5264086896829385
Ni 2.7866134848861863 0.7078853806450518 3.6194788714156982 -0.3779521647090265 -0.3927560624910784 2.0318145303164945
Ni 4.286855455388028 2.850821168869739 13.18777273957667 1.325576200665001 -1.59695793911094 0.6416658450867465
Ni 8.133484410525496 8.865315104560633 0.8495137499061143 -0.2170227040790843 -1.4792731481022459 -0.8081018373572147
Ni 5.67140494512576 5.361382683639858 1.5281164108222633 -0.23734496057620413 0.09992309614989889 0.047109294782976936
Ni 4.460047354644872 0.08900362369165728 7.399267946967502 -0.23311960964094688 -0.047754641676459694 0.15843214812938522
Ni 5.739993537184948 1.739640343051747 11.56586838836848 -1.2918849790601428 0.9445495107957087 -0.1555111178278483
Ni 2.1095350149046856 1.7333884221521405 5.870803801566735 0.15547872192801612 1.9871773512230937 0.3613546653616615
Ni 3.845688885279572 5.913130675090847 9.899094411573948 0.48418526223735325 1.2114462168871007 -0.6554754972763291
Ni 3.241607296108371 6.274692494708251 1.638908663365937 0.5625344888712183 0.49103133862490916 -0.11390424092033931
Ni 8.888515663577861 4.17125424354216 9.265398796500621 1.2966494903283217 0.5647338105153822 -0.9306748096961455
Ni 0.3347871697618037 1.3557267653567708 4.053350316889036 0.5448535266516875 -0.06689316227812352 -0.23829626874587992
Ni 3.4614467394789226 5.49164168375546 4.017444211763279 0.5019610981635356 -0.23023637455588092 -0.09330507661274898
Ni 2.114271871761468 4.54487268725939 10.972447008847995 -0.6452864725584693 0.7797875637935539 0.10309198079618374
P 5.533032138178405 2.602962167598759 9.403054229750591 -1.5323098641132513 0.05520209909344041 -1.416267750914303
Ni 3.9224369186296353 6.92019191897787 7.638178030804811 -0.7574176807387858 -0.43418681883203936 -0.015545146823450647
P 5.28505448731371 5.852993584860908 11.828368749503912 0.39608718374684043 0.281510856460141 -0.8875489250409488
Ni 3.0073473636555144 7.137183772099258 11.643625855954305 -1.047792158237144 0.03314049130771067 0.6587829643830073
P 2.1381752014491617 8.843209772562316 5.591992772052199 0.9645987161371001 -2.382598105030529 -0.5404232587944757
P 1.9794768064092165 2.691493018293921 2.87282610505799 -0.5194404858952215 1.0683856661177793 0.7310792999545732
P 2.890203707091349 8.000961941237481 9.483189252656631 0.5378261874912609 -0.9982991937133386 -0.5942626732124346
Ni 6.638298738094287 0.6754456690341433 9.493048121205181 0.135263937543038 -0.9360427588762782 0.01280306530193924
Ni 5.097487733433683 7.274643889864188 0.11844788940584909 -0.9892993042075735 0.5519898805861525 0.07809134498678809
Ni 0.5798496913778349 2.109361603960025 1.1950478347909648 -0.24925199642643528 0.9727969356771763 1.8963765290894374
Ni 3.859789933148028 3.7024605718817196 1.9066725030164091 -0.8348559655226074 0.8743398825498426 0.7551962476074349
Ni 4.064131914201015 8.654958501795472 2.071204807310411 -0.246524313082627 -2.0048475148093474 1.2715596372392293
Ni 0.740285846621116 0.8630982156973183 12.72634264424003 1.2880514642466656 1.0986056413445855 0.8588384444801338
Ni 4.7641097557695415 4.5633820238789555 8.178287409801525 -0.4223309479347178 -0.18093264322474645 -0.31910295578130204
Ni 6.675919786193818 2.150058414604327 4.325014990105189 1.6242946792526802 0.0007438201445600093 1.4026223922167262
Ni 7.775472951827723 1.2409195930996124 2.339943399007712 -0.5038176917563001 1.2547803608983616 1.3413967126370252
Ni 4.026282693805877 7.736911833870295 4.965149627360517 -1.2646312855505124 1.0518061644925434 0.580944873057606
Ni 1.6386147774491964 2.1591579257530973 9.337011127821185 0.7737706681755125 1.7241632680155596 0.28881561765167035
Ni 6.804855386994904 5.566975048872766 7.30097862353386 0.14679970609677942 0.892696016459527 0.03793199915908306
Ni 7.403205288100482 7.2306887788386325 10.946145131988892 0.06138200265190719 0.5097145168567092 -0.7679993129093742
Ni 8.513126602846727 7.050113224095975 5.844582241355684 -0.756016172405569 -0.1587324529786234 0.1367487496186806
Ni 2.6834613534885863 8.432043295880149 0.21992523615369988 -0.4187776833658208 -0.06484116484510123 -0.6027773955516651
Ni 0.4230204837834949 5.015938954984067 6.760468573986062 -1.2411843673814817 -0.6229075906426369 0.8949624438962006
Ni 0.6959063351257322 6.835503489740714 1.151649464166687 -0.04980895310232712 0.1927113810272294 0.32525406298436244
Ni 1.2558876956913716 3.929628909387139 4.716835194187508 -0.09333901517447796 -0.19476697800467746 -0.28410227133640104
Ni 6.462304883047399 5.1121820292707145 9.742377464749044 -0.4064911526889838 0.4355687867812305 -0.26036173318635164
Ni 0.5484988179615586 2.857164358687588 11.254917921984054 -1.516297547845395 -0.43026202985633644 1.0843959255031066
Ni 8.416335915050626 3.6268807806851595 3.2305299875012863 -0.13670144132051296 -0.9899155976353339 -0.18548786669559666
Ni 5.988847369664771 8.989696386341423 3.7818599673067257 0.7117240353564129 -0.738025135144787 -0.3914427429962936
Ni 8.896866769597043 4.388857598415773 0.8299247019837406 -0.9853961124984256 0.04584328358635976 -1.332502238360873
Ni 6.969376739018717 3.2661860157910585 7.8104846215547035 -0.1053488951511605 -0.23750539741346835 0.2775349025315284
Ni 8.713626162441708 8.423235845269755 9.049731255382932 -0.3549382203123565 0.39143143014238396 0.5917759022348389
P 6.290007419189332 7.86044431471143 1.9735963500068565 0.8897181647781258 -1.6410166199930512 -0.6148754643667799
Ni 5.320667619211908 3.3676040377420517 5.977108361400428 1.2262997369601654 1.2860817421148045 -0.13471449279747122
P 1.2920575679908484 3.115829599878472 7.419278657292156 -0.22339441193338302 0.09418079434948297 0.12520038265944888
Ni 0.7818214186240655 6.545085791893288 10.32230656008575 0.4804386507107274 -0.23455994163189925 0.3723008799605201
P 4.167539598569693 0.6755013430742711 12.671480897484502 -0.27097087616076554 -0.4386901060190316 0.02159058168658217
P 8.309669930300693 6.26819414772939 8.877999658817966 -0.746162933760573 0.19818320277507806 -0.5344320742080473
P 7.847748808183907 0.22990640505269253 5.01470864996616 -0.3690227234298806 -0.21511211731993277 -0.2167897621326718
Ni 4.741192130398867 1.0575785901342099 5.293091628254139 -0.994840545740777 0.33237139075543404 1.2555938579385926
