# total energy = -381172.3574938409 ev
CRYSTAL
PRIMVEC
9.28142937750887 0.00000000000000 0.00000000000000
0.00000000000000 9.28142937750887 0.00000000000000
0.00000000000000 0.00000000000000 13.58431007524069
PRIMCOORD
 96 1
Ni 4.879795124618458 7.771276001508606 7.898135508892783 -0.5418772176321829 -0.5030093369223918 0.925495065267419
Ni 2.5686913196139414 1.1867235836832393 2.6629052548028342 -0.040421341239840064 0.1000184840771826 -0.44112442649213707
Ni 0.25334033244226095 5.213908025959216 5.189355860341218 0.3595690342161485 -1.336539384544724 0.24177779953657716
Ni 1.8006530234322737 3.128556432169523 6.20895338263237 -0.3220306709510583 1.195418988220909 -0.27725490939726444
Ni 0.7141178311464121 7.44186878495533 5.652648626456429 0.5210438258265994 0.6193995774893784 0.7361101775102613
Ni 2.8859955520195326 0.007936550417703253 10.124359712418014 -0.03904631526918437 0.6039292497679213 -2.3036698659647423
Ni 6.167844074820311 3.0055032390483563 4.491774752243831 0.3509679228106988 -0.5380357323989057 -0.14785822926828085
Ni 2.4551887175111546 5.453350345776675 12.183102375798969 -0.560400473247351 -1.1807415887143922 0.33968257970486665
Ni 5.325526497861099 8.888722994947736 1.1599141743959793 -0.4122486239980513 -1.0939992529208256 -0.4566780579560199
Ni 3.9660012586091544 8.668298324300988 11.933925692657818 -0.05980540219340668 0.819203603697331 0.3669889808293034
Ni 7.376323329394787 8.129195769673604 2.8979407518646783 -1.1084969323163685 0.79655167062577 -1.887882375575497
Ni 6.351597817271123 4.4366811145120515 11.055672276723909 -0.7443719032984212 0.5018145452833422 -1.8330595141983463
Ni 0.7914850435389381 8.333739914341297 2.3525444598519076 -0.35632481624723794 0.4537896806646313 -0.7253578240897637
Ni 9.117296760749138 8.648343250744606 11.553510523665564 -0.5487078674007712 0.994548725531971 -0.576810024953626
Ni 3.2635548251358353 7.077804710420877 5.149648976535843 0.7643025807840772 -0.8975440885804479 0.8024482386158631
Ni 1.837379640205577 2.142098254126306 0.3594855453319577 2.1911979866155553 -0.5228767652702802 0.8852372461886369
Ni 5.660920236481289 8.687566572069848 9.986709615026092 0.4374824588641756 -0.5883193111448062 -0.324647282638299
Ni 8.841591895636432 6.158080010922026 1.8470174766618312 0.30754327596816067 -0.15753303335388352 0.20995011350301906
Ni 0.582918327299461 0.38051169585969125 9.064606085130729 0.06140951345573294 0.5604056154536735 1.472639187725496
Ni 2.6355454567426007 9.015089658422218 0.08026673098741609 -0.7491806375409742 -0.6629797760731743 2.821134973301148
Ni 8.651396841070211 3.4299708571664977 3.6637969839565296 -0.1624770076227202 0.5433422322134835 -0.4369016466600411
Ni 0.15450888604671714 2.2799367645383177 11.228165788831184 -0.8314672515560326 -0.24181945140779 -1.932498985843607
Ni 2.1575425529159893 8.32470908337834 7.774368573838367 0.38256420955974113 0.12146971197242305 -0.2598943066316298
Ni 0.4624871380293073 2.8629868881375464 8.396938096365837 1.7328068026231707 0.10618013280320422 -0.9366454254572836
P 2.135434187701431 2.136844964994719 9.705691131489651 -0.4762261552912766 0.1078984010458916 0.10692138184460297
Ni 5.10803475895566 0.9700486105791782 8.333254495575252 0.04768547900142111 -0.38703458662626894 -0.6610486204887325
P 6.949748826766275 5.001855204776587 4.8250384027797475 1.1994509921984375 -0.43921795349804355 0.19407252304081413
Ni 1.6292064565794908 6.353918174661399 3.395275945324121 -0.47942229363107114 0.43134472139755387 -0.07463732499991663
P 8.45382305000291 5.16919937976336 9.560407058283719 -0.9331086159486189 -1.0119581792576702 0.6270020724269847
P 9.134226088268598 8.408186260850943 7.460951404132968 0.6503631157504284 -0.4838841860571666 0.09343003222638749
P 0.4068978719589645 4.943280102816436 13.3521680397422 0.07559634647907626 -0.9667790116178704 0.635322676477538
Ni 3.7203032552675097 4.754727861282531 10.424083989091912 1.2248619760723745 -0.24897354595406795 -1.3619303138140029
Ni 0.6348321472636053 7.010783507560119 9.522846040992874 -0.09784950145032181 2.413505850352979 -0.7059511374283778
Ni 3.3382517702436307 6.94652817070857 9.648691088126021 -0.041652899654096 0.5300041203436808 0.8577850635149551
Ni 3.7663669901792876 6.710919081299849 0.15487457437142477 1.2138134315676967 0.6145818443857609 0.09029122948708966
Ni 7.660232978239512 0.8942740914993385 8.222732160504536 0.20440835774918345 -1.3976377945179412 2.229113016493774
Ni 2.0627977199562015 4.119172690656116 3.826210863560442 0.4459359889481675 -0.6490325698644629 0.5973410550274422
Ni 7.105769657688495 7.841053788949014 7.312054070398896 0.3983785508841784 -0.31677842141318346 -0.39737350665843174
Ni 5.7067612170836 6.456821384205402 5.900956567790658 -0.4746351566550729 0.4070382834417055 -0.2840526490453882
Ni 4.8173311036722035 3.1640393373816376 6.739583848356374 0.15924847338309348 0.27732587184451596 -0.1729532245636957
Ni 7.019489488488438 5.113854215290475 2.5724475141573215 0.1884124965415594 -0.7520353333809501 1.3129407712891776
Ni 3.264622189535363 4.191001674029529 0.6860563570113589 -0.6630556236164323 -0.5701588381856956 -0.695738201451118
Ni 2.2377897929013275 9.071288714414726 4.6806509156694185 0.12145839911851342 0.8708323836172164 -0.22737987894369224
Ni 6.186880286850144 9.239663128082784 12.169585829929126 0.3775968382521368 0.30360691702823195 1.4966692320915063
Ni 2.3298151669997105 3.0198244848611453 11.649538050190698 0.5254139298698371 0.5794608323129117 0.1439748350534746
Ni 8.155573592486274 6.7908229083914255 4.37194685589515 -0.2960067360834709 -0.7103901470363378 0.5030245064310434
Ni 6.656149365459752 6.353676857492811 9.511652636942177 -1.0711532015605876 0.5848966586165024 -0.17999984699783195
Ni 0.6744694203472721 0.9358372612169351 6.516611425295102 0.46429469396101325 0.06835663419752742 -0.29095477548186016
Ni 4.923028023514099 0.033456769138925174 3.6260057872125673 -0.6060928330781432 -0.2076284073483779 -0.10984035526361083
Ni 4.8142032619101105 4.9096070763687365 4.15754583303356 -1.1603717668087887 0.7168119914022816 0.6474120035419044
Ni 7.172623794817155 3.1015660350058214 1.4076745113861022 -0.09092526352666276 -0.5353119057098394 -0.0964140545553759
Ni 4.203002562452042 3.2716111059948774 2.6735826113699326 0.08480166712742813 -0.14744016789425576 -1.0058260982180034
Ni 6.446064207344078 2.4140719845554472 12.339009045137587 1.502047208573968 0.273681076003077 0.875904398823485
Ni 8.484461048984127 2.9908014546235613 5.963824330922821 -0.08444968310464811 0.43352938775369854 0.7065360633975704
Ni 5.50635659000016 3.0757172536781368 9.238812020992029 -0.24380511437925106 1.8346859940581757 -1.1802800756969416
Ni 3.4565343085703883 2.2932741788176294 4.628106886638075 0.4301561004060915 -0.778890248790265 0.9894767103257023
P 6.327930171890298 7.0173269154007 13.424694986618606 -1.3469173853449385 -0.21456087280215305 0.9515555097998968
Ni 3.2233476722771166 7.929589345532421 2.3583583473289855 -0.12904932409189387 0.30080030081737225 0.20964878021251634
P 5.3681746666943875 1.7396554683566732 1.75608452682279 0.6753290416671466 -0.4972662637910275 0.19964487492226907
Ni 1.3656788270509579 4.935929210604039 9.859057473557396 0.4323423094241329 -2.0646140933450186 0.7597355302386851
P 3.8807049209425744 8.997538475122164 6.567063420103372 -1.2838770211540018 0.5819712574395912 -1.0028744717888471
P 6.829842038266323 2.565294316394576 7.351937301365932 -0.6600590028819535 0.991009344920145 -0.1854099622698097
P 3.630756022861942 4.8916011030201885 6.170197845357008 -0.8040428367964927 1.0118363089678253 -0.20310557977735988
Ni 3.1662575990467428 3.8098968948208833 8.270657750186274 -1.614774912687703 -0.6303810162015466 1.1385395014250457
Ni 7.302164707201536 0.8312856697828805 0.4809711050002534 -0.17048625108044185 0.1931934628699705 0.7603775346980582
Ni 5.701387269367719 4.856702927870423 0.5616378656017532 -0.4612245396761218 0.7597129045308658 -0.03422909638619912
Ni 4.274803701536771 1.502524224499931 13.443495450337586 0.08658498428009605 0.6303745884436434 -0.2601838128475906
Ni 8.435529352337968 7.865965145891027 0.23705142356251685 -1.0301333075048003 -1.189152952706539 -0.23410794169614518
Ni 9.15518355621758 6.036084900770826 11.521124831497989 0.45729589404567694 -0.7392983454302559 0.3674651491347736
Ni 6.850084836139099 5.125845822283425 7.551069444456544 1.4786301152016084 -1.5751441856699582 -0.8713365769471445
Ni 9.067093508253105 2.3581142457315285 13.388302501309504 -2.350534391726765 1.5890988480778374 0.5163567047635752
Ni 7.584969865928489 4.63314113403202 12.783488353532432 1.199873681558153 -0.1751900843140144 1.7900760686582848
Ni 9.218325121521795 5.5302284268313295 7.633784616562179 0.20534192530704634 0.10672906332813875 -1.0255821977990078
Ni 7.27898897758745 7.276334488732973 11.54435439340353 -0.4749894546706981 -0.4440745102593965 -0.14653873912590892
Ni 5.016185732018937 1.6067082713233658 10.827103151637289 -1.4831804535764521 -0.7123053617811798 0.08022690327255216
Ni 7.626179413179808 0.6677886473491866 5.962900828681491 -0.0340995127868703 -0.0435737708258927 -0.5261050423995907
Ni 2.869660235991983 1.5826415244714132 7.744551053230352 -0.2467806520678072 -1.5867632579661253 -0.5135719429295865
Ni 0.023629591519624262 1.6820456350708775 2.238653893993466 0.42645499740542037 -0.027143650294327446 0.13721617617340237
Ni 1.387824317983761 6.6864717958358915 0.4504147825991744 0.6176221738739814 0.6651338463016997 0.7298796232195173
Ni 0.9855950050940339 4.02243235034069 1.7917836893436792 -0.5613355834671108 0.3557604591033357 -1.1221430623448934
Ni 7.084895722605565 1.1453469706998207 3.154834015542931 -0.3297537506269289 1.0153697760423803 -0.20197043773165219
Ni 4.730094947227352 5.414767443091149 8.070180727952257 -0.5988585201132332 0.8054448593503418 0.3365656313424397
Ni 8.999162725295358 0.13108998297813 4.169866930775931 1.015552838587464 -0.3186036475473803 0.44636176363167646
Ni 4.921459461918272 6.770895679123727 11.490044108326709 0.7466185332407529 -2.064410461974645 0.0073111889494325705
Ni 4.441823026488906 3.7747295582138456 12.298337820800814 0.6880668009487891 -0.4225299513194013 0.5157866911927181
Ni 1.6941300563594397 7.519145967481113 11.783004079136472 2.028568512575371 0.939257409158834 -0.39253314784699495
Ni 5.3536863551495 6.613102095155334 2.471461847960645 -0.8719739534208274 1.0896779998376525 -0.42088161708270094
Ni 1.7146141714008047 0.7474929237051996 11.941328560875759 0.09575868035956411 0.0230180581617281 -0.004410984583502081
P 1.0058934915441766 1.9779654537676763 4.3628185699218 0.6284930551502144 0.032818074971285416 0.08254629543434816
Ni 2.1772470278742215 5.9631050201318345 7.959903422621955 0.9208220852717818 -0.4293683143974734 -2.355538015588943
P 0.1532493960552748 0.3451466648030023 0.5735459397286545 1.9025980845191166 0.43135809113399254 -0.316369616010539
Ni 7.907601638902157 2.8960287773750903 9.584749463593637 -2.0303495157351934 0.7513727600962866 0.6815444264492392
P 3.3303718365462505 5.706928282815699 2.103597956163875 0.11001724716110729 0.21169743521142895 1.370506485518788
P 7.635265932720133 0.5996508885122263 10.631054299446877 -0.3366265664873622 1.0506525105040745 -0.9933315652954184
P 6.394561554709491 8.415574278781586 5.022432134113563 0.4966301728689254 -0.2555730535484566 -0.7031614904983825
Ni 5.364137244835306 1.1124257400465716 5.822656571727241 -0.6207537775244277 -0.6834174751022358 -0.49197956147079136
