# total energy = -340886.9813586142 ev
CRYSTAL
PRIMVEC
9.09882672507055 0.00000000000000 0.00000000000000

0.00000000000000 9.09882672507055 0.00000000000000

0.00000000000000 0.00000000000000 13.31705263564469

PRIMCOORD
 96 1
Ni 6.711731473244162 1.9276683705372144 11.405163890738729 -1.2876431730646534 0.7840941615887077 -0.9878286331993181
Ni 5.05756474082465 0.541480288300427 5.968969665666702 -0.6595892623343866 0.16531473418183143 -0.5427043415191686
Ni 3.088078161804487 1.7895936721628134 4.689320657613486 0.8780013905618299 -0.14879102549519538 0.8635859864674481
Ni 3.5901696284072018 4.51760395661836 4.576072108465745 -0.5570107308395117 1.2280902532016849 1.8146609570865007
Ni 3.6936323892121647 3.3327274197874126 2.713788817993656 0.22320672140260917 -1.9734720858218595 -1.1610574800219036
Ni 5.458013212004602 4.750424739616987 2.6740778978232944 0.5116415586760931 0.5614751943687685 -1.379849360186269
Ni 5.2287227738474416 3.111352961042821 0.6333766203361288 -0.0991903317489324 0.8272403579588785 -0.868998158621955
Ni 5.926448117863533 8.324125491315282 12.161439276044405 -0.1037488976538923 -0.5722550585930919 0.6517615387598517
Ni 1.807927808388475 7.040999821499374 0.1965346612775659 3.26336883080738 1.51706296525651 -0.4343909644230454
Ni 1.0098606011978928 0.3154599685350796 13.48538046361767 -0.44970471196198036 -0.21538979646135165 0.37988023496967477
Ni 8.208133645853875 9.2198413089147 6.98661886270041 0.9490124316630688 -1.793021267329538 -0.9053831250088924
Ni 8.839310169842923 2.888668271223046 1.1801769927314167 1.5916213573893752 -0.8871290638947108 1.0601427093826967
Ni 7.39965738067711 0.6599597530393018 4.8994371378211 -1.2804618248248658 0.8279561530789806 -1.1195899569057362
Ni 0.8638180600975304 8.013573430015995 2.4392444543119542 0.0265353272863672 -1.1820849901161643 0.23749562722145548
Ni 7.758433224604689 4.270552608330931 3.5503258653639396 1.50187108800742 -0.1764707507986509 1.3112862664048899
Ni 7.914933047473861 3.761718910987166 12.593777315782024 -0.4538462449341797 1.533393069875101 -0.9034504267625536
Ni 8.59951058660356 7.451993833069173 8.84473398056457 -1.250820604919665 -1.1299327335926412 0.07097401721571647
Ni 7.090351858664628 0.9789154908735871 0.17032640024312604 0.5002603134223449 -0.4632220297221248 1.4300555487270146
Ni 2.1330743880530036 6.5221028215920445 9.232379492398055 -0.08652147803201228 -0.2084712149646474 -1.378014106749743
Ni 0.40922792926637386 5.581893740397844 1.0349569855838086 -2.5131792923859173 -2.0915106606255462 0.8606441302303048
Ni 6.792783823367337 2.114767548308075 6.927184415435076 -0.4451849697147559 0.9980608524502876 -0.20905485538225932
Ni 3.3249661204323306 4.696987329168693 0.19580766500737712 0.644262145059013 0.10460533211691662 0.13751416702979544
Ni 6.0414208947109085 5.871682278686234 4.705953313206791 0.8419200714582403 -0.6307281151283203 0.06983913228032489
Ni 5.8386990311338645 3.243877375001513 9.002234674393952 -0.4654966846889144 -0.5286859157528894 0.2885554220117482
P 0.6141380607155138 5.768892831072685 12.200311284373571 0.03812046102080532 -1.1922084517034113 -1.2378923268937712
P 4.19399507870179 6.754222994918526 12.527910907773306 -0.8066460787472945 -0.5143126777503529 0.210017990626477
P 2.673708485450708 8.937677587577728 1.5101141047645859 -0.012980728530384096 -0.27054278748441146 -1.5114746725354549
P 6.689912486311588 7.8920131024850555 5.910973742935998 -1.6415668360695665 0.6953615348379896 -1.1224012011022864
P 4.986330024938444 1.3269820155269207 12.75047913260862 1.1847031444653016 0.9441332491938966 -0.4920680074195396
P 4.232683290727355 5.994334465446492 8.441280166855917 -0.08408741466922293 0.40697349164204105 -1.7615221682799924
P 5.125751349695673 1.5025438807746352 3.4767627596712085 -0.6385398978632552 -0.1472661042102367 2.7815106740413067
P 0.33602240747124495 5.839499727902032 3.358267826926585 0.7997796906447645 0.35054034835497694 -0.052866251871412175
Ni 0.6134629277587177 0.20801465119117257 4.873788454641685 0.8332665095483004 0.1877632929933347 -0.6758612600215328
Ni 2.0418404506164225 6.718491901639035 4.594809322723564 0.12397859443720582 -0.07250408070699771 -0.8523309823789191
Ni 6.396584504354822 5.938258395194009 9.039109490216156 -0.529868623207081 -0.5626293625778698 0.695210611082422
Ni 8.650227447805465 2.695099827518465 10.128563899583389 1.0242938180048877 -1.1376157040591957 1.4189987766922207
Ni 2.5764147292914017 5.876877708852414 6.812671129346706 -0.13721129107739594 -1.6326541069609686 0.4516615785780351
Ni 0.9213199165269671 0.04445413863906498 8.944052225711573 1.1514361548820558 1.0266589758029545 -0.24186598837500925
Ni 1.3330418342496455 0.9615731267812241 11.142963905527179 0.853996028786168 1.225367197843567 0.053061398601353775
Ni 4.252327658028201 7.3175768631129925 1.4722265895071884 0.09428363847593439 0.16696126864631894 -0.6159771820713907
Ni 5.673154974315159 8.092478456988173 7.811170935263526 1.6185809166973544 0.2917860131339039 1.2651277655709565
Ni 5.575597352175435 3.222595218856688 4.580333998990856 0.0884778304274347 -0.5062766948197539 0.8402380557701271
Ni 1.0508690140857626 7.73930749043777 6.741132512641673 -0.8643488327754018 -0.46035499258697493 0.6446889481837864
Ni 5.026264776250816 4.876434393507404 6.721942176803686 0.539822134875367 0.018433009894206962 0.697671671028405
Ni 0.9339035941448779 7.5531545906656525 10.93082384621456 0.3827297886033279 0.25695682126986064 0.5310567299779112
Ni 5.007675872871646 0.3968862804442956 10.230413438377033 -0.14225296726636147 0.4622645509048619 -0.5869057186267311
Ni 8.289276984246158 7.236615501258929 4.624772669624172 0.7736824793370805 0.697233812160038 0.30892652946893245
Ni 7.345055320384208 6.155183527579123 6.886687356619605 1.3746048239578779 -1.1864041863168084 0.19673618591590633
Ni 2.418904936635108 5.562231175443177 2.185861232377161 -0.12798051650774733 -0.042604207823771785 1.5673511719881006
Ni 2.6407070402445165 5.491551487998541 11.265454133168422 -0.7046334470582187 -0.3255636238049813 0.9595750376702634
Ni 1.3106678188755005 3.1699039122150956 3.8563257835596545 -1.011632163376819 1.9213653378242912 0.7553438289288927
Ni 1.670944969243394 1.2622347632282558 2.776951964527116 -1.1656924076907536 0.09914430900234537 -1.5303267722449516
Ni 1.6034771676983406 3.521664560594295 8.07346372850957 -1.6609856069158107 1.5091344544380527 0.10837379802041334
Ni 3.946707160914675 2.7556798170918926 6.914852775322601 0.8454653656073375 0.33492321064301034 -0.9812946887355422
Ni 4.387963870790455 7.1385938389467425 5.741900251158517 -0.6218449537060774 0.9677406042001913 -0.18347032204493566
Ni 8.585816852102507 7.411003617835124 -0.3875699915701243 -1.4432442795031466 1.5839826098971947 1.653084606901179
P 0.44752671150014844 5.6898149263891975 7.896200382629497 0.25511719695796065 0.3551346525938787 -1.2094425561935107
P 8.888316451585561 1.8403560274992736 8.008835670843437 1.088956034069963 1.506251733573619 -0.13045366063858824
P 1.878525606390912 3.102336023574021 10.327161264921678 -0.26291252463266335 0.9008011620651647 0.12386546589810925
P 4.130030325517471 6.289336631554883 3.4063287405531697 -0.11117861445906012 1.1424918012045742 1.2545947272501168
P 6.825384920189444 4.140430284676742 10.719894840763795 0.708037073423129 0.05901581641257578 -1.28380940114086
P 6.829033549780754 7.9027133229323905 10.183630000048753 -1.6293582098185164 0.3259019809810065 -2.0077209797024005
P 2.653308915516249 8.658534676775206 5.62020890052006 0.35866863388906617 0.7424345770663923 1.439361913729605
P 7.234914020626571 4.461700764077186 1.3243879399745948 -0.36367122930998014 0.8618165532718512 -0.34083391970049043
Ni 3.0034317750514687 1.9666204485431986 0.46799543251913045 0.35350585874120405 -0.6356551201162924 0.49321600498105383
Ni 1.814251493091619 1.3525588179737373 6.995607593805785 -0.49378678988285923 -1.0291123224394536 -1.5623544901044577
Ni 7.385636088407261 0.7396463692431349 9.013767437503642 -1.9012343714023712 -0.017341319491924974 1.440325820304771
Ni 3.0615368837051045 1.89518555846495 8.83678342560974 0.5148834626521585 -2.071365038915607 2.4664587484009264
Ni 6.78343022930283 2.5876335828726624 2.274898712997427 -0.5575619753572914 -2.3371232605271812 0.8413027495892156
Ni 4.413586167371826 7.084082766922951 10.259857242261024 0.28286042850949994 0.5494298331684603 0.8974361022476737
Ni 7.620431316845575 6.219339356128573 11.152765161875708 -0.18426196470829556 -1.3436417999174601 0.8521178379268487
Ni 7.941856476303505 3.9438228327838885 8.391993641244419 0.42398159616426334 0.8266526037762085 -2.6689588333838037
Ni 3.4031523400785404 9.108653644062299 12.366920813823555 -0.5337648729376937 -1.6429912272209188 -0.1378188427544078
Ni 0.21867574668278944 5.027056374192072 9.928661762466064 1.1728598719734704 0.05197099375065243 1.5524284892399973
Ni 9.017328718356607 2.5366437568634277 5.791133093691238 -0.47524733631777505 0.2510021463483226 0.08072749705805451
Ni 3.739017337844225 2.4054386728068304 11.243614218933953 0.3337443598435607 0.35747307091906816 0.6890412490469165
Ni 1.4823262873783967 3.3688497626240763 12.622888102601072 -0.7922401877346097 0.4350761634155281 -0.6804573640326474
Ni 3.4010869063697435 8.099429960748177 7.97013654022558 -1.2642335358914614 1.1869124934117945 -0.25824854349809073
Ni 5.778464796983055 8.059349628205227 3.7138727296756806 -0.2784193620190108 0.7847451649091453 -0.47160973956518776
Ni 3.2284184680797265 8.768994435474728 3.5670122040360197 1.8733199043802897 -1.2485312946648564 -0.13554213090508915
Ni 3.7804079014623566 4.188299213055505 9.471541247870958 -0.723542882368212 0.29104424987187294 0.15588727022034446
Ni 5.0901385411660245 4.929162095456641 11.68765789949257 -0.638799579282545 -0.9821642358246891 -0.8617414770595418
Ni 7.8354729920601125 9.0870621278025 2.5459145516030444 -0.22488770864945784 0.3284039214672538 -0.20153335019423357
Ni 5.075480331012406 0.6764522866981775 1.6702916734711841 -0.3023463051482535 -1.3409526831210712 -2.0375653167573424
Ni 6.209094077026788 6.060801396031336 0.12091977011640462 0.55366829672984 0.11913489319165935 0.8235467111573753
Ni 8.23004362105556 0.03354464517277787 11.18496591031373 0.4429290838010437 -0.016929942986119228 0.7497375384857088
Ni 0.31469839672262906 5.006320147661907 5.450003514674849 -0.11771795823947469 0.1129750442378506 0.8485146939566226
Ni 7.425761915084764 6.427957259543944 2.553131741108848 -0.15581373666993165 0.49874361966750225 -1.8602067640370994
P -0.5132193319148659 1.9687313763865504 3.431964685374908 0.13085063896669077 -0.6912619108473191 0.7107884109160211
P 1.844022854744406 3.3336100059977793 1.760820451822163 0.009683031615718807 1.2104257460423864 -1.819108708445209
P 5.079902360891151 1.3428048755251467 8.214730295364348 0.9374553229530888 -1.214143818323922 -0.8759051701544335
P 8.874504432334666 1.780704118270768 12.454041171613675 -0.647539273148388 0.43195510128804315 -0.20579495368406495
P 6.561082196078763 8.026402775960504 1.0404626857476538 0.7143784422601246 0.09035345018359278 1.1170692473664117
P 2.1470592850152084 3.5229020010541907 5.915448546010827 -0.6601644181115662 0.11062839838254496 -0.2109479586399141
P 7.064420201968284 4.139447611370354 5.836104955581538 1.2047947730088542 0.17679548112792132 0.6846747445481047
P 2.86173574356649 8.837681479825855 10.147714200582968 -0.4540187659563019 -0.7782721555902918 -0.8394926929636702
