# total energy = -340896.16566435085 ev
CRYSTAL
PRIMVEC
9.02795550009319 0.00000000000000 0.00000000000000
0.00000000000000 9.02795550009319 0.00000000000000
0.00000000000000 0.00000000000000 13.21332543411923
PRIMCOORD
 96 1
Ni 6.344955296294169 2.0136854220451763 11.47665812914079 0.6530900277632882 -0.18414420818350868 -0.2987411042954984
Ni 4.6099899371712105 0.38069081764985874 6.1254857037816475 -0.7307072613271351 -0.2055545555384847 -1.1825159070059958
Ni 2.372483448175378 1.490885560555761 4.618176487006274 1.458703037260378 1.3086467718995138 0.9550696936007422
Ni 3.5624040640338954 4.356358561932757 4.853333957384243 -0.48435984014200456 -0.12367366160227734 0.5018040037603809
Ni 5.2535025885201465 4.599878627273473 2.743574840991071 -0.5797531667423499 -0.3685537542132621 0.26523448789762066
Ni 7.332649714197916 6.10161579005877 2.5473838311315116 0.24433090497573406 -0.009162897446190671 0.30075222118825623
Ni 5.185801951981628 4.326132967702731 11.591495525713302 -0.5464944046892201 0.5767889419077034 -0.4011962228386316
Ni 5.552526522835234 7.737120166017991 12.433368604572179 -0.316775593199706 0.4043000585749359 0.10868978659893541
Ni 2.1194750018502666 6.540609142815412 0.2284858114365154 -0.2838289630703564 -0.06038595728722503 0.784502709881036
Ni 2.8773267066410417 1.666912632329071 0.2581489640534794 -0.5466612692843876 -1.0004926018202318 1.5545097972490582
Ni 0.5605647011619426 -0.02112812370864078 4.508002932124092 -0.20236793028038697 -0.2924593850518447 0.2782260150612821
Ni 8.505101236617037 2.205186409144133 1.2946602444661912 0.3496080663486947 1.309084887878197 -0.030640607703992392
Ni 6.81991602282991 0.7359218986545277 5.01254104570177 -0.09312407095019445 -0.3984991356224427 -0.7569093736437997
Ni 1.0054253220458516 7.3601940057139865 2.397517968127547 -0.8493698428680663 -0.8658974082094443 0.8651456176450842
Ni 7.593088167706812 3.9863658712729166 4.002580078930362 -0.09805441837227628 -0.2150036167665265 -1.1250522655718882
Ni 7.43747330278956 4.0193179079932255 12.411077680225299 1.9667797614033482 -0.8075143402848609 0.30100290374648164
Ni 7.885684197872622 -0.43375262472482184 7.133887542678645 0.16192242067083082 0.03385242977307073 -0.4377922767951105
Ni 6.823933462923207 0.6152145255681666 0.3623767075975797 -0.28683998198253824 0.7717572372899096 -0.8152307350925122
Ni 1.8146280363887135 6.3432399847936605 9.305999134910854 0.32230989275437394 0.5739915816682244 -0.8854573326192429
Ni 0.3001334700172593 4.854223210977929 1.412940903177095 -0.3176374269793691 -0.645777810372591 0.3109859831011225
Ni 6.1167285871737835 2.1366010329895615 7.069155297831533 1.0432194512647968 -0.2583698995673034 -0.05880292907082131
Ni 3.2557153956981115 4.078523238626591 0.20859632319034757 0.08451421779399639 0.06394025029738665 0.7540778177322756
Ni 6.067426923467042 5.905573741461098 4.8039293749874705 -1.2233226566097124 -0.7059043433508424 0.2266877379726741
Ni 5.410877904714235 2.7214771148868793 9.340169042796525 -0.3825089308417735 -0.05341903905108865 -0.11322007036912113
P 0.2986826776060391 5.403989574846402 12.414844143162206 0.5097029468924835 -0.06330493070623291 -0.4340119838170719
P 4.096696512576723 5.926112339690879 12.707307462385609 0.2789058147371261 0.7060807210277066 -0.5868028745002798
P 2.311174603965072 8.556506413900719 1.2681532650101641 1.3416723348959152 0.3943676299525724 -0.8667648984160621
P 6.241928270800426 7.837411721066186 5.993312827507672 -0.6021461897255694 -0.28460929287980663 -0.8241388362154194
P 4.783362790096365 1.068341142293477 12.576707255918942 0.1329787410532871 -0.05239214044847107 0.05018870503924905
P 3.8776151221406314 6.05086062555423 8.431184852877989 -0.15113510024733973 0.7334490857383303 -0.2711593380224879
P 4.7131975217702715 0.9364607717701148 3.657249956465737 0.7498195566765538 0.4710456395316016 1.186117765424641
P 0.17977006202652668 5.581434035596448 3.6319464034466464 0.303647026237548 0.7976341050566715 -0.20294180050598595
Ni 1.3489751317320526 1.1654638850433625 2.4076130277058065 0.343752378898866 0.14429288051452568 0.3538493581235519
Ni 1.949045262341776 6.508930047787587 4.687837092633006 0.5110502049489972 -0.07439564130275575 -0.044174123414052954
Ni 5.899786822135695 5.770371083399907 9.273270088685612 0.17885390631884682 -0.6055547011864861 0.5289998474488825
Ni 8.582398589603143 2.352287912245698 10.033023080855372 0.19307930588960942 -0.3053429258827322 0.7536736403153215
Ni 2.346528076786093 5.223168658826932 7.040548415980672 -0.18087427918298526 -0.5886741233810636 0.06420096015794104
Ni 0.4508425440430533 -0.08008067159456322 9.087649008851294 0.5577244690770846 0.36123896571940367 0.2372583143996688
Ni 1.5031816356278325 1.0212152158058023 11.368863440471156 -1.3316478607803777 0.5198402924368015 0.3308364421681464
Ni 4.241179908651195 6.795513459746349 1.6478735774689452 0.3268733437553403 0.6392752333673829 -0.5962095125261603
Ni 5.345262725842125 8.025798063598428 8.20617480421882 0.15516427601139082 -0.7216541499859314 -0.16532784680795398
Ni 5.36750760761715 2.848699060493069 4.821356939832644 -0.23686519272630818 -0.6697227512239627 -0.48294779028582635
Ni 0.86416851718339 7.297422632750615 6.785808407835573 -0.25068461510790374 0.35978474977138036 0.012853716034216573
Ni 5.055916759572016 4.500381532288672 7.331320799182784 0.033624115812348546 -0.12307896544107191 -0.7399642611490289
Ni 8.15846386622992 7.155575399613768 9.215699720750889 -0.13125481638364492 -0.8456018911852019 -0.06779639081868324
Ni 4.549105406858399 0.43121215811301505 10.306710961512412 0.1627847686711261 -0.35940782604793586 0.4112865171950981
Ni 8.123372204111606 7.226489988226925 4.755290363197242 0.026238621981554813 -0.04796830034916255 0.08325591990686307
Ni 7.164368628042694 6.152605681400224 7.024097675895262 0.10268677493796509 -0.3453323217914762 0.2447929322138171
Ni 2.6406227475260335 5.129169588599026 2.4788201220695782 -0.9335266773226438 -0.2423622112851374 -0.06690627490424605
Ni 2.3292937101836086 5.17974419399825 11.337416363893663 -0.2994972657352326 -0.8353707003754968 0.40467055454047723
Ni 1.0995327277369473 3.5241977573488694 3.851313980064665 -0.3233087663325335 -0.021939737495884796 -0.6585045139106401
Ni 3.7960294904032525 2.5767860758412926 2.5940800269485322 -0.5306736356068795 0.39735448049503824 0.1035565791374281
Ni 0.8717131793990509 3.256410548253581 8.039013184516563 0.4541594052992243 0.13642350506877793 -0.04302921117633235
Ni 3.411889993841844 2.724492451945669 7.237532983108098 0.17152369120602073 -0.25121297680754806 -0.5163590187564204
Ni 4.125062348021986 6.8139575723544565 6.342290243899694 0.09555710587171931 0.13610854493152041 -0.9649663838891639
Ni 0.9284620034045823 7.379522857938147 11.472020468520729 -0.943534439267633 -0.18764527935823166 -0.0745517072646458
P 0.12418584425028842 5.62874052118944 7.946665327306778 0.567454551880655 -0.5501458853988783 0.20989483478505142
P 8.31932397315662 1.4292878217769478 7.997722025517199 0.49007617380049145 2.129516193335042 -0.8660781567616825
P 1.759395006072316 3.2219418150486114 10.275619586372391 -0.8970409236917841 -0.17922954449071068 0.034649985973701614
P 3.9898687179160617 6.168151820367997 3.760843034754649 0.9035334733946633 1.0514346400857375 0.7252696352513316
P 6.914357462865841 3.998752225897646 10.251954607234051 0.2131598786895684 0.2504421600797945 0.3903415395123148
P 6.330808490392601 7.657240817825857 10.272831753786301 -1.6988641271291387 1.4264642318313305 -0.415231103665143
P 2.480466821110067 8.45806558968202 5.688759270592258 -0.3878000040373838 0.2682766171580541 0.38519779052784625
P 7.029861122536973 3.9956195254204006 1.6871171962140166 0.6683204715597975 0.12044769846581191 -0.7890260516726864
Ni 5.353577472641962 2.93639661794542 0.6904688522776128 -0.43108066910288984 0.16008613879304043 -1.6539700948299256
Ni 1.3740638194158166 1.0253771031833536 6.885014802660814 -0.9888611882288906 0.4037840381704658 -0.18548478137180313
Ni 6.821134796790798 0.5844616987506158 9.308457447129742 -0.022002472413020172 0.28527186616447 -0.29755248330403594
Ni 2.4273102205048125 1.352748817033173 9.251441395648342 0.7785580622618269 1.491358361401554 -0.9572561597290998
Ni 6.423796429630733 2.048984727134603 2.5387160912807807 0.3917952412397059 -0.973638200631549 1.538197690352596
Ni 3.9677773113805554 6.984847737581505 10.604684041834556 0.8914024944590841 -0.9838310820041507 -0.8425317369003104
Ni 8.380515453948473 6.9341106289874945 0.4460432830237338 0.1259945964259701 0.5162019243532658 0.1013775692082383
Ni 7.558077757185891 3.9443768513315036 8.111765864821844 -0.09681643220011713 -0.14891803799136288 -0.14340610703419818
Ni 3.2266724636079105 8.54526660959475 12.245620538477231 -0.6962215688454396 -0.11258552210891579 1.261189349748499
Ni 0.04209464701802306 4.804596540881616 10.049117216707781 -0.3526717928756829 -0.08723007406326268 0.7855774310024535
Ni 8.516801466641564 2.5025491996903066 5.711301172095529 0.11702684570972104 -0.49675024338655743 1.0462330412801402
Ni 3.519746975402811 2.5906891269506835 11.395978001316575 0.4565279055314008 0.15056097291142456 -0.5542362534181681
Ni 1.1143566302834536 3.1661580794609985 12.656885429430377 -1.1252543542803652 0.681972258015277 -0.29272420867745713
Ni 2.846568463050331 8.45585374064189 7.923000348168437 0.6294975851553287 -1.053159078976012 0.13982276055831402
Ni 5.755447873345477 7.858952422330476 3.4791347186394384 -0.43716749872691807 0.8129054293934451 -0.0693688775121257
Ni 3.0281657832226636 8.55765296421948 3.550764321309651 0.689372150023774 -1.2878416622287046 -1.0509759552817641
Ni 3.515567032114728 4.075354426328282 9.287051262398913 -0.5414977228055771 0.6193615251625914 0.37561374638383693
Ni 7.434169071162264 6.409541288265975 11.48667374271271 0.665166499311848 -2.1099210448119337 0.27859496836492664
Ni 0.42932441266692833 8.998307460745036 0.12059903762317097 0.6397125780151177 0.5586881185419346 0.6503906265542541
Ni 4.701677850851063 0.27633668273203676 1.5357581094090824 -0.7106238603136987 -0.15334136387003913 -0.17495045749938257
Ni 6.1931773123649005 5.609691535578521 0.386139188652792 -0.9653024270723441 0.33263981392547226 0.36413634187185673
Ni 7.914609766544367 8.818903933702302 11.363552294388263 0.4040288071914203 0.24938466534955758 -0.02721049897652088
Ni 0.24564163482818743 4.922023155024371 5.74884031288641 -0.6331182126270516 0.058656890411260265 0.6894554537661998
Ni 8.13193070570362 8.905671611762271 2.2786378531869915 -0.34749127711600797 -0.41077178234220874 0.8754104899062022
P 8.39164692279125 1.6349897825090678 3.6273881888329247 0.04954592924892757 0.14239694904339345 0.08935894748080739
P 1.7849802312957013 3.2158930850205 1.7756859513495207 0.5535677665962337 -0.6707925872493739 -1.6172094902711245
P 4.495813386924158 1.0535984913443635 8.176695821889279 -0.017079066969473814 0.1977124337862466 0.5929061591845401
P 8.378764030626899 1.6919652081917718 12.366813615556895 0.7314456821550565 0.22491213412949007 -0.5138611920352312
P 6.450492093351816 7.766451992676699 1.2823569470299072 -0.24463455225908193 -1.0244154311844162 0.8635492196922419
P 1.7739300140503154 3.2403949556119844 5.924960372598958 0.08649808099324457 -0.3244184544569445 0.13412750994574965
P 6.751285506899008 4.133864604406178 5.985715803151469 0.13194747157529532 -0.16661339838859693 0.6016247700044606
P 2.3027424937467793 8.35921850747636 10.163372310165649 0.3515744460464461 0.5822535645667004 0.058039825652551655
