# total energy = -340863.89097679127 ev
CRYSTAL
PRIMVEC
9.25399035070286 0.00000000000000 0.00000000000000

0.00000000000000 9.25399035070286 0.00000000000000

0.00000000000000 0.00000000000000 13.54415028593399

PRIMCOORD
 96 1
Ni 5.012442264777981 2.349837953092167 10.085570346065383 1.908468941477597 -0.5304844024142089 1.5735457308345868
Ni 1.0384550110155426 1.2062483601492193 0.5159876835613947 0.6208679345047887 -0.038683275502810796 -1.6129949379691448
Ni 4.786043396117303 0.3420191468104168 5.303211888819965 0.35666291631294705 1.8155173915495249 -1.0126747457087206
Ni 5.490725490932015 0.5279827055748003 2.75897073796 0.11444160148104805 -0.44004507738502924 0.1149005433953376
Ni 1.6261481625395011 6.417142443379202 7.842821417617201 0.9558253408198442 0.2945635758790411 1.1604658691844918
Ni 8.901024443581523 9.089287618894534 2.3864791270329784 0.30265458041729165 -0.3805268674147382 0.2617830390139104
Ni 6.327452770987652 3.2669083755026773 8.109911931700921 0.062082114042725345 0.10009150340696311 -0.11300384059325698
Ni 4.856225657303593 3.1455515488680517 3.765626262673532 -0.09705477346316833 1.9098812484440912 -1.5763376917574272
Ni 5.2924309903123135 5.957015545870671 7.693050214272065 -0.6984813114138938 0.8252894048800948 1.7701158234862742
Ni 4.219680691855264 0.028674413833311888 10.070698258518906 0.72650633587191 0.5356160672138195 2.54834786986725
Ni 2.1472310930694047 2.5328171000379087 4.572857374571839 0.7972306989706658 -0.3026165280905046 0.3700560497904014
Ni 6.896119718793386 7.070224289199353 5.178700376948208 -0.04470608465812301 0.5329490619046177 3.939261201177164
Ni 3.33530461659285 2.04466912039962 1.2684268452674683 -1.3308796151557853 0.48898988271484817 -0.03035984323877997
Ni 1.8506129472618962 8.800054157215014 12.269645275459562 2.2614775488674086 -0.17197517692114253 -1.3867789974265663
Ni 1.3533312793600436 4.467576579600297 6.613377931193794 -0.6671596184824768 -0.20432993910276423 0.6642280466579786
Ni 0.0703303250284549 4.46964947339061 2.1646258183267713 -0.14077149762482855 -0.09026988933085099 2.3358402800496996
Ni 3.9630767993928924 7.814809589477578 2.7531869941254232 -0.8774851130470435 -0.3154841280817921 1.1116725018308724
Ni 8.397949777854958 2.3062053896041186 6.988551348462033 0.5135243775211027 0.23444218510711237 -0.18230098432718284
Ni 5.65215209485259 1.9058777763500452 0.8744234088718745 0.4684326273887868 -0.21231861373519564 0.12495715630039125
Ni 5.8473835247374994 8.17681642958128 13.413150657092277 -0.017940129418188455 1.4232390400258133 -0.4608722985430256
Ni 5.5325905423042165 4.363783826242514 1.16786558526494 0.44866495784355637 0.24993642408796957 1.0297900652327685
Ni 3.2285690943720344 5.210033462147397 2.668860934416306 0.28777226398882055 -0.04070467680821377 0.12388912004719309
Ni 7.762950228759228 4.473804514961369 11.139982012271263 0.8453761483276407 -0.21226564901007317 2.1910802300907686
Ni 1.6467290366004594 9.114079058467064 3.9642918482976603 1.3888263668738987 0.17723951064387541 -0.9082452770480359
P 1.1808369032376225 8.525414237978897 10.129615637513467 -1.9111531731779794 -0.2156782742360479 0.7866614080952516
P 4.174077028468393 7.946558647034172 8.576548085870638 2.128717608693147 -2.0919012111957453 -2.532040133846162
P 1.6338104663715485 3.4144910101808086 1.139858384120385 0.20133897479524035 0.34546936158997277 -1.0558104005559301
P 6.599362763133848 9.018355784507284 11.270655756174131 -3.005782603483636 3.826423710958442 -2.008789787286547
P 1.3386822129758271 5.221101234349244 3.9330994237485273 -0.7837586326261599 -1.7592215451712734 1.0526901097593937
P 7.531137775869387 6.79925820404696 7.366636071026844 -0.32342806551921716 0.8649872376903491 0.28402410980029796
P 9.329410154925897 1.1530009009105708 4.415744980852352 -1.948614660458547 1.1855143275126874 0.07641395728436517
P 1.7881762758188717 8.764102405539283 1.6209233597090977 -0.5922831808885606 -0.6586749780502333 0.6232652310923718
Ni 8.18368289026169 6.233043563627087 3.654848597561607 1.3827253961824832 -1.9020393838021692 -0.5596168010037911
Ni 6.8366535781838 3.4009061526621545 4.767812110151703 1.467098717523241 -0.8287542235002436 1.83788547483208
Ni 1.068262113241418 0.9591298075755537 6.3466807116908255 -1.014379644214969 -1.2007648259138546 -0.06241301501958284
Ni 2.4318190517009937 8.979137374313785 8.509328952325678 -2.001127899865915 1.2383790367222027 -2.1408352178922874
Ni 5.573058241165985 4.479236607170804 12.198484867515969 1.3281233925668867 0.5085480073524338 0.3778768313864008
Ni 1.708110753168057 4.460062339610414 9.859328795237005 -0.1322377491222045 -0.13958030553020478 -0.8548632618824697
Ni 7.574242861919721 2.2160160017452606 10.284195214132914 -0.1647408639562324 -0.6431097766221247 -1.7946857995161543
Ni 6.802136194979045 0.5937933818211636 8.438967163730764 1.020316064304062 2.7796574228826514 3.8247203551140907
Ni 4.471592811319027 7.090749639319499 11.807193775629038 -1.1353006827727739 0.06950051799398353 1.0857809787760915
Ni 9.237073841355642 3.8034547235487057 5.069358931105285 -0.29609261092905775 -0.9942872443404681 -3.296682614468161
Ni 5.713644859301811 7.1222872377006805 9.88186596281257 0.6804753617547764 -0.08530946000178212 -0.016567931661010178
Ni 7.426836053054161 2.539082051359522 2.858357666614356 0.9309781998691773 -1.8725825119936332 -2.1450793378806217
Ni 3.4789357974831985 4.5824093431895205 0.349976652927781 -1.734475448574845 0.6578787074011831 -0.3365787439685623
Ni 3.5868928464018763 4.240132010054328 11.271008333198287 -0.7655184554690494 -0.06978925287899593 -0.12080688157744354
Ni 7.952943900227545 1.4071062160364054 0.4577486220437529 0.185590453711732 0.31320073136425414 0.10986246675079789
Ni 4.436631236587777 3.2916350371442604 6.004284002082888 -0.6349485809675709 -3.9047881071009582 2.466735656211397
Ni 6.323214443505674 2.0668694427342595 12.151513464387095 0.03630089131356329 -0.42571580524655067 0.6187640007879085
Ni 7.9653997709496895 7.973996727785404 9.370317418319091 0.5611124117127111 -0.5133924799289288 0.015805856684005037
Ni 3.3220529027190673 6.316542316618106 9.873455011178576 0.36314518160318104 -0.23890176354036272 -1.975842900046881
Ni 1.6219375970279293 3.4253366866194073 12.378161265382415 0.2941966794579256 -0.1305089393565559 1.6200418175135969
Ni 8.94333368648022 0.4170264384532639 11.502897594206253 -0.3430381264406608 0.05402941894157792 -0.2683007855277702
Ni 9.249233584393457 6.314256581054681 5.842824083797826 -0.22963833596056582 0.45967082203575677 -0.749080364517684
Ni 7.653993748905935 7.522439025142183 11.831722401881725 0.7531074833992062 -2.435311890484477 -0.5533206835824342
Ni 3.85342627027945 7.767188556241206 6.20527974242309 -0.8988154990937037 -1.0176660282757246 1.198553934305465
P 5.23719392319457 6.24306563494364 0.10944786672947882 -1.1282160080118506 -1.62665366640316 0.3619329064626347
P 4.813194603174342 6.466864132376292 4.759279005847922 -0.825367566416198 1.4759109164982323 -1.7904190538200004
P 6.857909993524637 4.573099829113385 2.83720119436698 0.945061931655753 0.7604145585835808 0.17520499671234988
P 9.023056811496028 3.7801439223978273 8.434267062141034 0.2677965921978421 0.25152536584164426 1.1309231225303684
P 3.7748228780700166 1.5681441523712965 3.2275169156936476 -2.134004825234015 -1.6588058256556721 1.9150244832079275
P 8.729631292285205 2.5668347677753562 12.289853213718066 -0.9163661063829573 0.38000107681825523 1.0993715729763325
P 3.2549337122675697 4.966755315479891 7.31400307673318 0.6123843225138098 0.3630168835554329 0.06016689929788348
P 2.2403354878208894 6.48911072466161 11.654551059144913 -0.24510609257886173 -0.3528003480337472 1.7296176062619115
Ni 0.7148947983280547 2.1559576057670142 2.5748644550157755 -0.3251738445657303 -0.4946925895265803 1.1923732594160497
Ni 5.776747818034579 4.946220711369609 5.836486025954144 -0.1439360113957392 1.2996576810270262 -0.7556893851937695
Ni 3.6415654201213647 9.036512113152787 0.6167081121942504 0.8964431422067852 1.0528713725322643 0.7054004071312302
Ni 4.702840770810614 1.1119039307196013 8.032682757026581 -2.1571360119348397 0.9708094729335021 -1.978858289834437
Ni 1.75145644296191 2.707264068078883 8.020805260687895 -0.06257345185684708 -1.4494766335661038 0.6609660880772552
Ni 8.198840926103347 9.074721838421537 6.9620183079460345 1.68174752205351 -1.9028811629771742 -2.5473852488436646
Ni 7.553254812292809 5.382203948615083 9.14644581436437 0.02378450401410742 0.7119749750249544 -1.5873438130599435
Ni 6.331071081130563 7.597794266814118 3.221096497337761 -0.7088598264347404 0.4383545770564838 -2.6487178237465803
Ni 0.5559602939509224 6.329923586353782 10.069736768943844 -1.0480191866462856 1.516829251979149 0.8681291257534404
Ni 3.1880736335398603 4.880452603477869 5.13373431348166 0.39698475586044535 0.6731968258154921 -1.438148095927162
Ni 2.8678300509168726 7.000014266042657 0.6690403518085155 0.34533052201926334 -1.5261602995720875 -1.0355709335806038
Ni 1.2747463951308804 6.702637293044052 2.4944935506904953 -0.697209900900638 1.7467658359064242 -1.0185075503404135
Ni 7.896244702668421 4.75569956246358 6.649026151993086 -0.7051931762164307 -0.8142783984815718 1.610432833668923
Ni 0.5744543932363655 2.6490194541671594 10.549159161283537 1.0135669185056866 -1.5384242045411052 -2.532859287313348
Ni -0.009906396439863286 0.6588544848665655 8.78281212279488 1.2212786295964904 1.2110248130789658 1.1929746404454744
Ni 2.060289855748045 7.01439496671295 4.87487799982035 0.2482682923569273 0.6400941297242524 0.057065377554424306
Ni 3.767068034336616 3.715023593815559 8.916425859363741 -1.4141995555313644 -0.251068995030516 -2.069830090328319
Ni 9.389376011002788 8.043984655178853 13.330626349262507 -0.7797122304709281 -0.43342217275187295 2.325585949311543
Ni 7.742619212431923 4.0265221557606665 0.5603189233046596 0.16479434290198716 -0.4236054437717673 -1.806717533869708
Ni 4.091864580106183 0.8775040621879235 12.280128195484858 0.2503925377887817 0.09898824304045532 -0.963940770838127
Ni 5.967648380536158 8.44842104005301 7.075937702708901 -1.3127170853141459 -2.2418651739531192 -0.670477112891484
Ni 7.148392743872426 0.32874799955735007 4.378782693453846 1.2157322458569642 0.5565708150886156 0.9025819081146713
Ni 1.1495028926394186 5.382416790388195 0.3200307408498758 -0.33382406404156056 0.7935391090516914 -1.3689442832379906
Ni 8.122097585911114 6.420353577956159 1.3723204671177263 -0.4954050422125726 0.8830209552636082 -1.1432523335196827
P 4.161574887795571 2.8282137191475543 13.035933033403147 1.8907512124828598 0.4180649735695122 -2.0293177320365694
P 6.413302037473042 1.7203445281269543 6.50839789090165 -1.0699658661207057 -0.8195537879478982 -0.958586191394433
P 5.4291679485518465 4.689977724522515 9.591520171518784 1.6971620568363674 0.9944222272564357 2.2894151558179408
P 0.9694109906158976 7.961883254698267 6.604669001077442 0.769770545877184 2.512143909142867 -0.18859093110095262
P 2.9150161466168845 1.9191479982040982 10.307991849765898 -0.8884277281014764 0.5123522115898724 -0.10111685934768391
P 7.025703342658314 8.936402447868863 1.3748940017743596 0.27886030621117136 -0.09375090590091596 1.3631207345776784
P 3.085178517225204 1.3163153188187515 6.345935765484931 1.4734812240108173 0.7459338484689024 0.36805084643491454
P 8.632779031528914 5.978401517073403 12.718823777238992 0.3955932748295574 -2.2033780736215154 1.08180296796495
