# total energy = -381164.266063404 ev
CRYSTAL
PRIMVEC
9.25517776360665 0.00000000000000 0.00000000000000
0.00000000000000 9.25517776360665 0.00000000000000
0.00000000000000 0.00000000000000 13.54588818475134
PRIMCOORD
 96 1
Ni 5.897149282645693 5.1133653116517355 6.815830243843797 -0.11382530805328783 -1.2790091515387392 -0.0007037109352439493
Ni 1.5895304784540223 3.493015091759815 13.140851940459136 0.9322454966173751 -2.2732388031683946 0.798023112964974
Ni 4.698992499742548 4.4795892593441025 12.645330656792183 -2.003263458151679 -0.4925459754972227 -0.17206439420083916
Ni 4.3103120608758845 1.8381060386759682 3.5019639229899364 -0.5543527243913743 -0.12091641057211436 1.9388236425100545
Ni 2.0006454678448495 4.624988099581155 8.54302593612481 1.4371469083561572 -0.3167102871794094 0.452727300838388
Ni 1.1543890479902863 0.7943524583056506 6.030372011220375 0.3790906491888439 1.6598419802296704 -2.0081390410764253
Ni 5.935771138807961 9.046593671205006 7.029557283814656 -0.5084389925783952 -0.773861428117106 0.005461023114571241
Ni 5.932568847355254 7.143312671806611 8.588323551896433 1.2045122087714288 1.60548731673819 0.12332296313107795
Ni 6.4018896487289485 0.8923120346723624 9.436295881679701 0.07848292399825194 -2.070985544089001 -1.0082979567972636
Ni 2.2095163161242777 6.162708093780115 2.343560904470636 0.3778680896356525 -0.2991679074202719 -0.23670629855094072
Ni 4.100802605341436 6.090878660356833 7.66718904311419 -2.0554504245678795 -0.7316364580096238 1.840290741839463
Ni 7.103506152910395 6.736418043405478 6.049607046845114 1.2462052176348408 1.179043632186679 -0.28301238070633195
Ni 3.9962376087151967 4.007778815193594 2.565550967010791 0.7338856590551167 0.5804494214784263 -0.28811807736401346
Ni 2.601658191416699 0.9272022032226896 13.183711742448555 -0.3855158359888973 2.478140041393597 1.0336264082597233
Ni 7.818505643914424 7.686647128519307 1.6193839793495435 -1.3245796410796864 0.44715649161882987 -1.4907695787776196
Ni 0.08665252588182264 3.504028753114499 8.494558422022111 0.015017556454754784 0.8447081757263388 1.1930520306506291
Ni 1.7930703444306786 5.390058101449759 12.080385360362522 1.0171829179917191 1.6274995593432229 -0.7544637403167845
Ni 5.555216745881981 5.077242353443892 9.296380734175969 -0.8601620483875638 -1.8006525586225504 0.97422389793169
Ni 8.13403315895972 8.317470779169676 8.134319143947838 -1.2943061869071257 0.7468075093231074 -1.0480613527381304
Ni 8.078566879549113 8.967526688891503 6.037144950194625 0.6444876308062579 0.8074829728262931 -1.74117548630284
Ni 8.09897454617691 4.318123430777862 6.757718834672541 -1.860764950533415 0.6138454804403686 0.39988598866764036
Ni 9.194519174929312 6.433255445645776 7.557915012120501 -0.5493424156609765 -2.4269365219365877 1.4468805907041533
Ni 0.19751659638873317 5.882850033239821 5.329236776274595 -0.11916343243674961 0.5143407027748109 0.15490459459210096
Ni 3.2514364458102567 8.51115388099277 11.957049938027515 -0.5598132332853133 -0.9474743977519876 -4.009484199159468
P 5.112523090489319 3.349994832168269 7.755332578108819 -2.050852777894868 0.7032033994799115 0.7621801351244357
Ni 3.270242966711701 5.287825409580981 4.4887824272631 -0.1380687539816848 0.0023708142250217236 0.9760552947134739
P 2.546321484492616 5.128867734146775 0.6180144848395431 0.7434059398407262 -0.2294249343981791 -0.3456575663413789
Ni 1.192177938167746 7.942506513519518 6.57632568319641 0.9105515565837092 -0.6221874246471607 -1.0634766588519362
P 1.1779434750051367 8.652906181251886 13.551034933464738 0.12668133808034956 -2.6666031886674335 -0.5752678772774866
P 8.748447379709372 5.977817410685551 11.73626582512981 1.7430081686362047 -0.48481286851902305 0.714571274997221
P 5.065201367374611 8.833844903507416 4.926625444070897 -0.8291226625832558 1.1142441192127905 0.32012779750139064
Ni 1.2376578809382666 7.774858226310481 11.444256641906687 -1.39821500717765 0.23607586405579342 0.3233591599544947
Ni 0.34341151414562754 1.072073498336031 0.8228722881077181 0.40742009226115644 0.9453547803058235 0.21057437735057932
Ni 8.966073626006894 6.1571827527475556 2.869208716772573 -0.10909036447146372 -1.9183792586127737 0.2935163655614493
Ni 4.800743922375657 0.8057011570897801 12.106623788883978 1.785497448148667 1.7235978824303928 0.1529505561895237
Ni 5.554069103858467 8.290584488215593 10.693340583155495 -1.0134332211412997 1.3245079073014865 -0.8923003236830052
Ni 7.893426306659105 5.259402759143809 9.675191451640416 0.7541330964502432 0.46355473047119516 -1.0059585100308095
Ni 8.864016782512687 1.1198394699759695 9.752321325280361 0.13691818531700936 1.3178001562640078 0.0725660442931847
Ni 6.473339619870262 3.0878974574596056 3.137159991318916 -0.29591854724503874 0.18748844206539322 -0.5729022052587875
Ni 5.832511122224587 5.469273166605006 4.378221001064003 -0.7007827058535608 0.22767401314534336 -0.4783439729652278
Ni 5.22541774696364 3.2431530618502205 5.288355731257976 -0.2296596761168045 0.8267626469915117 0.1768564162728438
Ni 8.457344278374169 8.873790250067767 12.560112683439751 -0.09894196318355218 -0.7395649688280811 0.17506461447974367
Ni 3.767375576800375 0.230218840952298 9.692042353513084 0.6225784894379923 0.9478595490055481 0.7864274377075746
Ni 6.924992287188417 6.762193713046484 11.201433174568722 -0.8303454792467635 -0.6920651234749049 0.10737646710415055
Ni 6.621968517092849 7.9794716928897795 3.7995132555297926 -1.458030693783702 -1.1833995951625296 0.49605090332668766
Ni 0.07827566462793614 3.940678777528499 1.578285437659113 -3.6670842205234395 1.2492352627104164 0.0715280899469736
Ni 6.523863634437676 2.1060156649230706 7.12315952256306 1.492299899379217 -1.1725742224122517 -0.5720809949090728
Ni 5.39972976205114 1.946585975430806 1.5161915255627152 -1.9033863847483672 1.0454874213633674 -1.5212970579425156
Ni 1.6899491555114396 7.246581943567594 4.250035865661889 0.016497226324074812 0.24934738435371892 0.3819083211432971
Ni 2.9794267758823767 2.8431813063006035 11.103903038443068 -0.33160828733716435 0.29286870467512144 0.785424450364357
Ni 3.146769642230318 6.950120094396793 9.623337468050591 0.43258502156255824 -0.13722954590984107 1.3608774470694562
Ni 1.8316089039944652 1.7468129667410037 7.989025812735528 1.2904353910978097 -0.2603622474069838 1.4495044014802456
Ni 6.971906782488329 1.0202815244361871 0.18905736405412676 -0.49122725668579914 -1.0374136432162973 -3.21817835031367
Ni 0.7782854699764639 3.616710540503813 6.0670539821558 1.122804607188292 -1.3126389237780425 -0.25017090869627884
Ni 0.14672047959961526 5.905552983914646 0.514240805898871 1.2739836732996899 1.2764645307400146 -1.3545720736767186
Ni 4.857755816446966 2.5198794420637642 9.825943486606503 0.18244522321453097 0.881916666455836 -0.44401254667320955
P 6.834198994844337 5.271832462672667 2.487119815399024 0.23245420814280612 0.567224695258036 -0.7414734987047037
Ni 0.6638775919630754 3.5685003203386443 10.90709446314142 -0.8237739966768329 0.7142568290805956 -0.8851932803245788
P 3.7813879157003685 5.096891095507753 10.667793516401431 -0.3039627577057539 -0.46991435414063587 0.21986942949926006
Ni 6.855948662225436 4.428278554679925 11.739774462961373 0.6336262626117216 -1.2656378724381558 -0.6854255066712002
P 8.579697726364865 2.1350306467272184 5.005287049605127 -0.4576501920613022 -0.5326844953893214 0.29248381053187694
P 3.9477682435769763 2.4559169096081135 13.430748166634126 1.3773556472301376 1.6911675298158293 0.045038528296877274
P 2.3927873431372713 2.599409183257717 4.372977942948517 0.5215138234844825 -0.37331440882669903 -0.05648148002649628
Ni 7.124793061411045 6.041150591063791 13.465886373944373 -0.42548466307235105 1.896136388054173 -0.02724238065572082
Ni 8.73759105637404 8.219523234533856 3.6763129587878742 -0.13227425878709476 1.691752198674706 4.432335795484348
Ni 2.9152513743417194 9.158979292910834 4.614975848443762 0.07961626627174676 0.5379719690405057 0.9094819776686142
Ni 1.8773017158499923 3.1411332390664506 1.9709807725725517 3.9999631470429113 -2.5881151224628587 0.27028721983017967
Ni 0.8850272843763354 8.275230148562297 2.2270391438913566 2.873961630183876 -0.15076768960559198 -3.4499715278337098
Ni 0.8651305035525532 5.978511549006224 9.950281244676564 -0.7064329621608028 -0.3136311340334534 -0.010576747074581784
Ni 7.256531259497247 3.0399648926227054 9.503645809140238 -0.20213858787840025 0.6030033955195422 -0.24815310693530165
Ni 0.8083592440990788 1.4444000383676294 11.864125178280087 0.2581462135922716 -1.4563293948218787 -1.1309879143300328
Ni 4.11889647756699 7.588347887134345 3.196450510117554 -0.7648823645469471 -0.7383516652462704 0.9251993884038712
Ni 8.330539089953554 8.278256591640433 10.243874914306344 -0.3856037677170133 -1.160854619982478 1.66112907447221
Ni 3.4250450673994766 8.270435966560846 0.5034927681415642 0.7767402923267978 -1.6089199965688228 3.3756468489782057
Ni 4.833997775524718 6.2850430314155945 1.208106098832798 0.19750237465796955 -0.47576901314919995 0.0373172483932196
Ni 2.8462632804443935 0.4806010118435167 2.376450103621902 -0.4667796651663961 -0.02981682625111639 -1.348180568328078
Ni 1.088917921584372 4.266535070785415 3.7840709916892115 0.44467357729597606 0.3407840402991615 0.12052688844317953
Ni 8.888219071960165 1.613297774553879 7.480771255714144 -2.143223772729122 -0.6964974482146457 -1.1070830826879774
Ni 7.315431209800785 0.7111650709206295 2.4932698809201903 2.1665166818187913 0.6006086700351204 1.6100731363366596
Ni 3.0457956545163625 3.2622742587903706 6.666621972502888 0.5613137290902398 1.663330452998903 -0.46037119053689096
Ni 8.005932245673849 4.263610434660978 4.251783243194465 0.7619664764517329 0.21709135253349063 1.1608955005227428
Ni 1.0913797988283602 8.03528041387192 8.897006863099891 0.9449176927684048 1.3765195244820874 0.30899697769555173
Ni 6.349218432956252 4.0936668634049145 0.6150269135073648 0.6291957376441937 -1.5320224147798194 1.840684891954088
Ni 4.423123420751724 7.064930572636173 5.805536907083219 0.05043835915620991 0.2513700712107026 -1.680113585994513
Ni 5.467570213924954 8.973820209665607 1.9986954019226377 -2.0157230240712702 -1.2205083270893688 -0.8383621789036529
Ni 4.111520101012634 1.317668891367886 6.417378188457574 0.5706357778221139 -0.8858733371107388 -0.2678307878698871
Ni 0.4378476443966011 1.321630107384529 3.13967925066408 0.28266528177955835 0.4919368811583141 1.8130594169273353
Ni 6.40831274198958 1.221896313470176 4.757532423637098 1.055546348261266 0.03974591243937026 0.22292338583423543
P 7.97257658557109 2.36670625263517 1.343193745695688 -1.0363180961592733 1.866426519694566 2.293486497673837
Ni 3.35660302898108 8.590424477213672 7.733103492527574 -0.1760676018229613 -0.6043318845229786 -1.6180913786554456
P 1.7128742304488793 0.6426388103859915 9.943210288983305 -0.0050609594626751546 0.18198191042486722 0.5777842159414371
Ni 4.656946227864958 6.8512933078881195 12.286323242857666 0.7480678640927697 -1.161582242177122 0.3476386013271497
P 7.176936732060031 1.6891346998818493 11.26007397989921 0.4032381929693249 0.34532897935736656 1.228392614933452
P 2.221196350266809 5.617513346368016 6.7185305616406055 -0.683565827754642 0.599234158285097 -1.7874609996329407
P 5.880258583509308 8.37588020505994 13.55117098457559 -0.2872570149152988 -1.427625342018967 -0.7998578521808677
Ni 8.628000498306125 2.8322601967220087 12.955639177183778 -1.9264813188946177 0.8858501971822872 -1.1933207109309836
