# total energy = -340890.6903269708 ev
CRYSTAL
PRIMVEC
9.09556086445020 0.00000000000000 0.00000000000000
0.00000000000000 9.09556086445020 0.00000000000000
0.00000000000000 0.00000000000000 13.31227271850465
PRIMCOORD
 96 1
Ni 6.4203017136773886 2.085421091373844 11.62480890686729 0.11247753577614177 0.39077477039499153 0.380286469269158
Ni 4.819110089732139 0.4861477212074871 6.222382310032507 -0.871733555275247 -0.6616536010625831 -0.7434992708854807
Ni 2.5637748265067306 1.6740015883835433 4.7600962719596795 0.8394217305164189 -1.1286111865677402 0.05535507973153693
Ni 3.34099959492855 4.068871850290759 4.7340575004176495 -0.14516397026556935 0.9460232671277579 -0.02491141852969903
Ni 4.830606878620334 4.368825255318375 2.694204259242358 0.4658031601857397 0.14933198560032993 -0.16464264781547128
Ni 7.60457102033063 6.2801664079808495 2.8290705065505017 0.014252910374588357 -0.3185817931705094 -1.5163111746921498
Ni 4.7420706895082345 4.567845221823598 11.389993360718481 1.0497089156438826 0.7436957031670031 0.3447324834239482
Ni 5.4446754768867365 8.089146119070737 12.448266410984282 -0.05482286137715074 -0.9020522608634464 0.303667080842206
Ni 1.7008062061473976 6.6790158459051 0.41638567920308095 0.5744564371197849 0.07421283586798831 -0.3585611617769244
Ni 2.6344018563460003 1.7167143420377882 0.17272015236739346 0.05632644250587073 -1.0682242008392504 1.057859569775475
Ni 0.8171633760231373 8.923336384966264 4.559027075599621 -0.9079280029179332 1.1183869377365707 0.0054867341461841
Ni 8.869972729580946 2.4086682276852156 1.498309916293228 -1.7783166141295115 -0.07768562490793716 -0.928534366314375
Ni 6.903703485070519 0.6226657223622263 4.948358009116044 -0.21661569844865275 -0.05835530001044144 -0.6196080939557587
Ni 0.8363950298405424 7.559175076231751 2.606196522214439 0.42817172298621103 -0.5760258384894338 -0.4762577798601604
Ni 7.940097163761514 4.005439409067441 3.771912703888139 -0.3850306688223627 -0.9991435439915051 0.08806079749467415
Ni 7.697627703174875 3.8900349332656825 13.027150651294823 -0.5994437031927418 -0.02501169155298918 -1.20085147209039
Ni 8.192517167895373 9.206981449427003 7.020133940133818 -1.2356451827308075 -0.9549619643782843 -1.1202833834283352
Ni 6.9090152925948125 0.7178753244547597 0.385873710845217 -0.8162144391620201 0.7873666616923923 1.396721196240943
Ni 1.8127725599556925 6.304269644178411 9.522561937515382 -0.4825227869332658 1.1343704576490206 -1.2913579029120792
Ni 0.14964016676312475 4.694046128329697 1.3771279402527183 0.38497436166313054 1.7253727149426286 0.45424142349006935
Ni 6.4247403473620714 1.9948565921968178 7.276408642947121 0.23887091030242733 0.16271869131988106 -0.4769136682766045
Ni 3.5026186153038217 4.182138869297639 0.24777762988659977 -0.2535717068477117 -0.015617909042915037 0.38075749536830555
Ni 6.172929745803774 5.532011051969372 4.650309214526077 -0.24764145740620577 -0.3472819893186793 0.8654911739099609
Ni 5.257061343661415 2.9402491847909817 9.6886323253605 0.22953549183411434 -0.33302650784092963 -1.090037182949284
P 0.16503804169099331 5.595243390854446 12.506827269827443 0.07176874520286994 -0.2751918562206486 0.08551052026899467
P 4.058457433141246 6.172647783418067 12.788381264853532 -0.887197198128485 1.4896413787104474 -0.494263986629594
P 2.5744348237986334 8.780308690926018 1.3727484277134256 0.04983209303077869 -1.1774446631306754 -0.36921478483602865
P 6.670220438583198 7.745106530703657 5.986901878387077 -1.0236415291328693 0.033818748321657884 -0.30335957690411625
P 4.642192336042037 0.9686863238779205 12.719650659447165 0.38966431093963216 1.2395460604471102 -0.4952286645357084
P 4.0506261552672465 6.25701820567036 8.065613174537171 0.5802442474461555 -0.7224180247351494 0.7414696420499617
P 4.763190581753796 1.148469179229241 3.7647908797588214 1.4935543406116083 -0.5085976296434467 1.387550071264636
P 0.43671698632474476 5.61894642237552 3.8297813905521934 0.3635645285287868 -0.08179964707631074 -1.2388690889847438
Ni 1.2632824435770968 1.0831903391575812 2.3583752336358583 0.9515709364188644 -0.4543884905908948 1.9225380179761535
Ni 2.285796296442628 6.643761452130856 4.701108831313624 -1.0808863696879514 0.44941314886349054 -0.07358214426252489
Ni 6.271925829869532 5.97577436926855 9.12843855299802 -2.0700411778978607 -0.9530680897896813 1.4258960180326863
Ni 8.78834916669909 2.4960947583761444 10.271270303625279 -1.00187276999721 0.5111697612459971 0.23027828353740984
Ni 2.380253695654581 5.382543700862003 6.706736386644462 0.008697270663681795 -0.5700567653901925 1.2331275585152763
Ni 0.4588810489535061 -0.04707862285229356 8.877515678176659 1.4206206285663598 0.012682223453358805 2.10345009237561
Ni 1.180349119935827 1.0498823954008 11.206830594963003 0.854238226703961 -0.6362490449465494 1.1646603668818134
Ni 4.20451394893764 6.950936732456911 1.7299301919227152 0.44064645841445405 0.8708809774669646 -1.641115864575077
Ni 5.897052290291232 8.083334055700833 8.057226157896501 -0.7132564128405393 0.23523871286647877 -0.4307345986173808
Ni 5.361924064462051 2.916673491121518 5.0460034023986555 0.21566619005118984 -0.6983049337370296 -0.4885052297689458
Ni 0.884566939104514 7.590709385626825 6.977854135175047 0.10414510465104644 -0.5820417056662105 -0.1888434134313909
Ni 5.03370165637707 4.257950368809592 7.172186249628866 -0.4467381731344887 1.1772924538235274 0.5513386201553988
Ni 8.188924421367812 7.211324447877208 8.970394997584734 0.7590145929122606 0.04152434449603171 0.10869107215051604
Ni 4.68705164205199 0.29287523959027867 10.374986074205344 -0.5105642664515143 -0.41751912836837124 0.36490278772423607
Ni 8.473724622053867 7.148283115769548 4.913773048618833 -0.5566044965400285 0.14091985027723475 0.8295178411391455
Ni 7.324773378100673 5.823241814161719 7.041925994324663 -0.27381143093335425 2.3580453553918295 -0.08570875232272981
Ni 2.3203321409113604 5.596826018438739 2.416484043105806 0.08646414243151561 -1.4554001981393903 0.7856172831014535
Ni 2.4368371795734602 5.322758579531221 11.703498241825624 -1.7888691928343772 -0.3076528049628314 -0.8128612064190711
Ni 1.2293469061230962 3.4653086247821627 3.524530730897612 -0.42122871600947454 0.010546665167594739 0.5493866386353506
Ni 3.421086008030259 2.3898131300861425 2.6239292276071806 0.9215216824419677 -0.24263140578612405 0.027087857355727548
Ni 1.2998011203066098 3.5039647583065534 8.122190291563468 -1.0033244148420721 -0.024863596010899113 -0.21982083564951174
Ni 3.485609916553089 2.49863241984751 7.006595197839453 -0.05413766238466805 0.3948345422866619 0.023689116086823718
Ni 4.378002676195106 6.706220668345443 5.917917506833574 0.7836038522158504 1.1894504293422998 0.6060645509433692
Ni 0.7582050411717361 7.530114759382238 11.48086347073937 -0.5964254851917082 -0.37351906863833734 -0.03497831584739783
P 0.45525828707520855 5.6684899422125445 7.923797918755465 -0.799566546192694 -0.35069255766212504 0.6119279517026815
P 8.59713319138538 1.7803832678426674 8.273444010817705 -0.4588182442274743 0.7905062357626386 -0.482841089504633
P 1.9360265047531093 3.090935341049472 10.157796815387576 -0.632721234298949 -0.08941962551541374 1.730404363829265
P 4.184913015350566 6.23738088983997 3.7102502588021964 -0.2877336974414012 -1.4247313083006237 0.9076369540400755
P 6.752917277642907 4.411674442385058 10.638263449301101 0.8919527105355993 -1.5698266301117867 -0.3633894364035032
P 6.541090761490073 7.897884665952879 10.370739356854159 -1.0312501947180626 -0.1491008434261303 -1.17095982673728
P 2.4501621761883388 8.636380536363674 5.82406587197285 1.5838648533724078 -0.046368045741578205 0.40749902512820785
P 6.932263546074423 4.063741953983051 1.811347285573746 0.12506051464747495 -0.4039735284734527 0.14674571293039243
Ni 5.350854766932831 2.721801100354441 0.6641305650706953 -0.044582414596065156 -0.21113950582542992 -0.054880711198279676
Ni 1.4019078861759773 1.167915488282217 6.9606544296469 -0.18284014466010448 0.02433960518662905 -0.22667231135370638
Ni 6.825317941843884 0.8744499467941188 9.450355918316154 1.1100272529179656 -0.11775909589005526 0.08089127632942844
Ni 2.6145462470557077 1.221106328011779 9.156114525489317 0.5352041764873815 1.1520380501321126 -0.11812033588421593
Ni 6.601912776755392 1.9222740167792554 2.6843001030553673 -0.08587098893220695 0.47973314000327055 0.40911804878886965
Ni 3.963845409395196 6.805462332553591 10.36365755319249 1.0196689176383664 0.8575742330557296 0.050743549101454545
Ni 8.19306290154513 7.341809363533893 13.652667831977027 0.6777098831944973 -1.0123610711230435 0.46468395897963194
Ni 7.449937390672236 3.858473337188121 8.454184628724349 0.7684101751945476 -0.508538237160421 0.7088012052826631
Ni 3.0158696775255196 8.412893511227718 12.321426996107967 0.2799334846706921 -0.1288102114978943 0.5667238443622176
Ni -0.07766972258937219 4.880541507573017 10.26019463920348 0.11477635911264751 0.8192704523795244 0.48134445035444845
Ni 8.478972760652354 2.386884359499118 5.939882376680175 0.26464493394273775 -0.2185471111434107 -0.5316264864384522
Ni 3.6350317898563116 2.5318494079959986 11.51065598023564 -0.48660055654706524 -0.17867187221502775 -0.7845153082865264
Ni 0.9738798891114329 3.2365188876827435 12.548999747168429 0.3615734662406869 0.9292756153557739 -0.4249940965891778
Ni 3.2241216382724507 8.323484148276009 7.949582924150358 0.17476610940271836 -0.4225800878310464 -0.045653536173056855
Ni 5.743873950365522 7.753965606951365 3.6902818645576203 0.05867977322939571 1.1490296023230921 0.010657479713846162
Ni 3.1443990476039123 8.734176006399968 3.4861911228900797 0.4692322404719467 -0.4899000532339435 0.38256369533910883
Ni 3.380838151360746 4.466120469509059 9.254452090951036 0.40284712817849333 0.1840231092246121 -0.22284419585686782
Ni 6.935947248210276 6.240828107394263 11.821591365408512 0.7080905523688837 -0.6195816115931975 -0.5667780946389206
Ni 0.7652222663515167 -0.04375146670094716 0.2825781551754638 -0.9978772756845717 0.3497425350440299 -0.7932087222954661
Ni 4.78279151534087 0.2949881383709177 1.6603200457841578 -0.2989591338435755 0.3491532381994632 -0.3924007360341887
Ni 5.714495288886985 5.290260140688245 0.4699376126975649 0.7871121224794251 0.5897760981959908 0.2918983703420521
Ni 7.745479448697656 8.851754321239921 11.826676693468157 1.1741251118391391 -0.3252193530916851 -1.6056045590423444
Ni 9.064317577819926 4.7527124956784785 5.918117609171818 1.350123550987062 0.05181749889192367 -0.5234717185418016
Ni 7.953776887248734 8.79731738967675 2.494320214458354 -0.1942563569168461 0.43457839784350316 0.30698354680994877
P 8.563270418418014 1.5046058634992479 3.7603713467518802 0.007297562102677754 0.6018302011470474 -0.5294873286082623
P 2.010337236728233 3.4031222753924535 1.507495523174706 -1.8583828234544835 0.559128805623779 -1.0852960687198727
P 4.734284889438381 1.2445910660729502 8.355314972954117 -0.270783699850624 -0.837278716031487 0.06618379491592473
P 8.514654645785575 1.6212200488912987 12.600065863888274 0.5767133514747615 1.197500810450602 -0.38652165154559237
P 6.346400281939582 7.843120294199854 1.2153197322121985 -0.1528173730457691 -0.989162007298761 1.7529529385537426
P 1.5595794331513464 3.165291550828742 5.8635769882151925 0.4609448036521739 0.6376793496351727 0.47121404678866585
P 6.908260361045983 3.9669106133946594 6.224592531314019 0.32806273607775116 -0.8592891588643071 -1.5928518873623663
P 2.3098995326401894 8.467739743028208 10.236405199854529 0.08667240178757976 -0.6439232736623555 -0.5314354534735686
