# total energy = -340884.5669711647 ev
CRYSTAL
PRIMVEC
9.10786970526870 0.00000000000000 0.00000000000000
0.00000000000000 9.10786970526870 0.00000000000000
0.00000000000000 0.00000000000000 13.33028795124433
PRIMCOORD
 96 1
Ni 6.904794263532651 2.118007726554916 11.28768777399127 -1.6461400572625455 -0.9715934022873783 0.7273172618089797
Ni 4.351466806779457 0.69056686190038 6.076305112354119 0.4781732517153184 -0.3474218573306533 -0.5676728385390482
Ni 3.1486086988242707 2.151715951541606 4.477363975968464 -0.9098643007086975 -0.3217360225287749 1.373563270067241
Ni 3.9189523003844493 4.717839964929844 4.868700893607103 -0.31615210068309424 -0.5763091740578075 0.07827466464218777
Ni 4.125108926316285 2.8721666440293485 2.6259463217799097 -0.15869877152721054 0.21872580281312007 -1.295291947859163
Ni 5.282801109464934 4.892674627681667 2.7899089207201646 0.29225421101957405 0.3709795900459353 -0.5330349367502045
Ni 5.4038902343495705 2.915383484764783 0.38720467725051055 1.4254368190080804 0.8523155557599514 -1.1789125059254535
Ni 6.327164072535393 8.068524964153923 12.335662007314962 -2.850157842896059 -0.4515656764301191 0.09670947430860763
Ni 2.1484097949163243 6.535952872750166 0.18095059711511996 -0.103718301526273 0.1070044284767125 -0.6907250645072427
Ni 0.5523194216813945 0.32145861054180513 -0.06237524421003645 1.6626475679992656 -1.26394274412392 1.6464123370873258
Ni 7.99178205582162 8.683287939066537 7.176253402928973 0.2480644038762373 1.1859565572564286 0.06603492804288627
Ni 8.639479086814179 2.740266478058735 1.4796089195258582 0.9132833536925755 -0.461858830826011 -0.8983087346606142
Ni 7.2643547353036695 0.7102863101356358 4.631448179658634 -0.4198724590918963 -0.15098237671955933 0.5596893061129393
Ni 0.7399898049070736 7.534193584717519 2.0286030580560395 0.5327153486272568 -1.4764750165318186 0.6457850094614427
Ni 8.046702508853162 4.2880760351211595 4.29148602145864 -0.2483539100921981 -0.10906079678510894 -1.2749054137830107
Ni 7.785925989582992 3.850151454248417 12.693593081234017 -0.21450045187786282 1.1191323005430274 0.37763514768923995
Ni 8.592482480239923 7.1609075536233595 9.528689493103156 -0.06782801538756705 1.591457578118001 0.7023688193937581
Ni 7.220618746007239 0.6490131181340267 0.41246171013637634 -0.5850645516529344 1.256300397087314 -0.9603561388106623
Ni 2.1301029772391433 6.8440629897657645 9.340386112947844 1.1150540167085958 0.390463924022792 0.40621244510630045
Ni 9.313434105549677 4.9601821563499575 1.0959854565592617 0.08007237997255887 1.8850438776854375 0.9814512689180646
Ni 6.6485898947470305 2.072623212880592 6.710133590472525 -0.06728371284832284 -0.7212201477723063 -0.15686634630416207
Ni 3.867201385935821 4.483895229180557 13.288390695435114 -1.206212222181671 0.8791203346576214 0.8107297618983649
Ni 6.018981092563865 6.168714466998121 4.970797378241875 2.2533256091842353 -3.378080141010047 -2.3955878324219775
Ni 5.373132959078008 3.2377747411424798 9.300941751755637 1.0760041018949857 -0.5500566681191817 0.3412697216863284
P 0.47082584862251703 5.72806663314753 12.141799183622261 -0.0263185832898708 -0.07437944335283965 1.314901237449658
P 4.408190617970244 6.476533132190002 12.676024000985617 0.35103785681668576 -0.9333299879308056 0.11029929717790037
P 2.2987351808675034 8.584877409214826 0.9670708502078421 0.8286215545771213 1.1219715697640356 0.9576215134883186
P 6.4634997709481885 7.973129139103777 5.797102462316434 0.5471554353119867 1.7455232217485743 -0.39070123684457875
P 4.977678373642428 1.0227864202459607 12.48640089054104 0.6273221747705647 1.0153926588605158 -0.06170081944390663
P 4.1368580779598485 6.624062402207404 8.367435222196525 -0.5309320314745888 0.2634030911158367 0.04039871553202075
P 5.062764090428609 0.9627473445604003 3.82094069521645 0.2949227589906728 1.980616924396757 0.1235556479671743
P 0.40181734306208716 5.7797720082487025 3.4061947314116967 -0.679530481343004 1.5668973722801338 -0.10674808949153229
Ni 0.5897882859809738 0.3292549468262164 4.288179864833358 1.4180281852488352 -0.6346642169579328 0.7649247877491085
Ni 2.1123881710788863 6.449628485713191 4.684049769117735 0.33330033032760664 0.9405398754156833 -1.0186713296117875
Ni 6.505987982124333 6.160271471979839 9.105493247984528 -0.6999440120023495 -2.529445119425476 -1.1526204049981439
Ni 8.674216501053365 2.5726907872913465 9.86144004024007 0.818817681112822 -0.055443011459652906 -1.4216377569769645
Ni 2.523107545781609 5.697628133308158 7.054268063686409 0.8997971462806826 0.5116924665186865 0.6863906987979469
Ni 0.7052942868675449 9.204503986435705 9.13640626782439 -1.274686098683353 0.07192712515760516 -2.4293114499266677
Ni 1.0764955266351823 1.258725779413807 11.00935128234219 1.5767238714522522 1.6349788984394036 1.7533697143761866
Ni 4.451698910529395 7.510176132869397 1.384537334629597 0.3510553403181825 -0.6673105422380443 -0.4589503989299644
Ni 5.65655164190314 8.1519712644317 7.761400318617265 -0.8826771987709444 0.3586586065867371 0.9044616416358875
Ni 5.722000792066434 3.0829956070101363 4.327344614432186 0.4024408938790101 0.05694839236058579 2.054891466740616
Ni 0.6683800918199757 7.467405577739028 6.374010399263045 1.129984669876499 0.8851572848803207 0.13955279472637905
Ni 5.145317819496254 5.248227636876586 7.09485910564755 0.14389667351737154 -0.012350808255869051 0.5109995542167199
Ni 1.1400047005968652 7.788330467128652 11.39175702315782 0.16797762572597522 -0.62414531970448 0.5906011652004474
Ni 4.895780411178144 0.4550027469555686 10.251817899221292 -0.4324284413800359 -0.478802143548569 0.9088859959558283
Ni 8.204842446827735 7.52104182117232 4.4080458028453355 0.4596451110041439 -0.33845410661440417 0.13242801075613966
Ni 7.656630674286843 6.330014835686118 6.832679063688794 0.109100905994425 -0.7279453823112818 0.6520438458869608
Ni 2.7678997540948376 5.602286955474959 2.2641362062445807 0.34071024963843255 0.4874184244626702 -0.7057390214175716
Ni 2.7435453110755432 5.579089211881039 11.33911626985991 -0.7156853339970061 -0.9685211911199577 -0.19349171083667965
Ni 1.584741967848976 4.072219528181265 3.4204585658217628 -0.4927910016284932 -2.2389053199938473 1.0439511872244989
Ni 1.449389919341222 1.7251579917938005 2.388240946717732 1.7697790089721457 -0.6369576409777998 -0.5668210320617141
Ni 1.5275900867921053 3.181260410949989 7.935733137760127 -0.5663446066459278 0.42083636566706234 1.4065944894905968
Ni 4.3600828513180705 3.0949542396519956 6.908328116895211 -1.02308694218098 -0.22985430862611383 -0.48961491789335676
Ni 4.30004377563251 7.1699061286806005 5.781319435275246 -2.4445305808692677 2.131798818721632 1.0000262037067744
Ni 8.479809026765095 7.423068469056183 -0.1902388024221792 0.7114216736246457 -1.1475974978622558 1.0286050437857317
P 0.5771565817837189 6.1063893160702865 8.17202588226423 -0.6617361334740604 -1.2841886388571497 -2.9886094341384597
P -0.3175240109216349 1.5876838096946124 7.7343790914109665 -0.4014985845703989 -0.3042869738143921 1.191607842004935
P 1.969777150586698 3.4132378468891913 10.176941193347725 -0.6265292465556241 0.18769721564208966 0.7517111172723119
P 4.142687114434175 6.549614676986868 3.6106281484358096 -0.1213702102800813 0.9217474252995286 0.07501142050988371
P 7.168758537124718 4.099087743180113 10.303699056203644 0.08292630448158621 0.8741293092009333 -0.35205061435191626
P 6.601629719650739 7.934320507202051 10.098785654457348 -0.012988441839867953 1.094067901375232 1.0458584315495407
P 2.365741776713782 8.708789973641714 5.529469538893337 0.7314019734013145 -1.642157932686346 -0.7580802540234494
P 6.885021078867397 3.957314646681109 1.7112757771154128 0.45760622619724417 0.8982130896230145 -0.6626473324344201
Ni 2.873359774932687 1.8179398582999904 0.10677884034016576 0.2919323089037811 -1.7441086007892352 -0.41887564239626573
Ni 1.7359143856628305 1.308746198659119 6.445727585210138 -0.5249369902334184 0.9919184869979755 0.7473757231217516
Ni 6.973103284716161 0.6753321286025589 9.077939210412998 0.8252996892927399 1.4288898105536876 -0.3556303612833746
Ni 3.219322197553441 1.8497172149545595 9.303700525424501 -0.8677907685774151 -0.8651893263988261 -0.8596619688226936
Ni 6.865338972897055 1.9479182638079746 2.6249872631224926 -0.7282369454097717 -0.13412031085689805 0.5711602828670164
Ni 4.6733662382046335 6.849837379023144 10.52751493029184 -0.20668712648103116 0.5819512028349332 -0.05796552077119049
Ni 7.38563512544762 6.016713233060574 11.523460459147426 0.6597982930213991 -0.14908593102779483 -1.2737275914248256
Ni 7.475283884848859 3.877793838154011 7.992987026955297 0.8286696342062374 0.709722688655668 1.5232431259252928
Ni 3.5493549564342004 8.429588234390978 12.502543678427125 -0.19520226576988314 0.7672554927648141 -0.9766049965693567
Ni 0.33082241116564076 4.985456494187856 10.108557487634387 0.24868095441431362 -0.9924681888538586 -0.18888712218513276
Ni -0.11134734767691898 2.9117585527073113 6.164404623154916 -0.4296907307338987 -0.20317191423892106 -1.8844823487550126
Ni 3.809912886836584 2.9729270042097724 11.352565860737469 -0.4354111781574437 -0.7167626262215849 0.32238394052541897
Ni 1.2113830737988884 3.612226579531504 12.815751469996911 0.984353530166524 -0.08187472328862028 -1.4359572589234302
Ni 2.9413955600314634 8.64374156973603 7.752855315460683 0.3259732005385741 -0.39691199364098095 0.5781153740286108
Ni 5.743868786714649 8.085802592578604 3.4475189568668734 0.6562411717977602 -0.29135843867818206 -0.34510143672759275
Ni 3.334627825311207 9.00868479237631 2.9443802088637083 -1.1874927913952968 -0.13172147160741832 0.9629598949820964
Ni 3.531394237797683 4.49660070712069 9.049985337370808 -0.5730423303810777 0.9204652161529955 -0.022875361936276734
Ni 5.470568946894168 4.571458286468326 11.672972512353047 0.5441192195888241 0.1992178146871795 -1.0213820436747312
Ni 8.464626208323372 0.10570137937936452 2.2708277579597174 -0.9121680091412097 0.8729663992410837 0.7193033903655677
Ni 5.000019977504181 1.0598645569443703 1.43936488739233 -0.7867511395955805 -2.9359283016946596 0.35475541487758905
Ni 6.363641089847388 5.740717463870716 0.39360113399413443 -0.6109445047434897 0.21900116796169383 0.16986635810825582
Ni 8.159139157721222 -0.09994975979571291 11.316587954673588 0.13636256992385548 0.9769945186982917 -0.851884895980436
Ni 0.5417278802501538 5.132940224857802 6.007267461611318 -0.7998501388713838 -0.14307906271208262 -0.2833872475472474
Ni 7.432394927415105 6.2445101569033445 2.539845988332416 0.7328453907160605 -1.6264096687131537 0.7972199003373882
P 9.054524699525189 2.300529431157257 3.767192424988416 -1.0718332583467476 0.08644125961338016 0.4062322426006423
P 2.577590821077577 3.5115299744375177 1.2907718182183645 -1.9280993141140148 0.455244667943603 1.5846660091174645
P 5.02055822320669 1.4047249273566973 8.096936963031517 0.35759956919460345 -1.1415104111279113 0.22535770630734092
P 8.794513241292274 1.9860346976283736 12.627887999938022 -1.22806402794944 1.1728809550193928 -1.12234052306768
P 6.897990685022773 7.792456332008135 1.3077133662588243 -0.9876756525612216 1.2201974807171696 -0.24593630178964096
P 2.3236269881867746 3.748908376984963 6.042219821570496 -0.03240695557579581 -0.8952619774144904 -1.212158412462777
P 6.811711837333253 4.340947217517196 6.06433463948192 0.03554987208015168 -0.9274676156127576 -0.9121461547643389
P 2.493388567632036 8.914099567710874 10.155719857433379 2.6350783785862744 0.05620971442234836 0.21327866365561982
