# total energy = -381168.8496434619 ev
CRYSTAL
PRIMVEC
9.19894193495702 0.00000000000000 0.00000000000000
0.00000000000000 9.19894193495702 0.00000000000000
0.00000000000000 0.00000000000000 13.46358136510660
PRIMCOORD
 96 1
Ni 8.16741859181473 6.665792507320753 8.437397419124414 -1.5193173085083254 0.1914602822289477 -0.5419769764348408
Ni 0.7305118972640507 8.273804355432327 1.7768023140037408 1.2690085886826015 0.8025001748997211 0.32846948459786657
Ni 5.871169504050955 9.065814859189164 7.470981415310931 0.5323242838364252 -0.45262677070478174 1.9959702669243753
Ni 5.971355180796242 2.751808289807376 1.9256154376695067 -0.23552616219991052 3.0414083231070457 3.2801244529991633
Ni 3.6812785830789343 8.030446346223203 8.203872158962486 -0.8745879940049067 -0.303011192425762 -1.3132747575898285
Ni 2.7469880442271233 8.762084193981572 10.367455945754344 0.672238575667281 0.11715051577177889 -0.05661954826625733
Ni 1.2160909264576434 1.9479127530549536 2.6230424203268092 1.6477179432726268 1.4141481334681387 -0.2505424331030846
Ni 7.396860020678406 3.9655442871265754 8.91340218953952 -1.128628927179553 1.3523526974278968 -0.28253672662149404
Ni 4.515797397573075 4.862321540718329 9.67466063036738 0.506454872268831 0.9851009498555098 0.34770879244345276
Ni 0.8343707115287936 3.464735489645452 5.097580801437273 -0.532981714914766 0.14174106062694944 0.9176909958419679
Ni 2.3608256602320448 4.258190227287976 3.390197382942726 0.1262311379168084 -0.12323271741011678 0.6743013717335806
Ni 5.779446853896951 6.416712756220567 8.41222083490954 0.544936573283797 0.8226509388159833 -0.5625455446148118
Ni 5.479331372874547 0.7081685871688688 11.108895266157292 0.1423691811292516 -1.298263628892977 -0.4139213837147839
Ni 2.595683847082097 1.780206842418343 4.952066418353718 0.7017185874042688 0.3212513695828725 -1.0334204628965042
Ni 7.409600555275065 0.23603565141927452 5.6697430319190545 -0.4692345544647919 0.14040768652750657 -1.1345424644505107
Ni 6.908506590593584 2.598765492634358 4.2364641661974405 0.43636865697470656 -0.5583621026610835 -0.22776708707978194
Ni 2.201463189941405 2.8927360804361335 -0.09323127663331958 -1.2753067629864876 -0.32293184260908897 0.43533018840786314
Ni 8.932145033756628 1.2563454964179204 1.1090088029346554 0.6870962095054037 -0.040440110292917456 -1.1243053601035347
Ni 1.193820288003843 6.201061960155948 2.9614227401663427 -0.903558670205644 0.7287663355506805 -0.9042693231194233
Ni 4.557376615173727 3.206088838920336 3.980561559855129 -0.20548770685629125 0.42067130084410775 1.3755504757005985
Ni 0.8817489421328636 4.347429163116277 1.3766244220581418 -0.4338075811157497 0.03580055463837705 -0.12877395894332017
Ni 1.5847661218113862 6.650237096488297 0.17506966366522167 -2.3984389287175274 -0.4942310765091295 -1.8685919027770015
Ni 3.5238294927132805 2.8149866230996934 1.8463279172395208 -0.3111178806932965 -0.007017826078729849 -0.5452116813220546
Ni 7.0990902698525 7.937159875938201 11.879200866390072 -1.3373174003613293 -0.49874233411592167 -0.7620821760939908
P 4.296034674458126 3.8391968194838872 11.5546207992595 -2.1500369389962133 -1.0144722039287755 1.530949750540931
Ni 8.050748411100336 3.7402529999014513 11.233096620643733 -1.373803411102505 2.4716176668940464 2.8046413465214988
P 6.052857806447077 9.015349463667665 3.802654022599244 2.1018938036320836 -1.5596828568095658 0.885843769424384
Ni 8.195705338301899 6.044937517430669 4.31164435904807 2.2706751562062766 1.3930514606988396 1.2462178160403312
P 0.18123755424071658 2.667987530785885 12.435650384132103 1.0396787851013902 -0.35825340072851847 0.9445104300276572
P 8.33413101672106 6.4863855425275 1.602502601779487 1.2192603136148807 -2.9717903056985917 0.7420476260406188
P 4.401932894152529 0.7062220910528736 9.14465255135794 -0.20760038232391992 -0.8787449535960736 0.2647063833082925
Ni 7.955723340787341 8.167878538912083 2.9016176588860065 -0.9515598806752709 0.3000852770282187 2.9124186486084938
Ni 0.26444382394014454 8.104782996097288 11.740889254851055 0.1335574963748926 -1.061113043715766 1.8869503506795307
Ni 8.870171761859373 5.2426701934028745 6.720211608091093 0.5499437966904013 -1.179705177030078 -0.5752665917259061
Ni 2.7802790151334857 8.336237574426935 5.915924196411727 -1.4076650968469564 0.5068423375152368 1.0465516009618232
Ni 4.821634620486542 6.9229305315665535 6.157608918080682 0.22391171788943373 -0.6608740425840811 -0.6134047933585243
Ni 0.3612286518476083 3.7431966613245065 9.822665167036 0.376529573329887 -0.831482421064684 -2.644192425072401
Ni 3.5894271477376716 1.436635559638091 12.413596840708253 0.8344247915224596 -0.6759826160907455 -0.9782525594751088
Ni 0.6422673670602252 0.9814811110401611 6.092674506770674 0.23474069018413765 0.9617103388457114 -0.803967246363551
Ni 6.266926384496804 5.134076683717986 0.7591601621697387 1.4978298280585107 -1.7737588195555003 -1.177327935047153
Ni 3.8392152173677814 2.788594858653616 9.088253838280595 -0.3911738056056231 -0.7255586272466601 -0.19230103296268816
Ni 2.0863292325321674 4.996184543931754 9.87334213822228 1.7732181165606817 1.5016947103305558 -1.728920580194887
Ni 4.617436507145995 7.4099777118948955 10.165178571492342 1.5533674561144988 0.27430251163715985 1.465375307074231
Ni 7.689202395755554 8.145847072948905 0.694327859115342 -0.3791456707964954 1.4282465205427337 -2.7182381392349058
Ni 3.4843476338765553 1.172184376544389 7.03997234953561 -0.7756619716609544 1.0254163616451049 2.1468464570833734
Ni 1.2643669737957453 4.8490198706629 12.239674285103828 -0.662427246003814 -0.7219094605298471 -0.10787011891111743
Ni 4.556143956952822 4.793062706799013 2.343309034976478 0.7240658447512176 1.2638234449372365 -1.4943179582505104
Ni 1.2168728365231425 0.9047067415501083 11.189650017827832 -0.9847582218041105 1.9045346394201972 1.1462150156924327
Ni 6.8664030333019515 8.25258239636049 9.487664538467811 0.3474108015870597 1.4450988162133822 0.9082223942299004
Ni 8.783821293802443 1.1699214368254152 3.958669917809547 -0.5521261490537007 0.1870295001511037 -0.521289109068186
Ni 4.885659256437987 0.24600270501889973 5.601186077270298 0.4852209025907192 -0.00501622226766878 -3.0077345850036847
Ni 0.1333874179147631 6.22747212248592 10.53476814167562 0.5027146885001084 -0.45787747758075986 -0.3629688039263168
Ni 8.387880434517655 0.47241350347897915 7.75495551289885 -1.3940364503199283 0.19800605376726546 1.6599211702070382
Ni 1.088317622813163 6.665626926365707 8.240627451406109 3.6355954058865385 0.30925460223231255 -0.5386905923740851
Ni 0.4332020935354974 8.643270659793517 9.584629665637438 -0.9089628719403506 -1.490539979265317 -0.9684931660954997
Ni 3.5359812950253295 4.966747929701205 0.24967952211513436 -0.279441375525622 0.10377152336171161 -1.2052020357496016
P 1.5816292826074432 9.092629774964806 7.6243047802133335 0.045194594258767325 -2.1839459330388324 0.3638185535211218
Ni 0.713021029045936 8.281025524860759 4.43769102128909 0.2878457975392333 0.23188985099890388 -2.0279172521446167
P 5.11173245372861 6.69085042518451 0.5077953938899054 -2.575302801189539 2.241043706493089 -0.5744376680667074
Ni 2.231856494134448 2.95638355976775 10.859064881394225 1.383750752123204 -0.46264147462830646 0.8688860585241228
P 7.187372515718308 5.980636913220812 10.248639651883702 -1.0405820136419497 0.007431773687696878 1.012155639980457
P 2.2028890259431977 0.19239495092828968 3.4452226939873762 0.8164239840696649 0.29936305415021347 -0.8378153052612475
P 8.96272231678861 3.7209536196965476 3.2594656995680755 0.20144490424548533 -0.573502814957264 -0.026013907565258426
Ni 1.6665907104303677 0.07819100654989802 13.279453690733398 -0.8948500866880525 -0.2525224396475909 -0.02173147813982064
Ni 8.174722551720686 0.8035680544191073 12.29433623794157 -0.6351910359956803 -0.02546986213633033 1.0395839113947385
Ni 6.404689739095777 4.78756173951468 5.004857306399431 -1.8673472317366229 -0.05978097671337446 1.9617625106944148
Ni 7.093478915264802 4.824090737986403 2.826140340210488 0.939137595751518 -1.9960222032082335 -1.6559313323213547
Ni 5.363268322328658 2.749508554320614 13.473275397557675 -1.9571826046332161 0.3336222324433996 -4.149388720798312
Ni 6.89624440097817 2.836944497527294 6.762945292906099 1.254289794415188 -0.47510361165105913 0.3796994864174364
Ni 5.3998893102198515 5.674431732629464 11.830233978511746 0.8341815651634021 0.7750173960984201 0.5979642904337379
Ni 8.201831833638632 1.7629864230934713 10.247737235678697 0.5505582903459486 -1.7117504961735037 -1.6211252803857628
Ni 4.654701420973482 1.0749055654543687 3.0841964188626028 -1.8888884482425081 1.0516164170792404 0.649610810965436
Ni 3.0193227205694444 7.267191734992834 1.5320212284754091 2.317115964167319 0.398645688502636 0.9723842736197899
Ni 1.8749467455309783 3.2086001500718804 7.84512078218122 0.36215479266545375 1.8491145107786797 -1.2856174008838763
Ni 5.12182369304452 8.41910164348593 1.8372264840771126 0.5102865873100954 -1.4484024266653184 -0.37099938754027717
Ni 9.06221807288787 7.691474534416475 6.310717027741525 -1.2332892809041212 -0.16229754462206245 1.8380824213342344
Ni 5.906585430547086 0.3371209846869827 13.386758428651506 -0.5211978349059605 0.5637048550302356 -0.5538066220799172
Ni 1.5322125664679074 6.2655557421466925 5.282018667581367 0.5115785666486415 -1.3542118621238226 0.531543954026975
Ni 3.408732331071831 7.593395415377061 3.926855377085686 0.6503338051743897 -0.576436186553975 -0.9832222447755583
Ni 1.2133680396413176 1.4733393380068078 8.923459392770226 -0.021020825226041217 0.5445221114541977 0.5912205439520011
Ni 6.047605210595313 2.9509377861350985 10.852494997055643 -0.9354945996822921 2.0036583795972525 3.1142882990962235
Ni 6.15869163354785 1.9176574329911167 9.12627490513613 0.6537911675953707 -2.423981553073322 -4.291889799519737
Ni 5.129716385235086 4.496645200439324 7.358116836880028 0.17656305340214107 -1.493177416888164 -0.5419798046483182
Ni 7.653860060795001 3.2494710491426093 0.25694576635910665 0.9536789839008026 -0.15759165450596085 -0.2049426329860987
Ni 7.995343183753272 5.762474806004649 12.536505743851134 0.17559966104760724 0.3554724955492717 0.74797221905517
Ni 3.0134353977233346 4.451745164795788 6.212338943088833 0.23529373447413027 0.41324904023810766 -1.4379328945925622
Ni 5.936463593991093 6.728115339011995 3.4968425567232297 -1.1032989330551966 0.9600054403394628 0.5103169263273986
Ni 6.923197300883018 0.9347780827750044 1.9920713539775574 0.6900442363901341 -1.7403468197539576 0.8361176058438504
P 7.085117077034935 6.458779517744412 6.343730190601087 -0.36515912670941625 0.41206170479822585 0.30724811332524504
Ni 3.2996696753476438 0.6020495928677365 1.2048314215144582 -0.12733542672458067 -0.15426721811841818 0.6961380079926979
P 4.97728991717252 2.553396310951523 5.979311345686242 -0.9467930554142467 0.0627490582027629 0.01825997465145242
Ni 2.9601275291401983 6.4120120968856265 11.407962067797731 -0.9427301981987828 -1.0234414973069212 0.3172412199822149
P 4.130941263334477 5.466130891180535 4.214666353359719 -0.4443506467389186 0.7311433204232891 2.2279390507903307
P 3.33273067270533 5.754453328626824 7.987848805749013 -0.3247516694266471 -0.18050558298965688 -0.06073768419968893
P 8.970164260823772 3.2240543725429185 7.630861786033189 0.028982246164962987 -0.7996935586888615 -0.2885297109801353
Ni 3.650535719091904 8.136004205065564 12.576384996979971 1.51972277147686 0.6965074755169747 1.1940403627058276
