# total energy = -340890.49536107894 ev
CRYSTAL
PRIMVEC
9.07573334384311 0.00000000000000 0.00000000000000

0.00000000000000 9.07573334384311 0.00000000000000

0.00000000000000 0.00000000000000 13.28325313789799

PRIMCOORD
 96 1
Ni 6.239103635920944 2.076255458644401 11.545537745860846 1.2860280060587337 -0.23179729128509757 -1.5190038910329646
Ni 4.846459620697763 0.22088882219989894 6.101038138739611 -0.33987541244196307 0.8938190743203769 -1.6429164081189254
Ni 2.801860319065871 1.5824175941026437 4.777507646131583 0.5495380766115504 0.09380669883951585 1.1674659546514088
Ni 3.392681467390791 4.48358458462232 4.883042993203991 -0.6424680292730678 -0.2674271246735653 -0.2031783419968243
Ni 4.796915193767922 4.471640919877922 2.4800493449224232 0.2410674037331139 1.259539987070534 0.016078136508785215
Ni 7.120448076140195 6.273972602446765 2.769744022385778 0.7661967124829966 -0.9699862057012585 -0.6341145151020499
Ni 5.1887055154631625 4.378088263202193 11.502459778756524 0.00533889571441016 1.1743652528744033 0.05140098017979535
Ni 5.90584271691311 7.914592872845629 12.601170749164046 -1.0855194975845885 -0.5175553530573668 -0.7213990965523318
Ni 1.8038564057277024 6.45792863641653 0.3506554690451556 -0.16678052009408048 1.1688726051909482 0.4324919476281197
Ni 2.655332608352867 1.8695374860888057 0.444380564649565 -0.4524707047428917 -2.1510244997204637 1.6157827851269269
Ni 0.732143926111698 0.013130770632367526 4.890694743770862 -0.2841737480042848 1.2084503674835705 -0.7818357045718342
Ni 8.518183577625997 2.246606968714582 1.4703232147272143 0.5174370823119475 0.946978946172808 -0.1648290527946645
Ni 6.8374394912431 1.1412008300077117 4.873400026797514 0.2593356059146824 -0.5670791708191073 -0.0482835175967362
Ni 0.6706050103321628 7.443979809277213 2.4720263968722347 -0.12310416225205251 0.9986293233592479 -0.7439579556894542
Ni 7.702883247091387 3.9144453626457043 3.681346956721916 0.2868124711787125 -0.2732488735616649 0.5313048414329753
Ni 7.629188294413185 3.6845933464476532 12.735650424202133 0.1488409048965243 -0.35640400622460555 -0.6439343294059491
Ni 8.156533765517494 8.914039827744862 6.7174474089341025 -0.7352488579512305 -0.041771684620147416 0.6075874153457987
Ni 6.6166269052011435 0.8590871123931382 0.3858920027610575 0.34587251056566237 -0.10085820636965856 0.2581744957270457
Ni 2.0906767985219457 6.68778972834767 9.165231615153782 -0.2376684053538939 -0.32504014720134344 -0.0037556103876903056
Ni 8.670882786839146 4.866644051086473 1.4208831587278898 1.6018317222634735 0.18171811524051928 0.03138879872392659
Ni 6.469953982758725 2.0917114320940287 7.349384350869621 -0.32396671163150653 -0.6312960718166483 -1.0300541175274325
Ni 2.949032406828155 4.426062588307732 0.5443969584308869 1.037381247316465 -0.14258078291942541 -0.07604757508388194
Ni 5.686327960702803 5.404499221107207 4.666034954472713 0.6709681935952896 0.2893820316781016 0.5437510376161281
Ni 5.121127606886573 2.96386215469468 9.37077700299435 -0.1549704148330299 -1.5988847238200077 -0.10614876534463655
P 0.4328607366403971 5.371318340935838 12.385278118029337 -0.9607225210111455 -0.2936143245918943 0.3035642367157546
P 4.248051159510901 6.085714670993075 12.851812547147807 -0.005897596431357585 -1.177801789359778 -2.792100533742011
P 2.328633444367981 8.741074506545207 1.3663016999339597 1.3855790635811944 -1.5061244639671352 0.44803760867220255
P 6.358685495094345 7.512664957290593 5.690891239299674 0.47865867599216916 0.13317671599670614 0.11178616613607198
P 4.577699936749532 1.257696939931039 12.454444279896405 -1.087832204878165 -1.708086159948039 0.20823133103969949
P 4.181743853566695 6.079098461571595 8.233611243917762 0.3413062313512186 0.49024149573376213 -0.2878684232470526
P 4.755457245019888 1.024078494501282 3.7707166080171786 0.44715494895693314 -0.44722796828671363 1.2296218593548631
P 0.1776656433661622 5.759841398719237 3.6527348005872726 -1.002075115816003 -1.7870856185713935 -0.6235832765534228
Ni 1.3351401703747712 0.9125105076449823 2.6829645853139583 0.02060636339644193 1.8889591535794437 0.19357167214499565
Ni 1.7950620203649956 6.7947472427950375 4.669834056343537 0.25428544508528467 -1.4086793970440836 -0.4057987546076495
Ni 6.277357850888755 5.792849839961924 9.111501460123549 -1.0587332306296797 -0.4439984056058224 0.20631303097106404
Ni 8.609095195972987 2.1061146205053967 10.11591465616878 -0.5359765358770319 1.3158898266151724 0.26724920433480426
Ni 2.4115402661309595 5.3742316512572295 6.994230040932521 0.6567412513626303 -0.28871225930458666 0.31541856495117937
Ni 0.4726160778610376 0.052725471377342514 9.05495419754266 1.110305703390333 0.3373935265603738 0.5119966280226667
Ni 1.2735068669711165 1.0788051650246273 11.418470222036094 0.6202295295898415 -0.4626221913545968 0.15222087711235074
Ni 4.0260042737689155 6.882682020689016 1.4169778707799305 0.08233777896796787 0.42123180133326815 1.8794530138612213
Ni 5.840860467999817 7.876138991749873 7.735502339384581 0.5489780903430223 -0.9753716383828879 1.0509371316240288
Ni 5.147665050437197 2.8972190466262013 5.091909191781621 -0.2775511004814446 -0.524457993714471 -0.499112830081463
Ni 0.9848531760930067 7.360374156066424 6.803708621646572 -1.2170298816224652 0.5642679266225572 1.46195779675225
Ni 5.073216811912653 4.087265472115944 7.227723241245657 0.4388117191985604 2.499697198739082 -0.17813245477179
Ni 8.42795263926064 7.193553106167649 9.122313380951816 -0.7495004827742382 -0.22734799726449234 0.9440226917579613
Ni 4.821138325380991 0.05649825362221062 10.347468372320915 -1.4634891457951118 0.9926049715420389 1.111283236812254
Ni 8.322247575979478 7.411171034162471 4.713004595925361 -1.2233457965381642 -0.356318902709967 0.08797903641414526
Ni 7.60522835905968 6.290363376404502 7.054775163938872 -0.5782989507943266 -0.58559548445574 -0.7721148777396444
Ni 2.173483787220951 5.295672105643618 2.536278049271907 -0.701928646532546 0.5360415847870124 1.3298668576205548
Ni 2.4813326535811298 5.329079879142197 11.274612591997712 -0.3809246170737891 -0.6134271619560274 1.0074392083413939
Ni 1.2377394028695403 3.269124437124651 4.079233448332666 -0.6771398696236403 0.35800811748693184 -0.17103338183316352
Ni 3.846277531418367 2.3829244797030813 2.451610535289769 -1.944343286776703 0.42847871270366855 0.6654349224818862
Ni 1.0530754617188753 3.2345186668583956 8.263100115868749 0.3295676027580518 -0.05811670163707411 -0.32904206927188495
Ni 3.651158345749809 2.3395697027395617 7.319390868158916 -0.13125044550827072 -0.3792886241322629 -0.7547727869167711
Ni 4.0379388627802255 6.971896476948467 5.701783026579122 0.7203745119425593 -0.16567006063872114 1.2582729474326522
Ni 0.9760678664633884 7.313198495472667 11.497665068965897 -0.7531162251499546 0.4311683437206897 -0.09914405189202925
P 0.4245700544640992 5.625856351134469 8.06463470741048 0.04985394740764962 -0.2602493759782034 -0.7204583299056172
P 8.50768295444266 1.6364272817120016 7.904265596164284 0.17804040927861595 -0.6973376847277538 1.15507992228223
P 1.702035756208397 3.075103415159795 10.411320692464693 0.4133246306710494 0.22977563286937847 0.48581585586224074
P 3.7808414958506518 6.3293073470870365 3.6848275003613358 0.3804181097510158 -1.0646655369537146 -1.0854305374152082
P 6.877708518956546 3.793002978189173 10.182224684832912 0.8665327278005979 0.9155950325448876 1.2234998056175252
P 6.418512727613398 7.6045476790780455 10.331155649667737 0.8681728345071822 -0.10029230656385953 0.38442800224135726
P 2.490235947740898 8.523756077742304 5.886473287355743 1.532135543318916 1.1555825729502613 -0.0731622831162869
P 6.724973006811044 3.9331595242740858 1.538625366804261 -0.11638227014718666 -0.3324798913088403 0.5162150369793884
Ni 4.985881032402511 2.8791764892463654 0.4064657820992618 0.9780620407308575 1.2949049968333892 0.7114288727134973
Ni 1.5427838677053882 0.9607480290100869 7.097148854155529 -0.12568992070135773 0.8918704352344382 -0.26202446560075515
Ni 6.8672169715063 0.49195374235259515 9.342191166485662 0.6966645699201293 0.37994785498281664 -1.03125302293154
Ni 2.7287371375722405 1.4824030154679393 9.317165740067574 0.40724988523187927 -0.9177282768378066 0.5951913556742912
Ni 6.245256982954913 2.0191327945857047 2.530699196142437 0.4314002572258377 0.5736874201642442 0.28840475536649685
Ni 4.143444259933441 6.903302086265972 10.652849546854343 0.950284870617589 -1.1969040574068677 0.015207818088689937
Ni 8.226671030825026 7.1219364963667 0.2627697001098541 0.4969081091206604 0.5188442470721193 0.04020871100840172
Ni 7.740810735668015 3.991625396829872 8.215732049733518 0.2675479665221457 0.0450225874572773 -0.6403586962395487
Ni 3.0877912900174462 8.640470005259754 12.650890337742494 0.8243409249238964 -0.4474632242259713 -0.7174318843744676
Ni 0.29466001103604506 4.819114436902267 10.01951766474313 -0.25841746497578716 -0.40468135317375464 1.3519796303591942
Ni 8.739858358311354 2.7943819150009896 6.103893364369237 0.12204641041149951 -0.9063467744737423 -1.0915662179993006
Ni 3.26655600466062 3.1095821251628117 12.001126840874644 0.5881465330123677 -0.5155138971473057 -3.1001459461575704
Ni 0.9822938193620642 3.226586476139092 12.767238513216478 -0.9653913872417245 0.5620747756259804 -0.32216925341145164
Ni 3.472184889245601 8.299440258728206 7.878642986508976 -1.6840193488068222 -0.8735495254380633 0.681082399211156
Ni 5.598493015872796 7.778084771462273 3.700130093921769 -0.8103659508010431 1.4068282027679577 -0.3093960129061833
Ni 3.0751669452914143 8.52044343516502 3.6502507724409634 0.947379524045336 -0.10701779821315116 -0.8109783875740615
Ni 3.2543400679235677 4.324523286514169 9.140378627664374 -0.39699169783898075 -0.38967253846974825 0.34961706520975916
Ni 7.52361936712835 5.871309552511564 11.40591757560146 0.20106103854350535 0.25899493474581203 -0.8179669030767526
Ni 0.5359846614312038 9.136449742810385 0.3887490435373012 -1.0951063699420753 0.10850312450942604 -0.6262633944887472
Ni 4.60527201387224 0.1370272333160156 1.6186306766988627 -0.5629708050776885 0.5356119534487614 -0.23719403682063667
Ni 6.424094303462795 5.603756941064097 0.17791613359940336 -1.7597478499883887 0.30589854127588606 1.281000213826839
Ni 8.218602704109394 8.794439817105285 11.192707731167697 -0.7641531996904065 -0.2644618713976542 0.77955205074398
Ni 0.25595019426719384 5.109292850939236 5.8189144378186395 -0.10704479479634468 -0.4097896209345974 -0.5636164090814874
Ni 7.871573898006383 0.21098084438723952 2.5963848143700847 -0.03759389909337396 -2.135065919508678 -0.37296962389277055
P 8.688308194368966 1.6936770060339357 3.8324842322705424 -0.38850602896547287 1.0943029002041735 0.7973034611901301
P 1.5041938506133046 3.3162274918536996 1.8767644923471372 0.3416679855660116 -0.9757832719990098 -0.8970478656703197
P 4.89995199152108 0.7350935393654436 8.257720021293917 0.48035611829925007 2.1344614531554593 0.5229222737962349
P 8.291589749606699 1.5272462126579642 12.462599733649684 0.9259198115096633 0.37921457636121786 -0.054883796522073224
P 6.406650744466796 7.878598515416842 1.5182358248477523 0.44449617117784734 0.1365327769531326 -0.7132744105626684
P 1.9879394999607067 3.301724470378358 6.273586883790506 0.09341717671058106 -0.34004510525060794 -1.4069300184531446
P 6.898092615473203 3.9663041015131 5.873868001669196 -0.14892240886673708 0.42984473981325966 0.5545591839752255
P 2.5164829678326917 8.367272287831272 10.447743424495258 -0.12030731623320569 1.9533285209944489 -0.6468980400199633
