# total energy = -340863.0994615814 ev
CRYSTAL
PRIMVEC
9.34948714192721 0.00000000000000 0.00000000000000

0.00000000000000 9.34948714192721 0.00000000000000

0.00000000000000 0.00000000000000 13.68391949285406

PRIMCOORD
 96 1
Ni 1.770736748808707 4.8814419804588125 10.193110891585206 1.0760596377232694 -1.9057667120550859 -1.099372344307281
Ni 3.6362866457090592 2.556140407761342 2.209378217813977 -0.1892697023355321 -0.02072257725933205 0.08989476537961938
Ni 4.735038362870106 3.693636399223915 8.229208130799156 -1.4210906262242429 0.8821717198894354 2.1341454645769375
Ni 8.464361754132854 4.493662655910041 11.023533265593173 0.39448332959483023 0.740598552298918 0.14500456186956961
Ni 6.2723838666525085 3.6020114262135485 4.233407529766321 2.0134457980013196 -0.4536557261899284 -2.1028142585638236
Ni 5.30362741732168 5.458922397087209 5.474361205039456 1.1831075178434074 0.9890290812653224 0.2054617387143623
Ni 0.32684217285594797 6.697720080648488 4.639354777534861 -0.5658900356070125 0.45679838558396807 -0.6360027332636982
Ni 2.2513845281444134 4.461995943299214 0.9046834796841611 0.5595630649477202 -0.29848785063411176 -2.0032104934265567
Ni 2.043891362224101 3.583396597513177 7.534872215429193 0.6213477023546847 1.1874526821859808 -0.44047393739233176
Ni 2.523884677466876 4.694330696289785 3.1130510179489117 0.6423772693314743 1.2285407104755424 0.5505395212928712
Ni 6.823433283413527 5.888194745127818 9.754226335916849 0.1984796509695743 -0.032558393551995544 -0.7187984257046911
Ni 1.126781479312585 6.764484767614511 0.3998532521146471 0.8104965628416364 -1.3203244653477584 -3.3746878274990464
Ni 0.6761315291507316 4.2228641132292 4.349406615494853 -1.999372350627389 1.0723405370004693 1.9707158632329609
Ni 5.349711038951077 0.3152469390266157 6.945833962919631 0.007897400470205753 -0.18192817436879635 1.7780391920984089
Ni 4.958612646502441 1.1242664672983207 11.230611314288826 -1.0112511258883163 0.21605082708411827 -1.531803099680162
Ni 2.058139980475917 8.792566147250803 13.213110204801163 -0.031214735039907536 0.6303295941383209 -1.1009959959536328
Ni 8.944822543727723 3.4103749903162544 6.874089739155105 0.8438823373909337 -0.1677454551105111 0.9019301334632854
Ni 5.012718128013766 3.3468171774055944 6.027342225823326 -1.6706231300055745 -2.9221173639534963 1.623379109416946
Ni 7.302005476625937 0.7734933474099919 3.5930003906025902 -2.1996880263644374 0.5820913279572234 0.5418558774759442
Ni 7.137744338787251 8.173574008156484 5.456928151501177 0.1722168606183034 0.44746965198387456 -0.08051820926072585
Ni 6.748758930410079 9.307947270947071 12.129809449925517 0.07585062858172743 -1.3751067032949609 -2.6762268278001264
Ni 0.8680194662494518 3.226040503798665 12.415488636182207 0.7769410954836942 0.3291467131705493 -1.3035637009496517
Ni 6.21237885881776 7.412759500123978 0.5730786781290824 1.118231900215945 -0.0038731098021610715 -0.581332852524644
Ni 8.793809629027372 1.1786056859856933 1.9202098029932608 0.929946159060237 -0.5471826890054963 -1.2089507041587566
P 6.582637244650059 0.36823141704162055 9.60965521778835 -0.5208556210751933 0.10845350221841323 -0.2244889305491424
P 8.013501440512558 2.8380928884831396 12.314678727101903 -0.4523385500404017 -1.1982456590364268 -0.08933657888330422
P 6.867029941489786 6.033644715038252 11.981270409496448 -0.4833393692972901 0.15635032589969203 0.33323708118983897
P 5.263592913808375 6.78712922522993 8.450313214903733 -0.1344257579124588 0.6553554267586972 -0.46010456713906567
P 0.6759379947689647 8.879348085973477 10.765139622319488 0.7851709395926542 0.019287901695334526 -0.2636987679793845
P 4.487650935742116 7.237970839876142 4.9421257610528 -0.2634750820043527 1.431869719117618 -0.12844177241488203
P 1.9681979151330882 6.763905099417914 2.255424441495207 1.8340856414700153 -0.217468019146619 2.029096360054383
P 5.330338901800314 0.6520313564028927 2.391087368370209 -0.18911517903553882 -0.2985001919292859 -0.1379985628653817
Ni 3.2017131385157076 4.549899820466914 11.885004351118493 0.213413132350955 0.16879189409715445 1.949470323590623
Ni 9.153877073984027 1.0222822626455579 12.844096235694138 -0.9098977250497943 -0.4802944118233793 1.1692685550777864
Ni 2.5078222587289365 7.661278215184034 5.620601206604929 -1.2603681393987842 0.26814574800714464 0.9965104772440322
Ni 2.516863212698429 8.9205699743411 7.662639500497332 0.17213895619251643 0.4419158120451809 0.3182375224572132
Ni 0.2744551270629189 5.414680624405061 2.1245923945747416 -0.1981065839008717 -0.8108287493700744 1.1323953362005208
Ni 0.6693512811479644 6.691184789206218 10.547100235015941 0.9440687145045484 1.5863264275390228 0.17341293780893363
Ni 1.6613757988799052 1.2937820168545404 11.57027350377659 0.551140902322296 -0.5056285197127938 -0.7829608193152129
Ni 4.741227723291826 4.914623309970424 1.9207978857281947 -0.14527581325308528 0.6856175680773483 1.618506354705677
Ni 0.9342007452240618 8.622452230523903 1.5247854028903494 0.34862616205139957 2.371849351154457 1.4609627798288323
Ni 6.691577467661976 2.774806210696694 7.472801905906894 -1.0023821055334607 -0.6522827013706445 -2.8401099717417537
Ni 1.6316724785478711 1.7855463362830355 0.5149286085234422 0.8355056832914641 -0.8712144495469835 0.843667136056334
Ni 7.173122797753703 5.310742376960546 2.0251652746279314 -0.2564996791277841 -0.6204380460562218 1.3661662062722213
Ni 2.7953563832147332 6.890992676778109 11.773986672085874 0.10073736452107812 0.04687172485087412 0.24037320587956665
Ni 8.109090596028679 7.646188143098449 10.781683539640085 -2.600081807906432 1.2573787177531572 0.08969781887746488
Ni 8.236524104409423 7.412226579362592 2.1359772649456317 0.04791919227878198 0.7385126163041669 -0.2593366343559469
Ni 1.932043448742161 0.7220300309366999 4.78902978063952 0.05563532997611709 -1.1715331827422468 0.5142450577372112
Ni 5.600987852688486 2.0625529383596817 13.135864742861198 1.3076877504203543 1.7830975804579228 0.2333612933381078
Ni 4.371371365402328 1.1898063714618585 8.902319775635362 -0.04537894235543153 0.8872190525053559 -0.30383600231990254
Ni 1.7515703003728649 1.6807759844917938 9.185590534030064 0.5458205185506472 -0.19219716039497223 0.18509037414686186
Ni 3.159014031195469 8.3330856065779 3.6118162332743617 -0.9538178234715123 -0.371570686662715 -3.43952950656478
Ni 7.8295689819377685 2.9609544977004076 9.172345115737842 1.671393946733328 0.5294618746869656 2.46798264124462
Ni 3.4328231087037944 2.346926936225325 12.613864182339285 -0.7753225860436648 0.2620658603616519 0.3431473983250155
Ni 4.692788030927876 0.12868166490083444 4.85773635606414 0.2896136880729335 0.1552396093340165 -1.5003474522740419
Ni 4.032330916802846 7.534199987310882 1.262095670320925 -1.5430038534919879 -0.17756861184852 0.6969234800084707
P 9.231590010276086 8.990990310740496 6.140809470460918 0.292158051761342 -0.1999058418931396 -0.20069697033586728
P 3.655976665419246 3.1831450572505458 10.375352962902827 0.7884897195532421 -1.3093291426785192 -1.1837832037541935
P 0.6139873586808027 3.4882001204528144 9.150874953694883 -1.9577947842959185 -1.589663719442372 -0.18860944304371388
P 8.3943527951633 8.50071255975166 0.034902570076020274 0.8702708546867914 -1.9925830956196973 0.5241913703166456
P 1.9651780308185627 6.616725474404732 8.582663618519799 -0.8685937240946847 1.6081391525387403 1.2748773887585527
P 7.094072884814658 4.978826237486973 7.70540124938075 -0.42603462203855014 -0.6103994308732972 0.6235534517567519
P 4.654025057652266 3.9247650683860846 0.13099753284110666 -0.6496264946947199 -2.605702496527319 -0.40301296433239625
P 1.020066434216634 5.301467685815007 12.276295343000193 0.2685131586488924 1.7066946789171509 1.1599315939475765
Ni 7.037779623335533 0.672098160440867 0.3430775571041624 -0.46781427707849754 1.1033524120009515 5.134874564797066
Ni 4.534080488392063 5.88077125241657 13.346651733066363 0.8379266340281311 1.6209249914494988 -1.1798085353771615
Ni 9.273260674021719 3.5032060471550226 0.7031468719582268 -1.0307251754525282 0.5481149710117785 -0.054635427956692996
Ni 5.584934783437588 4.399550719346537 10.965170962631682 -0.4261991726408724 -1.0201445717232043 1.0066722482683823
Ni 8.431301967952786 1.022656242127233 10.590765144347607 -0.06007665357692234 0.3811894406994016 -0.6947298147912615
Ni 7.750958494889691 0.6173793525795945 7.662693727522174 -0.036504265573621 -0.09244144306087304 -0.11917654506287215
Ni 7.352539454087267 7.3881703492038495 7.963028234717 -0.4038652850303625 0.09836063675878545 -0.47071293878253123
Ni 4.0262444007385865 0.49478139889690764 0.5574304416670978 0.48473959207892653 -0.07439384153054285 -0.020758058482957798
Ni 3.198524963434429 6.01128074203409 7.1322917179444305 1.8802755097625166 -0.9925100978353875 -0.7331770630238663
Ni 5.301664025042886 8.13020173776923 10.501053076386007 0.4528286023029427 -1.1999171332015788 -0.8117561462803504
Ni 1.11897465763262 2.8332031067602395 2.721635677889556 0.35132659170169817 -1.014707459868033 -0.48082637306744935
Ni 2.9914992718662106 9.175698776739761 10.290252996898985 -0.788419528436939 -1.2306449013027385 -0.40181740136239835
Ni 5.844018418854962 7.946596511240907 3.096027471943067 -0.1929121841841258 -0.25492693532402544 0.06892381955490712
Ni 5.993329726913691 2.6310204494797116 1.8514340413645307 1.5460832637482598 0.32783442211702896 -0.0660657812808217
Ni 8.315592716322552 6.1090296290568835 -0.02218072305814216 -0.32421456597625453 0.2523704874507589 -0.8798587554855427
Ni 9.271344029178135 8.9825290249676 3.6852985266799716 0.7915912412967012 -0.40412419511870407 1.7736071244689842
Ni 2.5371422500922542 2.904483595967488 5.1299784595442475 -0.6831256548934299 0.11455755823362206 0.32846614216375686
Ni 3.924363040443284 5.8308917390481705 9.76261469569082 -0.14271936537981875 0.05610815584747757 -0.27626632023175
Ni 9.196305046180052 1.9018352561098657 4.86738409174265 -0.9241640051608213 0.3090689685840677 -0.6206609607003053
Ni 6.977409985506151 4.14185080801136 13.686109168787912 -1.2137648377179482 -0.2058142369577746 -0.7658465282324294
Ni 0.8388032541922994 1.4773965928699062 6.953838993724883 0.8785148398631386 -1.2962237156448129 0.39257017173251746
Ni 7.925251632324308 5.057296482229423 5.766690681429029 -1.128921261608991 1.9405694215565674 -1.8064483393687212
Ni 9.4192342152065 8.506210058132282 8.544362509904058 1.223365594032506 -0.1954876582207859 0.18852845329413337
Ni 9.398571848843957 5.537991009000339 8.570074534217916 -1.4464704997499285 -0.02277560313361884 -1.4021523945588432
P 3.9623126083462514 8.692507936928665 12.19203028618919 0.7300778552732522 0.30082986850372706 0.9658762972979431
P 7.4285507837377045 6.534524784332575 3.98066565140945 0.2360360119567935 -0.8039122247558992 0.12695258946386523
P 3.273077773106333 1.8529093904197385 6.891988397148069 0.2107263295474113 -1.20112375191517 1.094911994543082
P 0.7169588691651875 5.322176799612758 6.234120155984935 1.4676314500982595 -0.20712164291528845 0.6929747797733679
P 6.438636445231114 1.4899436044801013 5.543971875861025 0.752862971488568 0.6311166088159905 -0.1024412345860623
P 4.113624706631942 3.9049254568832277 4.247926348193647 0.9200728658105832 1.4089748167973153 -2.305108912404114
P 2.2010842878591306 0.9520395664999577 2.6644373860647783 -0.4753252407435621 -0.8923255204939857 -0.6767742587541055
P 8.253624316209011 3.099214712075642 2.506757352154867 -1.6414202831893732 1.489380925960209 1.6744347904421808
