# total energy = -340858.2652580113 ev
CRYSTAL
PRIMVEC
9.36123348989679 0.00000000000000 0.00000000000000

0.00000000000000 9.36123348989679 0.00000000000000

0.00000000000000 0.00000000000000 13.70111146044319

PRIMCOORD
 96 1
Ni 0.09859812467980417 5.225318669715535 7.166037111422122 0.7615476437467594 -0.490617133905626 1.9147861419448764
Ni 3.634648565114867 3.9483247667906993 4.266648820744557 -2.3300606972534452 -2.5871872113319507 0.20316111560564365
Ni 6.73359119979219 -0.01925605666847285 6.870887726349388 -0.3542892738744479 1.2908472818242478 -0.357046782014927
Ni 1.9606728463709115 1.1947273856654583 12.876085116247944 3.427757453630516 0.3767913116317059 -0.6096250146011178
Ni 0.4483637525434332 0.5137192020480239 8.255289610507601 -2.0245609340778743 -1.3548294411031636 -0.08405913253444879
Ni 3.3605891022922068 8.709082878300288 13.355336257696397 0.366454191371756 -1.3781814855655425 1.5977688650480095
Ni 0.30853033179218714 2.468613359171756 7.045467236325899 -0.6834028198142166 1.623842679316926 -1.0979644082161608
Ni 2.270670083403716 0.37532085834455464 9.60558852216059 -1.4765110119760765 0.6136107387217432 -0.8832757515868918
Ni 3.4752454863833377 3.620101208740143 13.048595793689826 0.27090222770635924 -2.736997679230596 1.2203152372419563
Ni 7.0354067190183605 0.9117260729012695 4.523873977924575 -3.297840125111372 -0.7342438137254839 0.48093590206212
Ni 3.2542080483395934 7.12563028448785 9.334279389648673 0.2780028433068825 0.5439950353061341 0.8378677557657376
Ni 7.1012255495657755 5.837487152835669 4.270102179667746 -1.0043464283486832 3.654161084703868 -1.394114097635399
Ni 6.048264679304961 7.9447475497032345 -0.08330935863656165 -2.904224799943792 4.858594103497929 2.902139892390305
Ni 0.881931139909332 5.755716780935274 12.237845598698206 1.688366055811292 -0.4646998998192319 -0.717170660293281
Ni 5.195802701472612 1.2703006211951529 3.0010363051301394 -0.27598632709748594 0.5807985772877288 0.26356455639436543
Ni 1.4867323325102195 7.923806471060855 6.355657621264762 0.5992084472534842 1.145614663104272 2.135558028653748
Ni 2.037921742641324 2.2976772411521575 5.2439222484307795 -0.052000818547323344 -0.07116813550439356 -2.140268803865856
Ni 8.227859325019045 4.402606690955819 5.3061529182970935 -0.04091602148807147 -2.4019747097849278 1.1948109223232648
Ni 6.744937014416491 8.943001373211226 2.294292219231244 0.9080102782190942 1.262898619130122 -1.0238274198914303
Ni 5.666775704412591 8.275713949077982 4.207542930516521 0.5296179406488556 0.4981275833500582 0.9020808001085368
Ni 4.615331353928292 6.883146261209556 11.644998700878864 -1.8176982012509275 -0.21505272483690707 1.4349126197089996
Ni 9.123139583454991 5.2585416863010535 0.33649795206575517 -1.6082936758387336 -1.261789702336659 1.3426989763882167
Ni 9.278704556579289 1.081016486126353 -0.3883151861333282 -0.7020080936202298 -0.5888800687442826 2.237126887937186
Ni 9.152000265374728 7.722146785717032 12.3153669068544 0.18412981000580547 1.1849312013157078 1.1974547877040151
P 7.705689737771882 9.287962816202585 12.927477350328765 -3.4181669817286036 -1.1346849035656459 -0.9005826182964554
P 0.654241609561934 3.1127972597961073 13.227408453314117 -0.09719129904103262 1.2857438991594115 -0.7138989315205447
P 7.654380818666437 8.28255701053868 5.072151108410778 -0.28491962503137386 -1.2014140294620794 2.2742744435217603
P 1.282292360909452 6.698935914528851 2.822647709369281 0.002416579861292612 1.3300167529348577 1.3893665556480845
P 5.925744859335602 2.702344629418927 0.31985929619674996 -1.4981414457616586 0.559304926190327 0.3105347544963168
P 2.4001733833315977 6.015631420410311 7.693119473846542 -1.9603124085114496 0.4539958831381665 -0.6850478116168073
P 3.5836766504042035 1.4841954383161717 11.281070463324552 -0.05446393537583523 0.8206822451253865 0.06666484831740131
P 3.2252537540879715 5.577422733629619 12.817430437459587 -0.5295276949278944 2.2648886314314867 -0.9570185897969969
Ni 5.513635290684079 7.697217821736408 8.33835932157454 0.8589531156811272 0.3082349027185466 2.8949030083222334
Ni 9.307406097534825 1.7030329865606493 10.873106048728841 0.18647414186826594 0.06398781570587045 -0.945979558374016
Ni 1.9411172302404112 3.0662906533162957 11.313555814734826 -0.6958166200975372 0.8765644010049871 0.8485586598206806
Ni 5.102190369588932 5.037551054423251 5.741012155842986 -0.21466705936271416 -1.0443548504208207 -0.6183526242821028
Ni 8.617904467045584 8.114307566444142 3.32205358587229 0.5456598246030666 -1.5069847550849014 -1.0171944879559447
Ni 1.857455889235967 6.447240437793203 0.7871055922044401 -2.76208007612052 2.1069143967751263 -1.3728978685691
Ni 0.3280007607006736 6.437214557048461 5.267570595711234 -1.4953677396712632 -0.45014257083034737 -2.724774654801843
Ni 3.9012190413868324 7.247139091272866 3.480644109563069 -3.2029085686387933 2.916825262316622 -0.5543583808183292
Ni 6.099929325271564 8.6643268224267 10.730353795469462 1.2583534229616007 -1.3204499351820291 0.748230357812563
Ni 1.7638716410518525 2.7307091659796816 1.3116126793787393 0.8508739382174185 -0.44615967492319936 0.9984197784516031
Ni 4.483871556264041 2.031256544611206 7.608432141684652 1.4665302466142807 0.22925344181732132 1.5877929847822205
Ni 8.55392043820309 2.8846546457623923 1.4451244593578805 0.4649212718014187 1.3637725092290645 -1.0963086177802928
Ni 4.648984987240475 0.40342140812939753 9.445176302491355 -0.03719306411052949 1.3228806561107087 -1.167770373265705
Ni 8.185115934280958 7.557052077206976 7.286059354376825 1.130806394446846 -1.9062536789938334 -1.1498898934408583
Ni 2.611690447222772 2.7937196265705864 9.196405275003752 0.3652421733415258 0.24392235668340573 -0.9545271908337108
Ni 4.081310445464655 1.2493501813195853 0.8816662170101012 -1.0742650077166918 2.180168982494903 -0.9120317406736616
Ni 7.7753279514601505 4.366668916745675 9.213394040994002 0.985062897528723 0.34450699767670345 1.3945406436498564
Ni 2.442738910639107 1.359372754982474 7.288661777203191 0.13059147176803315 -1.725785119889699 0.30611657082396315
Ni 0.5134056007362137 4.741913949101403 2.829621828094615 -0.7770336551975005 -0.617217482236395 0.22640980172093908
Ni 2.6371623627283207 4.223760330892049 6.339970066687695 0.16290381074749363 -1.7951419132169664 3.2774682463232394
Ni 8.075636312142993 7.4862530706033485 0.997146389621808 1.3316157219908615 -0.8295625783341518 -0.5732691016799031
Ni 5.645872070702965 1.044582566557225 12.640617337244331 -0.994084898521675 -0.9672682925494631 -0.7461642193121536
Ni 6.736736574143482 6.678687567142411 12.373623733232252 3.545878303735364 -5.125713467123089 -3.692740744749279
Ni 7.495071352266791 2.041104561925369 8.19799137440824 0.7556420768956019 -1.083902530806456 0.48960411926007946
P 7.250705721117634 2.4916513540483294 6.039545626713315 -0.027330055273520674 -0.2542270810435235 0.41023673577434516
P 0.36661116698609714 3.1361722590674623 9.125268327882026 0.006327227769608458 0.13689298850602874 0.6618639173011762
P 6.677498690527489 5.89420686472399 6.83101729807681 1.7137911807526165 -0.5260081118104103 0.8440707992526559
P 7.403359350720351 1.6643991771922548 2.552626682544083 -0.1548950815104042 -0.9993798283720271 0.7701850077067832
P 3.034752658704684 2.048996081503163 3.198647257119992 -0.17735263918297198 -0.2022090361050195 -0.4525146706069498
P 4.60903124399252 5.49258187724344 3.5830457032873073 2.5174236694845677 -0.5709142282944814 -1.0494911432061216
P 7.517528950685686 8.674333980705066 8.906393334704795 -0.013310343955660947 1.131872116707199 1.8170901353532833
P 4.73189742958985 8.817167676693183 1.5801902040462907 -0.4350406821919024 -1.8670826652213262 0.5386800508511239
Ni 5.272227809222447 4.448504817278387 11.786873806588494 2.0964991149790735 -0.4445391086006409 0.29746069492117805
Ni 1.2010930242335487 5.214431555517463 10.105405356800567 -0.24112679621613956 -0.8420188018196337 -1.9053211398772347
Ni 5.789192550816878 6.79703227710976 1.9704665685325822 -0.011474833408818948 -1.041412222852729 0.5609247211819373
Ni 4.266475637930572 3.4526006633006756 1.988949387339696 0.3983628671548946 -0.9141449303619225 -1.0761560540918176
Ni 5.873013032785526 6.072266881199937 10.044791371905886 1.0963430705626538 -0.9766628463904857 -1.2774351221834
Ni 7.576935336499068 2.3735500361438797 12.607447679687986 0.2238577247230467 1.8075875951794869 -0.09817783132401801
Ni -0.3965549435857297 1.619905235847942 4.532669792628366 3.4291299084980102 1.9605520353260817 0.0865693005508122
Ni 0.43210797111183225 0.6107727232517474 2.34327393576606 -0.4644726142997742 0.8287909902754501 -1.3536840146448104
Ni 6.290804869982386 4.873373746765655 0.3278294501333264 -0.819193576395002 -0.49491653261192825 -0.5076900302275127
Ni 1.3903771593023482 8.558441913833072 4.000628784984068 -0.11300435481388925 -0.2932325157724434 2.4779068423368678
Ni 3.52553403107125 0.36880637616876943 4.616643798821301 0.0002650807359285757 -0.5252002711971343 0.5046916097208212
Ni 5.110681008090782 7.280680389786789 6.296236257478277 -1.2760107310320477 -0.7169821984315587 -3.084823456867887
Ni 8.187016264618196 6.844194169912757 10.421681172932812 0.31377537292080154 -0.29628904321058 -1.3135784048731765
Ni 3.4268385495662868 8.73487307573424 11.132316723468112 0.43327896230578933 -1.1234550962880974 1.2393110616181688
Ni 2.7112939683470065 6.144797715943412 5.442602253250744 1.0470000013531515 2.0456354953599867 -1.4002099261204917
Ni 6.042573049526434 3.9983605581825263 3.4289906970762924 1.3484862724939548 -1.6926711109445494 -0.38260200477621203
Ni 0.8628641801512642 7.21505814513633 8.764710134275527 -0.5600734289252355 0.5941600861962993 0.03873855422077844
Ni 2.5244718376067476 8.608168784529681 2.1857655706318564 0.9681820626129842 0.7832127874250189 -2.8957105918251935
Ni 3.6846375503407516 4.8981529310152645 10.235743678728852 -0.9805043316237629 -0.6728515266609316 1.1499302597604906
Ni 6.1720576269879395 3.81622840526964 7.635656480043064 -0.7312507925354309 0.8186184206178225 -1.050973898399235
Ni 3.6450582564203318 5.484643551499704 1.2780929117011501 2.4019945072792694 -0.5666719080783595 0.5645420062195503
Ni 5.024707442488811 2.332847394240856 5.483951756367084 0.6700094292264461 0.06679674590957528 -1.0620191004698032
Ni 6.795927651593532 1.5773397085404328 10.513574782403106 -0.29115300753559537 0.3067495764222717 -0.686498685130721
Ni 4.2633396248124695 5.261621532020027 8.140707180158659 1.523097087265732 -0.12842403180306913 -1.1709868233204737
P 4.567130364241386 -0.17298529196453233 6.868750556812484 -1.5803892361189813 2.6400763460214987 0.5205478600267874
P 0.9549300363122253 4.229873216164053 5.003275835227361 0.22883409489171558 -0.07218372125310149 -0.24220074600660874
P 5.638776255946182 3.3073049629840168 9.72039000536614 -0.04499404821218703 0.49300594585277674 -0.3699704320551305
P 7.544133575407028 5.2620708712130675 1.9338435520530493 1.2632876270384246 0.32676587164319854 1.6962387736911497
P 1.344085861185869 8.020639067161333 10.792186612925269 0.20050105227497728 -0.6435250097826724 -1.0385220457891275
P 1.126203158726605 8.68986426656457 0.3254985030694228 0.8369285317809199 0.09586692380265426 0.46005391640678833
P 0.8896522850430979 0.5340518005331591 5.880667713163653 0.36184163230040906 -0.15189460412118355 0.41110448309127906
P 7.897033344142122 4.497276842189784 11.626502776345287 -0.5452808439970932 1.1150930974766473 -0.2194889062313897
