# total energy = -340888.37137229356 ev
CRYSTAL
PRIMVEC
9.11619586349097 0.00000000000000 0.00000000000000
0.00000000000000 9.11619586349097 0.00000000000000
0.00000000000000 0.00000000000000 13.34247412541805
PRIMCOORD
 96 1
Ni 6.320714195222249 2.1074912069887857 11.397901827671042 0.14212081256387135 -1.472340939758787 1.0239737156613073
Ni 4.623479137260053 0.299098730020284 5.8088060843053215 -0.1798890324515805 -0.30773045227830226 0.9926193697197421
Ni 2.542379316432901 1.3535180203669548 4.890950138385978 0.1441923503809194 1.7109244007277826 0.3776706289128657
Ni 3.558269917842257 4.371179308793953 4.763689871533071 0.35921807863463295 -0.4248822536016619 -0.19319217731838986
Ni 5.183359404100422 4.718743380917763 2.5126413748792347 -0.784018828266082 0.06430380428439249 0.5509203016710577
Ni 7.433491723099943 5.818967907501995 2.8427606951692272 -1.0868112198128186 0.5066137664441984 -0.7276265655192824
Ni 4.874776184213968 4.695524430812864 11.55915912264574 0.9064928131333032 0.24907818985273233 -0.5843924652865742
Ni 5.702763762630721 7.960808939380948 12.638058132943994 -0.6811073389118205 0.5036425996310165 -0.4992825228901079
Ni 1.817404747904388 6.6169085053354175 0.3270599250582672 0.4718352253124326 0.18517984853687464 0.5789941770891384
Ni 2.782208189365629 1.9392973988084288 0.3410933965115377 0.03764249294312227 -0.9567517092888554 0.3667598955376329
Ni 0.5213050853056705 -0.06803690236273485 4.93084443341898 0.5911876338315366 0.5991868499869294 0.06418321954612817
Ni 8.782169043621705 2.190266262721991 1.2535470849388655 0.44376006434277127 2.1542818303154965 -0.6847446785540917
Ni 6.928828252798783 0.5890210975845058 4.828628179023149 1.0234661798972695 0.8049049276864718 -0.058366355754034975
Ni 0.3003567650082996 7.086392576949963 2.4248742904544542 1.767544463214672 1.1176032654930108 0.8441846991227009
Ni 7.800974682534 3.623550994285592 3.9200187902657215 0.1676408112118468 -0.027268091687333688 0.591454257229362
Ni 7.717315355830958 3.6423394733457397 12.646903577501035 0.760689152401206 0.2994604989600262 0.24368710074414807
Ni 8.02117638641457 8.662154329004123 6.970015224362949 -1.06233277505548 2.051498639008983 0.14506266880101468
Ni 6.7337781324829615 0.906691341210482 0.4330995118741973 0.17752567442572653 0.2667061873471407 -0.5747788534562102
Ni 2.026749062866649 6.272170453836861 9.222491317242316 -1.8203114705040584 1.1289485153025007 0.16714484541203473
Ni 0.14352811783924085 4.876435331806857 1.3690975985881055 -0.40713778513404725 -0.5885404260166768 0.22042427356146554
Ni 6.487713781783547 1.595279526759533 7.148136569513951 0.6129931597424024 0.6577470669193254 0.25710774502542816
Ni 3.437617069535101 4.33238989666347 0.1960291997195386 -0.4222041925488664 1.3508293188048348 0.49530091253454045
Ni 5.9663494412067015 5.409003476733495 4.860089081538662 -0.08227967203652281 0.2677757662622356 -0.2125315010769501
Ni 5.247519188489221 2.861592020348531 9.282439419279932 0.11094824361580892 -0.19918284768418598 -0.6918882315774084
P 0.14294103484483353 5.640646006048556 12.577202969447626 -0.8606523577604209 -0.12884157895646198 -0.5365696893763404
P 3.886434725803042 6.269152993104736 12.636830181401344 0.6584533489577306 1.8822223490762424 0.5698929861188184
P 2.2177698247425948 8.213391369909575 1.699270704431933 0.7659827966999776 0.6535687671719196 1.3652732621443067
P 6.213216017115865 7.856528778309126 5.898560499363343 1.1829715064861757 -0.6706000116225935 -0.30150838262799046
P 4.771371177916419 1.216920946016035 12.842451442094724 0.23915218898827204 -1.546719611780678 -0.4859346408282922
P 4.19647653697995 6.160223572294597 8.304556060421554 -0.3926658167701173 1.0713236657001808 -0.29909771630396875
P 5.080045559758525 1.326424687146791 3.9419140687745338 -1.4488168884949175 -0.04801895108143989 -0.8659105208355669
P 0.16947828013551208 5.465141009024803 3.888877866214551 0.46789706660029096 1.056060311783207 -0.6837843715233515
Ni 1.43766050543496 1.0859941453067512 2.65195051741084 1.3537246380747587 0.12004866325518036 -0.37493883180399945
Ni 2.3051576754318575 6.39857562154574 4.954687842920103 -2.7988005714700055 0.46016678783556875 -1.130252578825905
Ni 6.106711504326103 5.7009131749309585 9.319504047209454 -0.12029960292372184 -0.7409708480366723 0.17498105362700186
Ni 8.64612805720027 2.512578473129834 10.207566442782184 0.7973754520786461 -1.6169662639120668 1.5214986324303603
Ni 2.6269593788880417 5.14722280487945 7.1305249913012885 -2.286221331470992 -0.0075443880061612 -0.9231034251067909
Ni 0.42651944191514146 0.11066332120666605 9.512009837342992 -0.2125816375885952 0.43470695300156753 -0.6717703777816108
Ni 1.7044186200676756 1.1840935257852783 11.51380787294733 -1.0952729774269265 0.8834307891075173 -0.08873802606735685
Ni 4.23560324834635 7.159367722450439 1.7045280144144597 -0.16092277576172287 -0.2798108430498987 -0.6795543926024039
Ni 5.739875794777183 7.865335023225237 8.16826255538296 -0.6893014446868386 0.949093164302333 -0.12056648343186331
Ni 5.182320157805974 2.8522935008718937 5.57064274030238 1.2096377029234522 -0.6851953929382651 -2.020951876570378
Ni 0.42221659760830527 7.150789382423462 6.5736630968126 2.13062279613566 -0.7473690382535323 0.5761492514411756
Ni 4.771061227267197 4.4620495461891725 7.112899738795277 2.262551498657878 0.15075869074452747 0.7241293509993013
Ni 8.201731755781516 7.205450091033187 8.79942782506599 -0.30902114606526776 0.7501041777965082 1.724195663915392
Ni 4.86229611248503 0.2831782060849899 10.507998872213674 -0.6953335098135315 0.0414037597577674 -0.06592308505537034
Ni 8.130607197980803 7.474414324992713 4.59510771342163 -1.68077127418317 -1.4688210995309865 -0.2426398904265563
Ni 7.009005192795869 6.033900450345804 6.969681571605257 0.3766087633072546 -0.27423849116844384 0.1543942306145857
Ni 2.5909777549916804 5.452551542949081 2.6071991133806303 -0.8623336021175858 -0.357950524776119 -0.4906883534631936
Ni 2.10802906252714 5.3956755988169816 11.66536462422096 0.34861767741096733 -0.5472395103853608 -2.0442440143290987
Ni 1.3537094604738267 3.5949717211882795 3.90351391819469 -0.61527192847425 -0.4805862320321852 -0.9265011379344301
Ni 3.774369333718428 2.6412900383167424 2.611109049658601 -0.6811225084204722 0.05187586293368485 0.4439672952575709
Ni 1.1707109506953723 3.32039191076051 8.069114812414421 -0.29180966728298774 0.44743802741499067 0.03971865874586063
Ni 3.5127892181668203 2.385124942930941 7.086587663535062 0.2161546996518342 0.01601694425354661 -0.2037964351967974
Ni 4.139764684368025 6.870894829981105 6.110319694530862 1.9530968645996167 0.8112650655765448 0.9333240743935345
Ni 1.00264476925293 7.717625306480179 11.296778605123496 -0.8191640087086473 -0.8763918799828648 0.9705217664897544
P 0.15773662024736573 5.555920084464369 8.14309820914442 1.148829570497144 -0.6610067115072036 -0.7670603460348725
P 8.660586343366887 1.6944363859236382 8.007538557848836 -0.5356376644803743 -1.6483278089424835 1.630808569111798
P 1.9779044870276055 3.2262489591573367 10.713499799125593 -0.7966424305673634 0.8699121857957922 -0.9788354285617723
P 4.217762853624997 6.350979964499147 3.800910225487333 0.11818744167672549 -0.5320188367808645 -0.0036406820763808267
P 6.7944828787525005 3.908295362768706 10.522541938999048 0.8409538508902291 1.4056436955415532 -0.5272898067363112
P 6.396551826130237 7.636272377255165 10.416162318088531 -0.3445579055192969 0.13017803837969838 -0.5758893129115694
P 2.4299036955478472 8.455636034667116 5.912196504689966 -0.18146923245450683 -0.2802895824585302 -0.36411140217119226
P 6.99098247416321 4.285678510586713 1.3233215341763525 1.066567124851802 -1.106651137356881 0.6285730164585304
Ni 5.284148062270722 3.1312035041931954 0.5188820005244056 0.5600988828465321 -0.37939712468566916 -1.352187375494626
Ni 1.4280702677002317 0.7858078531555234 7.265204018105263 -0.714399525306047 0.4906677846379034 -0.5507868614169869
Ni 7.039353007832856 0.6631986692800474 9.394489313832084 -0.3897710117208255 0.24650220159543995 -1.9693801751406728
Ni 2.7919807510116637 1.7859538732039961 9.141542235480845 -0.08257843422386424 -1.0686692587964692 2.1082930222902077
Ni 6.228367134145445 2.3958364727202053 2.432119842689779 1.2202908117619242 -0.7336126078993882 0.9822670799511406
Ni 4.057709808084481 7.040291975976085 10.35892354937293 0.17076778687660266 0.11721479335081104 0.7370584003561435
Ni 8.185933388866797 7.2584425358544555 0.4845376453515775 -0.4968086074283186 0.3422354280337074 -1.0412936949969938
Ni 7.8344220040631996 3.7587259421283203 8.435725351932875 -1.4562250080335306 0.6041691336928691 -1.6902218780731084
Ni 3.1677503322146077 8.651105499978943 12.470396710584653 0.8196779722305884 -0.820723125665651 0.28662683753046764
Ni -0.0014640610077921584 4.838849257490998 10.176705385934866 0.8279985762811417 0.5838067679864332 1.2344655606004094
Ni 8.732558707355174 2.324246988945661 5.9520105772019924 0.22236494222760414 0.28269279258338414 -0.36642333813382055
Ni 3.9272297009578985 2.5720251844113573 11.534127872862454 -0.9501827978220861 0.42560756180346054 -1.138180318313414
Ni 1.2544432069629374 3.4512002009274445 12.878996446877023 -2.143200375690354 0.2295403769301208 -1.5557094739841144
Ni 3.0091923427468057 8.228104909552018 8.035825201068501 1.1221541180884866 0.0076402901540771635 0.5976436738695257
Ni 5.645988096649839 8.110196036110027 3.5143672316191794 0.39725934967807064 -0.38215309016425153 1.0026952658985055
Ni 3.2622123506625673 8.635270668281962 3.6980804511299556 -0.26477940263807304 -0.9675264313068561 -0.5890502757735597
Ni 3.4402516500534817 4.4879304253991466 9.419493215028675 0.21306937585829114 -1.783344663471722 0.937507773457579
Ni 7.239034155495867 5.929501778731634 11.509044660764445 0.4882861717796042 0.24316028170640056 0.834511437698995
Ni 0.9585314989122933 0.049002286022323725 0.30140877397653887 -0.1671170774978928 -0.4307533676704582 -0.1135154901223529
Ni 4.236469286925057 0.4675031223182 1.4350095157645617 0.6564208919087341 -0.47615365018212835 1.2994980155207103
Ni 5.984636529510755 5.960287171155756 0.4984498714038292 -0.15737311073725155 -0.2134624975316517 -0.6363027810026204
Ni 7.746241044359753 9.039938589427006 11.358648401186285 0.6486808429519989 -1.1544206914316764 1.1438758260362945
Ni -0.00042846119157055693 4.890793339822255 5.914532073993804 0.39763858739436037 -1.120241474446806 0.8643799431236533
Ni 8.235179077310715 0.3350338613192622 2.3168008804078988 -1.3411252041431936 -3.108008379624783 0.18836390269181105
P 8.832390164991114 1.6205496208666306 3.8028583564796445 -0.2120329641739768 1.3649752712879137 0.5525796916513515
P 1.9239639578675418 3.572928760311309 1.5549987050345613 0.10908907891988309 -0.906811887035619 1.6634446099792641
P 4.721706144476496 0.9117745318577105 8.252560015775575 0.5180513188571787 -0.22674918733822885 0.43910405362799854
P 8.71497356610965 1.2578526641043712 12.577949585864427 -0.15058514128114067 2.479712528087039 0.14843827014146696
P 6.434119668054966 8.167956251211965 1.5581210020156873 0.17124009852733088 -0.9211013070750975 -1.0054453178398166
P 1.9547675826827955 3.245812314840537 5.951597613542883 -0.4744937459812022 0.35001764308228756 0.2516950586502891
P 7.0318139141003275 3.8852587365751146 6.289695428191653 -0.8823416698083966 -0.03372516016658708 -0.7208311398640037
P 2.483224323409468 8.75611495669599 10.194143756431789 0.8900462375415059 -0.46273634833495786 -0.31993136521986837
