# total energy = -340885.6502541795 ev
CRYSTAL
PRIMVEC
9.10113019062850 0.00000000000000 0.00000000000000
0.00000000000000 9.10113019062850 0.00000000000000
0.00000000000000 0.00000000000000 13.32042399032740
PRIMCOORD
 96 1
Ni 6.816946512624257 1.7849955042368355 11.306495662718904 -2.0271533773953996 2.6341972615329023 0.1701923739891069
Ni 4.881582140341386 0.7626846960424082 5.899416102742819 -0.19248178151492656 -0.7155835183118191 -1.8480852981832172
Ni 2.947628443191497 2.1320579914700724 4.616925833699049 0.8399909727563275 -0.9203909112716342 -1.8041433453846285
Ni 3.7686413705872663 4.484554450010901 4.816744780890547 -0.9917899318399114 0.9854246517435159 0.18098097996417864
Ni 3.9001708997605697 2.6949992796990707 2.373193338024153 -0.45614712515321443 0.46496858009958636 -0.020962975404912283
Ni 5.0941208266674405 4.774589257352087 2.5499554827517956 -0.3929815482383232 -0.23183945737694264 0.43145296484064405
Ni 5.922441961365049 3.230764594075904 13.20810576446497 -0.7141105333107185 -0.6092470624364087 0.5502045065509557
Ni 5.812509413421211 7.982382599585103 12.202893248995277 -1.370068369540105 1.3581461641812222 1.2065852892503734
Ni 1.7497559293019456 7.169333160843267 0.2162119023497433 1.0791750434237997 -1.372287488678611 -0.9621615674505172
Ni 0.47243874248776935 0.12942898839464273 0.347206285085502 0.8427631361848259 0.7206087394405525 -0.0033036104519362465
Ni 8.513970495342331 0.4453474091435837 6.662449372060022 1.3967942155707234 -0.5961179812536185 -0.5475503567575603
Ni 8.558839065701061 2.4978506040173594 1.1853366175787774 -0.10991980235129456 1.0707158569128528 -0.8605729106727372
Ni 7.250997599348113 0.7479536072021157 4.605523028059605 -0.2566997109537321 0.8990199017950259 -0.13969806205499166
Ni 1.1232068442702752 7.79902213568706 2.5786877498151863 -0.28761671224756274 1.0325791979421315 -0.17211813025691003
Ni 7.913013787561928 4.038262343584713 3.7338877959885135 -0.8137958024181984 -0.30098953401004297 -0.04899571317241239
Ni 7.900781868989488 4.15907984287724 12.244839446546264 -0.8451964282166669 -0.04828814558242651 0.7197980706137991
Ni 8.509902290281408 7.332807655931203 9.010720175992827 0.3594476781469358 0.5046319601274794 0.6841939482569442
Ni 7.163071583478803 0.7801324721549281 0.20244280293884587 -2.047361476912158 -0.27526770376390663 0.15176064964648056
Ni 2.117951240140248 6.661772247996191 9.161228291326182 0.9002694579314109 -0.03497317364107525 -1.3327871165911434
Ni 0.29483838369723847 4.985007380413723 1.1695106628126923 -0.9405966967955478 0.40581623810914624 0.7468159939635396
Ni 6.81138572226134 2.2006441063226885 6.81384939812262 -1.012415835620379 0.134414187948233 -0.26317657692732743
Ni 3.792076780054555 4.549591124206335 0.23073730565451714 -0.71814433706046 -2.0860141562873493 0.5543555526048517
Ni 6.019314387916435 6.143044248773829 4.935829425051978 1.0116812714471994 -1.3682827383945917 0.27166301713178376
Ni 5.257995771470547 2.6427769963890504 9.421789089517928 1.011344199822755 0.8080139056290988 -0.8305601663607309
P 0.11369222470148205 6.079645777958632 12.321777668299124 4.223010974270154 -2.261931862796008 2.1622522501154826
P 3.9074791070624078 6.4333611911416115 12.78087961504578 -0.9272680980074417 2.073547391278906 -1.7409857388895371
P 2.4764447465155874 8.864345793855604 1.2814736728350349 1.2165187463140017 1.4601073738070725 -0.02146176941820175
P 7.176331929728838 7.985431478098324 5.760110568191322 -2.686505069797683 0.14182333592811058 0.5220756095252234
P 4.903379346428436 1.3257251865872097 12.588159549168644 1.4101775788561648 -0.31094510256085806 0.7671261662758014
P 4.192198854547711 6.458034354273969 7.95799430181831 0.08426687766988068 -1.3492447479265344 3.2238736009262348
P 4.887506975899912 1.0734327649007211 3.657761395021859 1.1233771918623106 1.3574303690611202 0.2160479988706408
P 0.2671846005258378 6.076560494925851 3.3815630354527584 -0.5227618369589707 -2.7707354378026734 -0.8163355381209166
Ni 0.8646364631855203 0.6279588500516637 4.39990939146701 0.45862798259353915 -0.9654878036102728 0.2201021143353564
Ni 2.091330435211386 6.5036128127641355 4.47771404078542 0.30478782471021054 0.32614546445038023 0.8793579045897243
Ni 6.505851690717128 5.763973087716726 9.272866391011446 -0.16968920910044322 -0.47390856290169353 1.1124484607649485
Ni 8.90898683596708 2.615491808978203 10.332279775429287 -0.5749336338665195 0.1112637179736987 -0.9161244226857964
Ni 2.3577660127472595 5.466793893411726 6.787194919013164 0.10579858109406941 -0.5293261204400497 1.0554532743268272
Ni 0.9540259407411769 0.1539974885332624 8.794796779460603 0.11474884830882173 0.2211012450238321 0.2831018550963447
Ni 1.5349328593734481 1.1944777924405032 11.330405241053473 0.44661321752085015 -0.523620071194208 -0.5228654524163705
Ni 4.448086222540833 6.944899297750708 1.6903619556384406 0.2114917469585261 2.172162310140343 -0.03190559045934505
Ni 6.266155232798688 7.722172194894133 7.984035364773165 -2.313988731392247 1.7011189846015864 -0.8597121053343387
Ni 5.5992426367039405 3.2462092114995893 4.478632344791341 0.6336193206331862 -0.9791771281719072 0.8894127177225651
Ni 0.9052930306310628 7.512027105729203 6.921145348737262 0.07011166921542118 -0.08865986453125377 0.8590163648188949
Ni 5.671742237409347 4.901313389943359 7.12512078194962 -1.3794531531891148 0.027665327125752356 0.6366773907332196
Ni 1.0145848590306288 7.53844768580048 11.039021646262558 -0.9012223087629834 0.7161915842094634 0.5265907237867576
Ni 5.130916694813557 0.420387560419685 10.391529041127539 -1.6655506005786735 -0.1998554482711784 -0.6698489923891818
Ni 8.933204942604927 7.515913288192322 4.883973007163544 0.4226474507338721 0.5860269155662036 -1.274846278410301
Ni 7.57933906239719 6.21097508227435 7.021967665661 2.16908958475229 -0.548535860599281 -1.3853587200402722
Ni 2.6060721395418365 5.644839297453888 2.164688272465439 -0.7419203564341352 -0.35781528474983537 0.755406306735712
Ni 2.466424402506467 5.403650254233455 11.20988261836939 -0.2755628664068222 0.3845084777703055 1.7598928602066852
Ni 1.205826901413594 3.844699513079745 3.559816855369406 1.2426771498769245 0.6399917998184332 -0.6042763486946948
Ni 1.628647193852932 1.69990904089327 2.221420165636058 0.03430288704692802 -0.5846572889121866 0.7869727686880833
Ni 1.520962624991977 3.4684497022886074 8.299862774223204 0.00556849522671299 1.0488835915291097 -0.2950896235858402
Ni 3.95064576613167 3.3917271773141437 7.229393337214735 -0.18660372546759477 -0.9538723308585314 -0.07209861773846292
Ni 4.0632813496528986 6.967215268241501 6.025227392006103 0.06883331672362983 1.4229387351765752 -2.1104347512235586
Ni 8.454822252185862 7.2660690704463 0.7857515097491433 -0.919976706552351 -0.9678552754011849 -0.16389625656774998
P 0.47167879814193686 5.562546880986616 8.062066632225841 0.12876161764814598 0.8985527323506203 -0.5390256071160007
P 9.033499393995031 2.0699245777096142 8.003736580646502 -0.4730503286664563 -1.5307700304299572 -0.07290645835173896
P 1.8789282658336843 3.2030607546901075 10.454335028386883 2.020162547899863 0.8721572730762269 0.3394360109116993
P 4.142342865009145 6.478484593137269 3.829741806105186 0.9840252002928278 -0.8436666218357018 -1.0279126457043974
P 6.943160981941678 3.845909963355142 10.29215835442129 -0.42091504142379765 0.3405459561464264 -0.13953711099709515
P 6.7123472267960835 8.074121988878412 10.098013051603347 -0.3632346559931938 -0.8957995950855153 0.3503449445147192
P 2.3261759908983435 8.551530858399225 5.646141669141177 0.18373026057454164 0.3736337398393307 -0.2837248333923243
P 6.976389207170832 4.315091411455207 1.4850941619816738 0.7331958320769437 -0.9341311436758621 -1.1424120970065745
Ni 2.5970893243402 1.7963719165995968 13.41899441594193 0.7416192802539485 0.952490105799024 0.34153737352541824
Ni 2.4187526841415514 1.4718620292342985 6.774274955021023 -1.6723843356710555 -0.26982673525399337 -0.21223968086814415
Ni 7.3394969864005075 0.7376265551156953 8.649377105848863 -0.8137178979924115 -0.00399909385706408 1.8157102242866214
Ni 3.00345477393804 1.6502987818617396 9.020790576216344 0.35380050716348743 -0.7075475353812202 1.5254586455193728
Ni 6.328716399663986 2.4256786439880007 2.375537789083871 0.7397549733517002 -1.0112788938024582 -0.21304854992268468
Ni 4.401078886657902 7.0338719435573935 10.37746233476923 0.19770189226328533 -0.15315727288369108 -0.4111587333679822
Ni 7.467558985085641 6.594979055731946 11.777678449281826 -2.420600038195599 0.36764769745922493 -2.468470122404
Ni 8.001795309640919 4.005652995188094 7.985460601713973 0.07425731595267857 -0.18866369332041702 0.9325967093092067
Ni 3.3867488592641997 8.953737091637239 12.355558332112613 0.09351693551323895 -1.7189889229034718 0.6091696722312542
Ni -0.09948627105585454 5.108655331102105 10.176710521763987 0.4814547506800676 0.2238536109579887 0.06716055700689723
Ni 9.011183423504239 2.6816297198903536 5.315874407007333 -0.05650436284463172 -0.6659884809925111 2.159481372238565
Ni 3.938250027221205 2.772631917662555 11.423981238358625 -1.1065858313365846 0.8250250954751146 -0.26137911870727243
Ni 1.0946748020644694 3.8492773814145202 12.475362875648361 0.7511542163275774 -0.8210038901308634 0.13561720711739872
Ni 3.3644328887734063 8.63920204263161 7.618416583806781 0.2970991978167012 -1.0745987369070267 1.5353033995239362
Ni 5.889960028786891 8.094290092715116 3.58721671701687 -0.3706528028341358 0.4338080953363819 -0.45976543863209207
Ni 3.390443917999624 8.570697837948005 3.5196426478080447 -1.0685972679079532 0.2591610280100311 0.34378246080585306
Ni 3.721624933574446 4.579142492959845 9.541019351757601 0.5318689414665614 -0.007181605350103761 -1.7031581265188023
Ni 5.244926548948206 4.93789083097211 11.635762710677815 0.22663785857134514 -0.7480796911673117 -2.9700180442895174
Ni 7.989463278639686 -0.05517195950743704 2.373739405817566 0.6079126598957014 1.0426432670463528 0.9947878381259706
Ni 4.70163460015217 0.5437178816748985 1.4961629561541459 -0.09656754941410467 -0.7893489822297437 -1.089971619818671
Ni 5.8325592025693425 5.86157360465933 0.21523808145149093 2.839519903566239 0.4955325689293724 1.8003633095169056
Ni 8.250301661293081 0.22073516390517728 10.99121432106228 1.9588491937023618 -3.3328032714501177 -1.335781680443093
Ni 0.31829927632821964 5.105151396094374 5.543854070305117 -0.7784675594305497 -0.1648308525668774 0.3568372371072822
Ni 7.220891061671301 5.940862648262832 2.738745680742339 0.3506159387879187 3.2454587832961788 -0.6163191387918417
P 8.855636012550674 2.102506622716563 3.243163063325336 -0.9835009523582415 -1.166814694220655 0.4168706961510949
P 2.066830193546943 3.7251288685821766 1.3119542669503343 0.004412013024766595 -1.2984407779007896 -0.13458079543308435
P 4.931119590333795 1.143129217599943 7.8861436116740755 0.6491423559694498 0.9532318690610552 1.7129406598268628
P 8.770258313050622 1.650053051354704 12.412596933360533 0.7349516384257858 2.031858496180552 0.51244734240684
P 6.4563597463741695 8.06228141889125 1.2426464324974245 -0.7272650684148055 -1.1737433030196882 0.16035636173529158
P 2.032973990355365 3.4398994578230213 5.94971349708106 -0.2602108094307841 1.4538356818657476 -0.2018531954274975
P 7.1618429309436245 4.112764192865966 5.86911207054739 0.8965012491382301 0.5736694224421153 -1.4107529917436605
P 2.787002601759195 8.548163440339847 10.305891959425615 -0.3142106606860072 1.1730254510170572 -1.420642482943231
