# total energy = -340896.0976756198 ev
CRYSTAL
PRIMVEC
9.00538549125628 0.00000000000000 0.00000000000000

0.00000000000000 9.00538549125628 0.00000000000000

0.00000000000000 0.00000000000000 13.18029194477557

PRIMCOORD
 96 1
Ni 6.365348554985011 1.82439200836098 11.14072068494694 -0.0931819207713234 0.7641974226647806 2.0476430127083187
Ni 4.607299220340745 0.17977630839439415 5.9034128118554205 -0.664014902205908 0.20805006826682879 0.07851069191239382
Ni 2.8694939919154514 1.6434468009509173 4.874796987222245 -0.3755546110111274 -0.19118054620499977 -0.4953572196937727
Ni 3.3757587443256893 4.476505003826349 5.102934015908955 -0.030649863675373024 -0.02609258332199377 -0.8137937455356694
Ni 4.907322637952532 4.710681043914503 2.4397642083369786 0.447050819278901 0.1363530568421587 0.6180754593613162
Ni 7.329330027498332 6.137827494654785 2.6256857916796945 -0.06920741223359694 -0.5398833271306056 -1.145640374135885
Ni 5.146568709980758 4.428659391574836 11.256364241184288 -0.19507448194276727 0.09894993360335216 0.41900368333369775
Ni 5.607671454967441 7.877721972476342 12.397540178118259 -0.4701748068908741 -0.532373906127438 -0.19735942132220205
Ni 1.908844511973759 6.571544862856817 0.5102622429576582 -0.09177938399684193 -0.3290850066946784 -1.2770846808225167
Ni 2.827582928595567 1.696227364362572 0.47732864827197957 -0.29041021583229987 -0.7202341297099532 -0.09812255260605036
Ni 0.855182009125802 0.03579370506608152 4.551655844933088 -0.8869789114700918 -0.32978948896087074 0.5772288576585994
Ni 8.565481260801695 2.1549616930078015 1.4706568704945477 0.6246631398811628 1.362692645901324 -0.3609129498385526
Ni 6.745105654297326 0.7306609440313959 4.662198750920249 0.1934821977549829 0.3063310008276144 -0.13161837037065074
Ni 0.6868245293282305 7.484249671308381 2.4206133558969127 0.6964935915599036 -0.3893431801547875 0.624235565425441
Ni 7.513922415966528 3.74092711940547 3.926013903528213 0.815626427869034 -0.2030760120910051 -0.06476608863279168
Ni 7.51955978718231 3.7349475435471966 12.66013181107267 0.6097440566774854 -0.07561357287025687 -0.24161890536120967
Ni 8.183292707450624 8.986068777194447 6.432021726343289 -0.4415923672674911 -0.8276072543799939 0.5050639054585753
Ni 6.798462562370019 0.8202321086650219 0.28459719254368226 -0.484748590939991 -0.6275301770163128 0.2724042661731824
Ni 1.6948675511779348 6.5451140569170105 9.266693694269629 0.32400065019323554 -1.3518281923829945 -1.7711625195832337
Ni 9.176397596117042 4.799591213265001 1.4320777997462917 -0.4276883555918892 -0.32640386031808943 0.0837238606822171
Ni 6.21652555704251 1.7803376633328596 6.958165866866686 1.0357514250225257 0.7826594860247101 0.12599845308071203
Ni 3.5428716798708306 4.188053506361973 0.32112303543698917 -0.5628831304598887 0.7587150593939708 -0.007621521100999777
Ni 6.066234681291425 5.562959716810324 4.641387305425566 -0.6014825879996415 -0.1294596721564351 0.734592198203838
Ni 5.393217208749195 2.934152658575694 9.133362660708132 -0.15496578684733955 -0.4293963394219315 -0.3853237745827493
P 0.19282421119718318 5.474391752102319 12.439137854028703 0.5821034121420813 -0.19039558840985918 -0.5574748149601237
P 4.057187246764948 6.0193886668114 12.37970771409032 -0.46635183360035815 0.7659414019390809 0.9601499363371271
P 2.4928167343855607 8.49964288866339 1.4640532214329942 -0.16319614517693184 0.22069938159972313 -0.5243392087484195
P 6.367608906702521 7.837251770809054 5.815816528224384 0.35698764664221744 -0.815528468838589 -0.3833833630269268
P 4.641708797681802 1.2265244763869563 12.480734629400613 0.8484851262702677 -0.8618366078765093 0.5626463318587342
P 3.907922984941338 6.062731586398551 8.248885232569457 0.33517003654649374 0.05631204432816753 0.5325947638889924
P 4.857468824772713 1.0136731887572228 3.5854608487059676 -1.0736268599120606 -0.4365943998322675 0.8559570091672807
P 0.2627798455077813 5.540338188864568 3.5550280495260758 0.42873273769600356 0.04543242130118627 0.2459941516107699
Ni 1.4983700433051648 1.187017850949842 2.6175665362673164 0.6987366219578096 0.4436225103236424 -0.6761032008290098
Ni 1.8941026961906369 6.5787041441931535 4.671846220222911 0.23518420547945945 -0.1979957693546203 0.8342401863154794
Ni 5.999243619831043 5.477804793141904 9.203441668797733 -0.37395384218291083 1.0090353491839203 -0.13373798781681484
Ni 8.75269421640055 2.3350693995822924 10.50246490031212 -1.241130374215095 0.8439016206646434 -1.659100988298588
Ni 2.3264242296667166 5.15700595157675 7.146999791824712 -0.9834636713624031 0.05392323238101681 -0.29643276787729594
Ni 0.3345896886575638 0.19108256967460785 9.486646628769593 0.6878145757286671 0.46611117834446175 -0.5335350163150747
Ni 1.472794748971587 1.129959729507043 11.4529752169122 1.1595474711352804 -0.7423510162136506 0.10930839401954077
Ni 4.198986044151044 6.843201316683123 1.3729907649889312 -0.013308029962815791 -0.20808760637298354 0.18105451351459143
Ni 5.623800100091187 7.776510446766807 7.9733519603591345 -0.48344324186500615 0.16979462433005596 0.1507653756127468
Ni 5.041782046295719 2.7788457831965103 4.956818036796268 0.902823334701516 0.28854050961341277 -0.44672351784646935
Ni 0.8417747914483968 7.365459633437175 6.905365491607308 -0.6402147144625168 -0.7058104980854554 0.03134200464639118
Ni 5.007282415101375 4.506042667704566 7.106813259795278 0.040162688261814704 -0.4397959374887006 -0.04152665848887687
Ni 8.09331089724601 7.435872741322472 8.875489849665971 -0.783866618958934 -0.7292720715425054 -0.5866365241257446
Ni 4.559840839658366 0.3570167002802195 10.385133734864167 -0.7222195355710982 -0.6505934865936795 0.16130072792643188
Ni 8.26148646825994 7.145917344508199 4.605892579152398 -0.6274854398213064 0.8749782874647898 0.9399804033677877
Ni 7.103835178867069 5.979800992906326 6.8822999981648465 -0.224496129637994 0.34749204844695636 0.09119368669670101
Ni 2.379159766151728 5.292239823058206 2.591363566576326 0.3342590946964501 0.4242870432198241 0.23175538230356862
Ni 2.237036774893797 5.152863474325536 11.41139104907975 -0.5518970637620301 -0.07629851475242344 -0.023973480096461938
Ni 1.163477773700556 3.4057196613143557 3.7570026327557757 -0.296268988605922 0.3622828336028857 0.4078098715004073
Ni 3.760576870192747 2.6408022314924913 2.54934533917103 0.07768176825319524 -0.08805719795024834 0.688456323077724
Ni 1.0174194290539722 3.2990598774809414 8.175616516996419 -0.21932024186400936 0.3204476427346546 0.38646714415857314
Ni 3.5655382347432303 2.6116698099540674 7.0608668833095924 -0.15369566188566433 0.29521200809631737 0.22624550822893294
Ni 4.273991898553992 6.7207010600564825 6.177997816990627 -0.173387740997953 0.08980014878328405 -1.1930779987925582
Ni 0.4671534633890537 7.218320642551144 10.987078004776505 0.32724898192720414 -0.05787090417485518 2.0722422993142375
P -0.07332184734647537 5.6378935281306415 8.01871839002965 1.7095946261727653 -0.19443144904212964 -0.33332295603542594
P 8.322894190816513 1.4503983556590492 8.002229529492755 0.1433405439035854 0.670354985491323 0.6242440500658734
P 1.7183265799592622 3.180512985013612 10.28313153632277 0.4007732763686001 0.16523271599098638 0.40219895307153314
P 4.058285903775053 6.2639389107982435 3.832999980083416 -0.8648082889103236 -0.8546020378012831 -0.3394324113672735
P 6.99487902177483 3.7650435413157943 10.378003270760884 -0.14423708757592577 0.7526089464962329 0.3877043589997839
P 6.306507367247125 7.541839110485574 10.118984074166377 -1.140397637679707 0.319996671240165 0.3273315143386814
P 2.4126597995745835 8.464990165918458 5.911769809440476 0.8016864207491741 0.6393629079851827 -0.6808422581758918
P 6.952265538399306 4.089543596251056 1.790318331892685 -0.03323227969056858 -0.12060556419991487 -0.9209066745657881
Ni 5.446745219143134 2.883227204541756 0.6108587008492418 -0.4303417340543363 -0.00011801363510302256 -1.1209117610409536
Ni 1.3680711229838491 1.275684874896464 6.943509602244187 0.17196257851565222 -1.92880096816673 0.0452285328204963
Ni 6.582252266012671 0.677487745819409 9.206855610375852 1.5544920566372453 -0.5464972329026975 -1.0639104039552452
Ni 2.620990383769297 1.3581111668102797 9.094598979560637 -0.026673395526128258 0.7034527964865562 0.36844731054238483
Ni 6.446162882924986 2.018530105277624 2.4995104373004016 -0.39944350181358307 -0.11114596144891181 1.0526587423008258
Ni 3.920809691346743 6.835303593749831 10.3495732692781 0.9901395407206819 0.07572053076176638 -0.13426583529582684
Ni 8.346110074193964 7.138046637730893 0.3412077463356435 -0.7777671909294154 -0.04788011151073045 0.02278125956057367
Ni 7.654532502489233 3.8718113897731525 8.311650066695067 -0.730745056543606 -1.306969384197091 -1.8602167913394285
Ni 3.189131138773201 8.486350939918191 12.408334933511801 -0.29690867907244994 -0.4579235003273468 -0.0550300922919504
Ni -0.07355688790355508 4.821897552724251 10.077242312090673 1.105013087532826 0.13337571938138965 1.005771590830984
Ni 8.440720652457545 2.3372036759052 5.909924605986621 0.12276014864907245 1.2815671420739025 -0.2559034403046818
Ni 3.5442765199821116 2.728532695364926 11.396194461337528 -0.3760922286821523 -0.14814413593981585 -0.27666612677332997
Ni 1.0534589811395279 3.2623809430370465 12.691408414857863 -0.11270636395749621 0.5282999931683804 -0.05728314999218522
Ni 2.986383893482296 8.11659882370609 7.968000059858273 1.0969038281621304 0.6541130697111638 0.307657947169154
Ni 5.678354724412601 7.694273267944894 3.5304856728897027 -0.22565852537721134 1.1654548377586509 -0.025143589145163146
Ni 3.0814807625536274 8.42182735403788 3.6141150842834366 1.3626257972191307 0.07926916734497316 -0.1866178665349818
Ni 3.4484592200844824 4.17749018937138 9.337353549712933 -0.6084358793890231 0.5530221785054089 -0.37783569373582027
Ni 7.204884607640687 6.040416241553972 11.45006197475836 0.38157999126960085 -0.4079188862744459 -0.23559943864000715
Ni 0.6125697240616993 0.10378796645208344 0.37637377604431294 0.25414429152173007 -0.04696505589562879 0.2015670316456464
Ni 4.747251913734453 0.14434281874146163 1.4904272934452298 -0.731048703826954 1.22770870149255 -0.0007481910199341953
Ni 5.940267351313225 5.46018125405359 0.23653184889014783 0.21046716234875365 0.6051227558553901 0.8251513366403338
Ni 7.6825662670175525 8.647403251137103 11.328434339970071 0.5803229232028908 0.9974936670929079 0.6225779752173599
Ni 0.06445334387474742 4.928647390410952 5.739845296514198 0.2816772068346762 -0.6065468898964264 0.2742739723920696
Ni 7.893742552976144 8.960376412851597 2.576667678258381 0.041335368413677194 -0.27908887728220966 -0.12089584174682404
P 8.633354850024292 1.7317446040990618 3.7449165051060946 -0.6158815370337909 -0.4979365503851747 -0.259102921078586
P 1.9324746430763322 3.4257926652120823 1.6064932022544962 -0.4137144099103004 -1.3121943800414562 -0.42633826932189806
P 4.6185289358456645 1.0269921536584063 8.168235703180997 -0.43444598603069695 -0.838568124266872 0.08241414073185807
P 8.439667022374085 1.6054080533223851 12.448020766116958 0.7523826894180397 -0.15299529338453002 0.15471613273037874
P 6.475808611427146 7.782589081863696 1.2810403775514565 -0.2903109712502742 -0.6039109949354761 0.3685390989252427
P 1.6556490980713392 3.198928998010853 6.0102923270908555 0.5712782965021194 0.7721382747784121 -0.6218976613208838
P 6.767565085307165 3.8639767045371625 6.05068958513698 0.13048657075905268 0.09421113336678613 -0.4964003162463063
P 2.3693078746021037 8.41780194679594 10.17020310376203 -0.7401542656726479 0.7783595730977756 1.0664519394301764
