# total energy = -381166.44800971594 ev
CRYSTAL
PRIMVEC
9.26770281093194 0.00000000000000 0.00000000000000
0.00000000000000 9.26770281093194 0.00000000000000
0.00000000000000 0.00000000000000 13.56421985756373
PRIMCOORD
 96 1
Ni 6.0544233580855895 2.990882284441848 13.212513335201983 0.45714805561390304 0.4844346592439979 0.8128547786611678
Ni 7.129523210300588 0.6395762116388513 1.1677833666501225 -0.6745217152745029 -1.2707628523695471 -1.2014646801943565
Ni 4.644685296622892 6.361397474760882 2.7375987498435097 1.0940434758951998 0.6373106534418443 0.905424262659473
Ni 0.4101996429365846 8.429198034446744 3.9426438419866336 0.43244463932995203 0.5983273302001115 -0.565840927536632
Ni 1.913076263037187 8.417715350796087 10.60426298523244 -0.2150049023181071 -0.4005896996028843 0.7597537850711302
Ni 4.047279912599523 1.6604201519119313 9.511611030865723 -0.8270724649224466 0.4127782712492762 -0.4231894392802712
Ni 3.987253002183622 9.19333865782359 11.386959402963882 0.9106099206254704 -2.1434096634876827 -0.18921802316199027
Ni 0.17118280988128112 1.5490316331086724 2.770736347633087 1.0009821398621408 0.449703940631032 -0.21226076391406667
Ni 0.40709125544955466 5.25389773389157 3.725005745529663 -0.5054554844700392 0.7250261517819578 -1.1375452558325765
Ni 3.4243605430311512 6.506325809651086 9.432205354095084 1.1141106789587198 0.5423664985637756 0.9507530685032594
Ni 7.373439877775667 5.429140724327616 1.5153537282514324 -0.24647649056382714 -0.9057831886607884 0.9522466223296503
Ni 8.142112407774928 7.541991586859191 2.5667977693136463 -0.6349190132812162 -0.8955044324425997 1.9465590634810992
Ni 9.122950455784256 1.721225549354995 0.08020177243294149 -0.28305223280533187 1.8804909682074324 -1.1506082596641216
Ni 5.585153231652191 6.229731222440564 8.09261731471222 2.1121296224274784 1.3061630862457116 1.2674648983445655
Ni 1.4951399418830336 3.6635136113162083 0.5017237677633976 1.3832766407002628 -0.5029753983606629 -0.5197719010927112
Ni 8.359087863488538 3.246735753000095 3.998175916590937 0.8012855857663297 0.6775450754818589 -0.08663254968857982
Ni 1.9419080861503362 8.056534441003208 1.906722326063103 0.8970031284753133 -0.7583304223610423 0.17585317181931004
Ni 3.2038262894790797 4.300028700751822 10.632896479507716 0.1614382819455607 -0.7509485280746744 -0.10049799481676241
Ni 4.079068132875351 8.824067043569837 2.625042500499506 -0.44388476284609363 0.638097668119514 1.1240747321499673
Ni 6.192929175001698 2.9906042533607184 4.3014179293872 -1.1702496880441329 -0.9299402455229663 2.144567174130894
Ni 1.7445616247644804 0.4063841297332148 8.756693625220219 0.22834455684980676 -0.430605272128368 0.4966666825338156
Ni 2.1042875052327807 1.103653644247018 0.6750140532396418 0.4250848565307711 -0.29460188531614423 0.3969844987501292
Ni 5.1949458769893715 1.8850414623566096 2.4365680109124987 0.4458015202528322 -2.5297251125597398 -0.8245525267140702
Ni 0.8542579109331432 3.0986842022985344 8.977804329880499 -0.11401428413564235 0.24280469813919475 1.8319508545151997
P 5.985749681046555 0.5127310182653221 11.661377006809158 0.7768989293918491 1.6952563551732225 0.9648031188384222
Ni 5.555023930160436 8.275817554690196 6.776101221211769 -1.2661621203727418 -1.1495006284222395 -1.099352546812939
P 5.675958182749148 8.26604939603984 1.448971027320907 1.3199146315038495 -0.2674042418554298 -0.3654961983338609
Ni 7.754898521085605 7.253126561268145 9.759293165949568 -1.2794608943641772 -0.32514376265874323 1.6364050893629691
P 3.0334210398546912 3.2286173942131433 8.337233693741474 -0.5619487915710774 -0.3195421002012497 -0.034697037161553146
P 5.52482975474975 7.419185258324205 10.25646278460406 -0.3163475045233519 -0.7811937001124611 -0.6143838694423419
P 4.032331108137449 4.065092437197232 12.767090861367349 0.10444001018364595 0.18061485487401152 -0.7791537868642968
Ni 9.052692001582782 4.704712207038794 5.987491082384698 -0.28105679964185787 -0.6163237667775322 0.4481777337944926
Ni 0.15711073009503695 9.135712082408109 1.2267602463496232 -0.7974587558210717 -1.673445687056034 -0.39481423057168774
Ni 3.7150791091630624 8.241832888873443 5.2690754506104405 -0.8364297377676305 0.089770066876297 -0.983155910313997
Ni 1.4652794037697046 5.7376903504626435 10.359279605176091 -0.9817351187070706 0.749753993545941 0.21137244777184244
Ni 1.2937991006316147 3.2760309612484604 4.840323720400342 1.258576080495368 -0.1439774061566359 0.9371303355135021
Ni 7.378833680749583 2.7115907957443675 1.9397375901769838 -0.2004259760626677 0.4628613039485964 -0.8247291615012505
Ni 2.9680837357892136 5.542716420969095 1.411072610652119 -1.857006511932247 -0.9018509434859178 0.35211154949683876
Ni 1.9698316743984614 5.609304864899657 12.509235569024966 0.9475787845403358 -0.2049943121596405 1.8925566411227148
Ni 7.037087143527669 5.37499880512896 4.039939892057699 0.021974190278246028 0.9019846408503047 0.9080951246234167
Ni 4.624991428376206 6.087583198361657 5.416152038987506 1.3727181484581263 6.350948510264166 1.5068952806948885
Ni 5.155817636171719 0.8046664337623103 4.814768956963441 0.15020847466801227 0.4877786360155664 0.33634503069120136
Ni 0.5507202584206129 6.162512574726109 1.2205573729296197 0.23106298422223434 -0.0029557401942142646 0.32351702568859764
Ni 4.543760014172815 8.805920881674773 8.838621970666976 0.38904904595313644 -0.5976845544097901 0.431154973984251
Ni 8.761065200585849 4.517393399979015 13.415596504561815 -1.0697429514766221 -0.360875668842714 -1.31093428238211
Ni 2.257510434043354 0.8240331521035342 4.113187180381316 -0.5914848533569813 0.09533701944111322 -1.5240897901963042
Ni 5.598480188141006 4.0620433630075095 2.581528782762168 -1.629806867320161 2.8270086584731056 -1.994114958883192
Ni 3.8520372197275483 4.538672045388141 4.553223265404199 -1.713786552766926 -3.9366864984714525 -4.265512337967474
Ni 6.755793831046055 1.403074583218288 9.889699937472368 -0.4712757532645367 0.6629175553766712 -0.3703347573730848
Ni 8.324259836725693 6.2376643759554655 7.653434785108405 -0.0647876858993465 1.4757432805721165 -1.2503866027060402
Ni 5.2257609884812455 3.8140489063425282 8.860012755278824 0.6019836960057762 -0.20035064274004205 -1.3426305850441265
Ni 2.861208588202959 1.6622180862365699 12.030120362008766 -1.4396033403164497 1.722428801822956 -0.09706094411075541
Ni 2.5220014015220302 6.542757148981781 3.9772058856818653 -0.4532847160037548 -0.0067702288442980174 -0.022466813643948404
Ni 6.872603955931344 4.75268183623637 10.37638407728719 -2.9226246426072184 0.21694171432950377 1.34529681902238
Ni 8.030760959782485 9.088567278751217 12.331734039439876 -0.09825547863948886 1.5222064571306622 -0.38923802203549096
Ni 5.662760974098192 1.2473864454883645 7.20938300450374 0.259150743597386 1.2969569942664114 0.44835359725072466
P 1.6310693374473402 8.908671901557602 5.664282730882241 -0.07305121145971935 -1.056176268535781 1.8657773161463416
Ni 5.073279475887017 5.5729569348933 0.4816369489220478 2.2522663146817856 -2.637788064207954 -0.7888769276893317
P 2.2096056787647083 5.198347123881858 5.948127441918356 -1.001132806507392 0.17501396374746633 -1.2038576059065653
Ni 8.733076738418792 0.04513463894032382 9.794153629671879 2.357372240584205 0.737193383272111 1.6787431880095476
P 2.263265677422739 7.968102021798557 12.821402379525491 -0.16760815820169844 0.3021501299770474 0.06058470356159243
P 7.478971208469793 3.558519807378932 8.177623464227082 -0.13352767157822165 0.19023335180038206 0.3790898778578955
P 9.207731400123404 3.705236808891071 1.9282762222425474 0.8823159587767837 1.1795447401928139 0.5563473862238999
Ni 1.0492151585618243 3.4675851084441143 11.582975949011667 1.6513005184175626 2.7999472834799395 0.3318440574970543
Ni 3.75254843119664 5.2466411226740854 7.5213737286528835 -1.4808785449161528 -1.9583000060671112 -1.0196709745208954
Ni 7.739338048245046 7.460797243466616 0.47909111098917023 0.034367935956908555 -0.42077594474277213 -2.049128081894277
Ni 1.3324639563140503 1.874893327895376 7.201949380164602 0.1552673772481584 1.2634598909502306 -2.489257748573313
Ni 0.5513819723937016 6.863364056335133 5.696484290698682 0.9059914480168525 -0.14598620905654858 -0.0871277441574435
Ni 2.2048791503855036 3.782223615255883 2.8018934373547513 0.07069119586797502 -0.5448434993493585 0.020443612566332536
Ni 0.3096367276622453 7.328815889254352 11.977300943986016 -0.6287990164264073 -0.5023403358798251 0.4310878681917415
Ni 4.242263109795776 6.311018242860182 11.634600760155827 -0.08838038561762199 -0.21062091431779859 0.9898958001409919
Ni 7.57875656348724 9.04934636090652 5.876155389486853 -1.749535171121445 0.15662929059269154 -1.771871115614484
Ni 8.123938442771749 3.1096942331112696 11.497860440604892 -1.5279335894224266 -0.8649119043677234 0.03171378616351312
Ni 5.139423070087772 3.0371003178283074 10.988414822948252 0.8904067062047182 -0.5993418875075548 1.9429281515967314
Ni 5.861210292105862 4.574102472826768 6.234671834752239 1.8779795146394882 -2.1292071467350557 1.3536778439972237
Ni 0.004310408527780664 8.73028715990479 7.136135716180122 2.914698445781606 -0.7244875056696684 1.723336144128574
Ni 8.682743845031613 5.205807624558838 9.49045008528094 2.450736452569663 -2.5603058135600745 -0.07668418022661631
Ni 3.2384133559716135 0.6512145926949402 6.915147345195538 1.3556467947981363 -0.1305117675700333 -0.006295346090408513
Ni 7.193044044636018 8.894510851825396 8.202433104366555 -1.8742791829697656 -1.218509294381469 0.5952288937804459
Ni 7.629219204712279 2.7441482353446545 6.099735010147565 -1.0068887351545628 0.24419617917008266 1.361203205839991
Ni 5.936093329956792 7.918112033411439 4.320936638052775 0.9185014075584053 -1.1144274388681903 -0.5374256096187325
Ni 4.704072735552194 1.1195106835741149 0.05326426775255603 0.37358411754831794 -1.5203064118944718 -0.12392948636682527
Ni 3.7195183387584327 3.06218798904891 1.1055044044770714 0.35772812435266776 0.43017306968695596 -0.7932994822370596
Ni -0.040426645966527695 1.3990060617310902 5.298971205994046 0.5583680161983545 -1.594424631166125 -0.480937701834333
Ni 2.8588638594187654 7.618709629845577 7.565877237039042 -1.0720338043933277 0.07193072470203095 -1.2645076154884545
Ni 3.905521132034197 7.345405077095089 0.4947322128432563 -0.9300975970364368 3.1975838139917703 -0.5763731945265235
Ni 7.527209601045795 0.34145460458672733 3.4878081625152175 -0.5804805318266777 0.8696414486329087 0.783577112742973
Ni 8.409652449443325 1.4539542710650217 7.944454551578206 -0.36031028325754716 2.444289668503055 0.09075042851169532
P 0.6460608232210661 1.572089677437028 11.212712690568551 -0.8424610315633749 -2.8834657130195693 -0.37479999223329
Ni 3.544164135889936 2.9243216436194 6.036362459055404 0.12712433915503912 -0.940559158689393 1.4711255792944469
P 6.929275957968279 6.567650198445592 6.097482958390414 -0.7948174615434828 0.37563894319481755 -1.20214319431862
Ni 5.920449447791895 7.843349475695664 12.678571325757275 -0.3643343168152758 -0.3724160653821457 -0.774567453045195
P 7.796241742849589 5.976565387666571 12.123211655362878 -0.34210970108912053 0.5139529804180891 -0.14305515145268266
P 3.73091761308475 2.2166954713335154 3.874062841974643 0.38084851242021506 2.20068072929501 0.40295562873189955
P 0.9421639246241884 7.339835187769792 8.894804638001123 -0.31888466912290886 0.3932317165759163 -0.40949060163693995
Ni 1.4318137293043938 5.241423406051552 8.097418911483329 -0.1275745393185803 0.5525339260150807 -1.3302455811162122
