# total energy = -340858.1127994304 ev
CRYSTAL
PRIMVEC
9.41390964816119 0.00000000000000 0.00000000000000

0.00000000000000 9.41390964816119 0.00000000000000

0.00000000000000 0.00000000000000 13.77820834265541

PRIMCOORD
 96 1
Ni 7.504081521223599 4.719296437689506 9.424445652025526 -1.0483637144698976 -0.0002689373906705046 0.9026153324557682
Ni 2.662714917693885 1.4237408607496855 12.780417818024443 -1.0331602672565818 0.30334569294704533 -0.22226955430032044
Ni 1.464201844229381 7.355341749474137 5.415497415527832 0.3424904814673069 0.5839278669453298 -0.15361132970197414
Ni 2.531936885469612 2.8668084779171967 5.025973370871925 -0.13318160109271257 1.036759554572066 -0.09302919724354301
Ni 3.3960678897859604 7.726984072836494 9.18929372123539 -0.6964982195455941 0.31150971681507644 0.4764164169252118
Ni 2.1508712385932545 4.153934682487884 0.6659361998511515 0.998285566866584 0.6459894121627648 -0.08955615109327802
Ni 0.5156280707615978 5.766763331551473 1.152192872647033 -0.13944043751823082 1.9620401898358337 -0.10416413081443995
Ni 5.032101826024387 4.6373201128544235 13.004562064314158 -1.261475256420034 -0.8827409621293443 0.5392387515680713
Ni 1.96218824839234 6.892017360474566 13.329273224125716 0.3415232324580312 -0.352235990889845 0.268762298545221
Ni 2.1560959584236943 1.3835905362869354 10.270744828769228 0.26404612401647426 -0.8166196450202388 0.23269126385427666
Ni 1.0336096189242947 0.5086975505108413 0.8937989404346032 2.991002359850668 -5.481781173054198 0.9661544906599941
Ni 5.387476913590347 1.7462990594347199 4.822703527738998 0.29111906897386636 -2.5150356288683655 1.6306491607157982
Ni 7.621312937527145 0.014612270487943916 8.836351187911207 0.33390273979829593 1.0014184560686108 0.42980205950078243
Ni 7.410686124038382 7.1163696541665376 10.779298346463122 0.11871991714142781 0.8958265916687088 -1.8835876048548852
Ni 1.2970861209321378 6.510415120750757 7.565766163906405 -0.25299552262926756 0.5096258137976448 0.6019428154655118
Ni 4.478714563839555 6.344090165860283 11.570594873561216 -1.8575837245919555 -1.7480053647404799 -1.4828976322287106
Ni 4.698849426028758 3.594635485071491 6.5825115474560265 -0.7072240906035304 -1.6061655737521372 -1.8434411145429865
Ni 3.175405848658911 5.254241850959326 7.105573782632216 -1.06044532822478 -0.010596801679239815 -0.3212066323878661
Ni 6.596495910173356 1.474679525619074 1.2619402308150847 0.29037113506424833 -1.508881457886982 -0.27653422918115594
Ni 3.457644272508316 8.829701202166662 13.469314543400717 0.5286342365793476 -2.8076639353979065 -0.21683784176178783
Ni 6.4017127065487935 7.792523711502301 6.678641685381319 -0.8914240917256391 1.1229694149009306 -0.3318738822937252
Ni 9.227777783698162 4.311655323999939 4.399423086023646 0.8603358549612666 0.05094100982424131 -0.8671680473917518
Ni 1.857336123218574 8.490348588747384 11.534661039210274 1.1306400440723108 0.4771882620942299 -0.23438536372724794
Ni 0.9340302245199512 8.244052471767564 9.167468513208558 -0.34533412156368914 0.5611674333203626 0.6866010150365401
P 6.578534170648169 9.123321042727781 13.660446091489735 1.89194728967349 -0.2567493332447449 1.2485351513195981
P 2.3734725450988092 5.580414990932448 4.804516795774265 0.05518333004036302 -0.5307854785943955 0.5649135306263561
P 7.990206399285018 4.93887587921205 0.043214552038981155 0.35522284143231087 0.12969981319169924 0.9455895220244488
P 8.537211030758069 -0.00408281259542667 6.937355690520298 0.9053993229588084 0.504853332109666 -0.1740127761764616
P 0.9868695577384671 7.864511878247119 1.6902552313868675 -0.4308297294343484 -0.9004144681497073 0.19874627436739967
P 7.2988959474861765 7.047591630596818 3.8788545955016613 -0.3953528766839772 2.013347324750242 -3.3091635205439913
P 6.240603057579155 2.442871886702419 7.295919269269267 -0.44402823040249334 0.4988485206764828 -0.6610787023957196
P 3.9329431545246805 6.0732708143610115 0.3390871411684333 -0.5551351110833537 1.6003944755963146 0.2977455731514485
Ni 8.369690509347837 7.725967370599219 5.650580624777856 2.1931779931600617 -0.29551102739397495 -0.5888579572570956
Ni 8.776672649365098 5.176605338451869 7.51639868054999 -0.22677669814205462 -1.8409617997645586 -1.3205250113943388
Ni 9.149359916693543 1.3166576389996776 2.6775192319377585 -1.409941808696275 2.214425332574612 0.07885573395663839
Ni 5.116036244057184 1.0642895503250223 12.855219802350014 0.8029552601592687 -0.1075603009801825 -0.8704935122205589
Ni 0.6564083819405421 2.676732229094831 11.84690347575081 0.12656512421745944 -1.0316679989817716 -0.31212343913967533
Ni 4.070903999777109 7.676101891424732 4.723955381552723 0.26941664429976825 0.3580330571875963 -1.6902735572466503
Ni 4.410331924473221 2.861254271250603 0.3555605415851664 -1.2010880135812283 -0.6517792793716646 1.418805429734492
Ni 4.959482927336073 4.59341363845952 8.524922113160489 0.7099630868012482 1.0418894195994637 2.04503822809562
Ni 3.9671909576654745 2.7398336651730997 11.095618888644283 1.1879584181778058 0.6611033849860678 0.06892073423111356
Ni 5.5779108909776784 3.8680719034407858 4.4147724656336145 0.06650415436982095 -0.3368425391529102 -1.2488082024753266
Ni 0.432433586023706 8.889272422143282 3.672168444573299 -0.27223843001927955 -1.7058696119126944 0.373794176676595
Ni 5.334269496506298 0.5734012340037777 7.187264866006285 -0.44857985432891784 -0.4073486155932727 0.562050093035632
Ni 5.487330252764178 5.79752798813864 3.301396907849349 -0.4660813535477909 0.2186329859889977 -0.8034501975178163
Ni 9.350478681481864 6.618082004896238 3.5529591658618687 0.83614485953736 -0.7360276450987839 -0.5342068455711186
Ni 3.4406615795819855 9.383643885018152 3.052700243920408 -0.24128620461213932 -0.5918373516003936 0.6036166036235088
Ni 7.810899663050082 3.318902072758724 5.817655868263799 -1.3535456892947333 -0.748922241673265 1.2454783667711453
Ni 7.1192220687766685 1.1320226299286533 11.075309320063758 -0.9314145160756476 -0.3099464860930146 0.11958329358298761
Ni 2.6063538408923645 6.6227136484216 2.873734291213151 0.22099994355927746 0.6666531111597035 -0.6123912644923453
Ni 8.11860271237938 2.49446011133451 8.060623384516862 1.7787601294248332 -0.17804657992620307 0.9086365989491835
Ni 8.870096288279125 0.7236528796357051 12.598118399926268 -0.09714784739760687 -2.110356846797772 -0.2012394731028986
Ni 5.619266195869791 7.947570802686708 12.136520521948142 1.142978511033006 3.02441307410063 0.8494721727738854
Ni 0.3469298692598559 5.977277178124982 9.8234080824508 -1.3678734187713153 0.4697593166200103 -0.015806370904637292
Ni 8.22111077406165 7.310418572841958 8.096240911505095 0.5928508804665725 -0.11538519634124 0.6502389314677381
Ni 5.093932384306061 5.8081939477204205 5.766496917909668 -3.1507257159876514 0.4634863391271051 0.9123767827179061
P 5.392390974403841 6.895029811547972 9.537895500840987 0.17382817096948125 -1.4347061601251483 0.7855913149595245
P 8.907798996244733 1.5383646240928148 10.035413092305648 1.0773055943152285 0.2706371469704307 0.3431857077621186
P 7.600555266849451 2.835290708561678 3.7352312836221895 0.08580671135317482 -0.2387708943894533 -1.180054847060013
P 0.8661418154078473 3.5729458373429623 6.93866422395531 -0.41376351798068095 -0.6592578471368968 -0.42152387865239016
P 0.3286188736883447 2.079429078605491 0.2334837860082367 -2.2722725826003836 5.156513226112764 -1.6782600777255416
P 6.169339761873876 3.56885078666505 11.383252424087967 -0.57429471473094 -2.6980961170693925 -2.1680128067483433
P 3.968282971179584 9.37659286672446 11.16507471370552 -1.187498962042884 0.7313693203911662 0.9228835957865009
P 3.547142311117312 0.9038765306661094 1.12175864428698 0.36923818187479635 0.9575199549134478 -0.035912140515576854
Ni 9.320354170747796 3.716404405804357 1.604913433868213 -1.4738185527455778 -2.7500843372112254 -0.08530380357482728
Ni 2.7297042984387687 2.8895336557022095 8.17575455758767 -0.022362683965916324 0.32196716470297454 -0.23427403496036425
Ni 1.7143576641470033 4.323658058745544 2.875635900953239 0.3674363527793672 1.3960478243230021 2.5422564122575313
Ni 7.817084601660171 0.710238999840401 4.88622105862178 -0.9788863364043658 0.2083210625400283 -0.20202828755278113
Ni 0.3285341485019051 4.856748931823297 12.42662144309914 0.09030562766479286 1.5682883390903894 0.3143438438297619
Ni 6.4493094335086205 3.683822864663542 1.491656570199642 -1.2382746499338544 -0.4703835804675705 -0.348219156420968
Ni 5.472738692877364 9.014825734537114 9.706885533540467 0.18519064717015202 0.6016975322239251 -0.20004673834637804
Ni 4.123923138669068 7.866366418439185 6.896144418445132 -1.6646175472414426 0.02846571153986065 1.4028064832030744
Ni 7.6669139156508415 5.315008637455703 2.1545125388282353 0.8338583774960284 2.334804639696334 2.0350960292812434
Ni 8.805403901477714 7.689535540430205 -0.02060704812402347 1.511590629288029 0.735835583692636 -1.2821644093382694
Ni 2.3212724163424316 5.618804914299176 10.957478237718412 0.6377143166381662 1.210027225052387 4.120085858069137
Ni 7.816500939264698 8.646563004722736 1.9217291476945655 -0.49776120114957506 0.010395741412027256 0.8054566864248838
Ni 7.716562874904428 2.803951803488643 12.829799422245264 -0.539486091692187 1.1343884553711494 0.8014709623042584
Ni 4.579339843600947 2.1224129898591646 2.7046482366357076 0.3012250470596167 1.2027029234768318 -0.4509871782188298
Ni 5.7561161997889005 2.2235560346487984 9.404949445234822 0.11733872052318502 0.5729266307388198 0.054579120797460835
Ni 6.750055603640269 6.876324373164036 0.5028223295267376 -1.4260150601090538 -0.657208677917352 -0.5157617514920536
Ni 3.171282556252186 0.7715376722294273 6.010674905228499 -0.08558276826782679 0.36483876725552 -2.9589497022904974
Ni 0.28489408774880526 3.598344565455623 9.613841275183495 0.6543010173522539 -0.2045698230277122 -0.5293590305605141
Ni 2.155436984751387 2.1171694422095158 2.4285749821862224 -0.09332564543803927 0.08725218555044974 -0.8765903691469161
Ni 7.075626253398711 5.579708947712119 5.153449003606975 3.4974670023115118 -2.2395768921395756 1.4184683581100472
Ni 0.2976188693610677 1.7059228011414644 5.665337869473707 1.2765820301544855 0.33987258422848565 1.1733257558662955
Ni 5.142263396215031 7.747685260056561 2.24734969117391 -0.07738017785237641 1.2031078722247344 -0.7250716603079126
Ni 6.849033449220891 5.3561191806981014 12.065453035562635 2.149201330468795 1.4214307831724808 -0.2556581570630952
Ni 0.9955585963033249 1.1105495021210254 8.299579476178135 -1.222463651043527 0.05952155240440073 -1.2353896150765755
P 6.492773454152118 5.809747242805146 7.442767786579205 1.063184581532814 -0.7180173245642925 0.7643807423201804
P 2.594859457265397 3.5711760223373354 12.539575178878449 0.21487814693225576 0.7135438621739711 -1.6439124534836076
P 2.2265778996318097 4.790625630762017 9.243800257844844 0.2290827205674119 -1.049533823518599 -3.775505583952336
P 3.134116441134029 0.31919743295626485 7.91886026117522 -0.2672823715655848 -1.1075888186798022 3.257233407333603
P 3.8652948001074887 4.335754932587193 2.762172872664332 0.8662661044027727 -0.9156109733844876 -0.3298589087462255
P 1.7530864882594897 0.9656788472189711 4.113236468486157 0.7629931179440343 0.6921965068464466 1.4621390595251207
P 6.1051651401007065 8.992006417656057 4.24596129721662 -1.7163108618506766 -0.4446236978946472 -0.5210595095558833
P -0.08270025448366093 7.739815231627286 11.451509858456562 0.0786760138456645 -0.4778847739406222 0.08632401730922552
