# total energy = -340865.027471123 ev
CRYSTAL
PRIMVEC
9.32252074106543 0.00000000000000 0.00000000000000

0.00000000000000 9.32252074106543 0.00000000000000

0.00000000000000 0.00000000000000 13.64445143938708

PRIMCOORD
 96 1
Ni 9.43178064312365 5.45197791103298 0.4769019367034052 0.08584836322438764 -0.8976523320235379 -2.6165042151285136
Ni 4.235426249698754 8.693716679263986 1.2021726054057544 -0.2869122299813704 1.5336131563057072 1.1320713772021986
Ni 9.24884481941747 7.462966818902877 5.733030468355855 -0.43944909567224316 0.6892628781394194 -0.33082461509360445
Ni 2.23829060758982 4.331429567872642 11.683307365604058 -0.9102705350081808 1.0738040089198733 0.8447043190715967
Ni 4.442246371439649 3.752892578240168 3.0929243025407764 0.2910555627257826 1.4580160384956826 -0.4664801316481063
Ni 1.038230485374802 2.13683361480613 11.030679642704252 0.4256366152691831 0.7973479412748202 1.9778074799724195
Ni 3.8733488682115045 7.777517989858907 6.006342536741093 2.5503078218070985 0.09528816848104879 1.6942232859230177
Ni 0.3297599312268483 5.443037613681188 2.6141131135979063 -0.5082921825878859 1.2483698293863272 0.3035130717628451
Ni 7.739463460359411 2.962342822836612 5.198412805995569 1.855678794259759 -0.32692116627414014 -1.9505774406118732
Ni 8.815049286181171 0.7180335958825406 10.266917218281552 -1.1247712439963597 -2.370683870091446 -0.8651787848758649
Ni 1.9960542297076738 5.517692359450901 8.74627052520899 -1.445791985625665 -0.9679403789158234 0.9754459432642492
Ni 1.7363381255120647 0.10084916443401636 9.874898697060464 1.900941008531668 0.022423619110838802 -0.732306744603771
Ni 3.1745047489389013 0.6763759121322954 11.995533499897382 0.08637749625498028 -1.4624979855264362 -0.8011724572272332
Ni 1.8937115974574352 -0.36501956902033095 0.44109133793652217 1.9346090902080748 3.3229448905988 -0.7564447753025553
Ni 7.651486832508663 2.847358852516477 13.448039092413678 0.05267727578905766 2.12035869520549 -0.42695816229408406
Ni 5.9339429087288345 1.397622980900303 0.24128268401448363 -0.6653642171449509 -0.9076269267377464 1.0018953957050294
Ni 3.787814740784292 4.241038407160462 0.31788676886267414 -0.03969269060393164 0.9318829710716339 0.700251258830123
Ni 7.465586447219721 6.531236810010742 1.3884869106137994 0.05521161217513717 -0.9332471984090122 0.2840066262988012
Ni 5.572024010093494 0.2836507438421079 7.193750133861374 -0.9227365286856755 0.4518302429454154 1.290609969002461
Ni 4.14042976376052 0.14583405582227482 4.322589021492346 0.22462442768574217 -1.6679646093368048 -0.8573361489029944
Ni 3.1884885299896717 7.074049900318849 10.319571747450123 -0.46506499646813454 0.11380653900021044 0.053440893427959574
Ni 2.0704665899391737 4.747978437812993 3.83714765582727 2.6461932575525138 -1.7373568838876983 2.3391798859458937
Ni 8.99054573836834 1.1170617204183453 13.313491812403514 1.9275763517310094 -0.3623648517937308 -0.7582589456931585
Ni 7.2419578206557995 1.2915326953284578 11.68113801503705 -2.0307171834872575 0.030674803376037493 0.38121438040006606
P 2.002859669819049 0.7909478270374677 2.307713554742405 0.15518818727079078 0.48582896848836327 0.4751336935580463
P 3.8739361870156372 9.26641777093794 9.239203468509 -0.1531469884710459 -0.10542602824599906 0.2024077823793869
P 5.693160844075969 6.462753572944769 5.908743203023277 -0.5567523349718024 -0.6527454999396758 -0.1315677196383734
P 0.1990488684849467 4.881933737758673 4.6599626553753035 -1.2295472973631858 -0.9305444547658684 0.731560867576682
P 8.476464656859216 7.702881889130595 2.880138699803623 0.14467083267923472 -1.4078455882888787 1.2823934946299398
P 8.54078072717206 5.808750778241636 8.064416699913075 -0.3337237910182704 -0.1932507984704672 -0.2607671961548864
P 7.451938276914169 8.21464166298529 11.372500118961355 0.1457884912234457 2.124939115487321 0.019920135962694725
P 1.8335626938977212 8.284588535801245 6.120191024039906 -1.1471910064524564 0.1550999984323587 -0.6911343841305194
Ni 0.5138918343389032 1.5636384295350496 8.288185164287503 0.5946138859042662 0.36583326995830545 -1.0252451261745632
Ni 4.935724682200638 7.538870782446459 8.580913246535701 -0.2495780123072863 -0.8016203433979291 -0.7413817103218457
Ni 3.1148312939349134 0.7759133979037495 6.391961147501279 -0.3766301034634933 -0.9894286306965864 -0.11964320028664556
Ni 7.97030771794553 0.7704056526738859 6.597679347295373 0.37719728882087294 0.4441362167352673 -1.0601342247422643
Ni 8.680506667431358 3.0967362812552164 9.554895715998772 -1.7309597221121027 0.32960796907768397 0.11724898902285613
Ni 0.9740822204345676 9.227486924492593 4.273892834613212 1.4009087519597294 0.06540243666520995 0.5620009849652515
Ni 9.308686079794068 3.7075851276356717 7.133933112038599 -0.992841255922561 1.4538873610392895 -0.27399115104432814
Ni 4.018789513660218 1.83263044182767 8.276669986718229 -0.0834055581108499 0.4226315098942722 0.33999342607706606
Ni 5.7173341402524 3.0302760311812547 9.553148675619497 0.6145167954757803 -0.11549009735022046 0.41140195972703986
Ni 5.412133457558984 2.0814391968036783 4.323735691538509 1.0208626808361516 -0.021324215399072952 0.573020990224839
Ni 7.035184311518408 7.86396572431477 4.443451773366225 -0.5032001127769592 -2.5027347000138254 0.08358502111150766
Ni 6.008728169788355 5.607440266234745 3.2183578863141173 -0.8927464100814883 2.032084239038113 0.4634986804222792
Ni 3.565789587780859 5.64618466226608 7.147291351950364 2.2263382819621143 -0.863421692975442 -0.6328575027664971
Ni 7.540744609107262 6.433499502986558 12.535675688024792 1.100502344146666 -1.2845195398340072 -0.7178586874992411
Ni 1.1850695089285923 7.861523223891235 2.2532178277354826 0.8278399392160903 -1.3896064395730328 0.6412125595994118
Ni 2.251631134712255 6.731354039367968 -0.03211049030084914 1.890391515150596 -1.5382861363013443 0.6545105622598986
Ni 9.174851972617494 5.205229433131786 10.427062275631187 1.3133804299297576 0.30552547420718346 -0.23362226030897829
Ni 0.6503399763199009 7.462043889353526 10.333938684101685 -0.724548697924907 0.13219763991288846 -0.20789528785651937
Ni 0.4929888784242115 2.0813739391587744 3.5637666007888478 0.25638449370615846 1.4331305881079124 0.0722189453664111
Ni 7.459032715167259 7.260146058542502 9.418737504411562 1.5016222052214074 -0.09434894449623106 -0.7109861287491239
Ni 4.307097788844302 5.618655258637464 12.143507074220423 -1.4980013206393685 1.3049945198589072 -0.9144298085921929
Ni 2.5787210960104763 7.170519344527764 4.323326432879757 -0.48818898408010764 -0.2861558114313201 -1.8465426362864457
Ni 9.386100291691134 7.898953144503798 -0.052839115078441204 -1.8845769653513478 -1.6818583365997612 -1.8806236371305545
Ni 5.4728137447986285 7.3687534247034865 11.108944068489205 0.4672540336996534 0.5323029436801865 0.24892906586937774
P 6.060896995628429 4.3604319297719405 1.2058065239748146 -0.4024807459780101 0.6981560668639912 3.043599160110778
P 1.4987163953766727 3.4812995826721047 9.311356049722695 0.7572703565276442 -0.22401816156031099 -0.24025802045794106
P 1.051897300721755 -0.12789472923827644 11.977031093063072 -0.13147156038014132 0.7977240936673164 -0.20947523074912958
P 3.7417801335651557 3.510115494157392 5.909220516083142 0.9377420009555723 0.3213678405560788 -0.8439057344297014
P 7.452628143446007 1.7947903303042851 2.1025276708803102 0.3616032910373579 1.0960409659412027 -0.6128468639725253
P 7.762909599921203 3.8162670739622597 11.36913002772812 -0.6516633226190907 -0.5305749052454862 1.6204845614779706
P 1.203686582767518 3.3025588932811565 13.418062527101176 0.35838324143816347 -0.35798420622753185 0.15693859430299423
P 2.6776889757671287 5.602145074476853 2.0781185149301553 0.21284286166978186 0.3908853278309268 -1.9442119034051613
Ni 7.1032946477563605 7.75451933129074 6.9831348139433 0.3685524686616814 -0.5546288608708964 0.35745455897630696
Ni 2.1042047923543326 2.795917183291043 6.954167877622664 0.5120706757937117 1.0702008649496473 0.7731204361860233
Ni 7.792657763476541 5.6217876255928365 5.50097894433902 -1.2919975933786072 -0.6389767282903577 0.8951714745832131
Ni 1.4578278195842198 5.75563105529011 6.225881373473698 -0.29994103814087053 -0.408780977164425 0.23190502050755546
Ni -0.17350050050518911 3.125272517119489 1.588200474824693 1.6451524965382955 -0.40185571079950144 -1.5856101181982885
Ni 6.368819854366395 8.04021730067868 0.05130835717941687 -0.2109785547675334 1.6664507437954397 -0.869463785404464
Ni 6.0117673115367225 4.45932522936299 12.861000896154406 0.5125859248672333 -0.7347012129778766 -2.2206124352219305
Ni 2.764174000305794 2.1356776222392666 4.342210130810717 0.11581765589296827 0.8739465037661658 0.5501944792486266
Ni 6.112375954936666 5.483282935545305 7.904135533761214 -0.23007079551229412 0.40562700491647563 -1.6491112240757275
Ni 6.3619957692136175 -0.11841652244206423 9.485035542625333 -0.10322824926373189 2.357650691056572 0.41134410990591097
Ni 5.6548266389554565 4.261920853529613 5.259512606666736 -0.7470731042796682 0.7553690257398733 0.05282794243430902
Ni 3.2753091652735553 2.5983543246057583 10.541430027333016 1.4940341084615043 -0.23975871222401934 -0.5459791556156984
Ni 6.804088345873375 3.41860563096115 7.088497010648434 -0.3360791786243244 -0.7456929361026899 2.390411944647993
Ni 4.095579116670349 1.5476596290543692 2.3658935419301708 0.4998993305385004 -0.9352251480709893 -0.3287173389426145
Ni 3.499422562913903 2.0289720503011877 0.1239373192009084 -0.715837029083522 -0.68272584835185 0.15156447447527444
Ni 2.424181670358062 3.176350608037603 2.0113151960944147 -1.797400627344156 -0.14826677756060916 -0.49880866857748285
Ni 4.797723408270934 6.396265355308706 1.11116149706699 -0.3219414536713616 -0.884731510196812 -0.05494910254236988
Ni 8.61483883161694 9.26280995542684 1.5849804761747355 0.16085464152794876 1.398780649873133 -0.7104868205152023
Ni 0.10519625583666585 8.684878929639899 7.989713477035718 0.04260395071345566 -1.660678874308669 0.14512488949751778
Ni 6.370414005406182 9.2820516381527 2.345508918166427 -2.2794475030822676 -0.6903180588768112 -0.058445288621086444
Ni 7.64379575293074 4.159652801444978 2.836285562428407 -0.8167322593387032 -1.0801379215577012 1.049037857718787
Ni 2.3720687796421904 7.6430126611918965 7.996930972562056 0.4424994524627927 1.0299960105959873 1.5205637793209168
Ni 6.856574137417268 5.161050007532051 9.953491275574073 0.10625880855993958 -0.9773914970263942 2.092979274751273
Ni 8.118899375391015 0.5497555714737792 3.8090122883531197 -1.1983559593620456 0.7224370508985429 2.054932604391196
P 4.658547496732965 7.511928697621975 3.204754464107928 -0.012279331587985304 -0.01448945186542666 -0.3507954017885765
P 4.248915937152397 7.901088001744216 12.935772173432875 -0.6674648084277214 -0.9774128371826328 -1.3324361610096278
P 6.1930810166410115 0.22644868907582633 5.254560483670623 0.11902587841762081 1.6036865160840252 -0.8507628665608509
P 4.987501962171289 2.387339068549632 12.167548922854978 -0.03740286612849042 0.06064666714777942 -0.8449382894592739
P 4.748985270048649 5.498683739742553 9.820785193402262 -0.9702276322881033 0.0020064889070675125 -0.0834415535551079
P 0.8313702767948948 6.240551292048027 12.088014769750618 -0.02111184227795074 -0.5641655967167382 0.23416167775221608
P 7.375148673904039 1.7575468601057331 8.419458375027645 -0.8773244190994632 -0.8604199300346408 0.6243492081851699
P 0.6594443500360225 1.644250266032391 5.832689146896415 -0.9167841677569823 0.07760026428298249 -0.3675877907555669
