# total energy = -381169.75165131234 ev
CRYSTAL
PRIMVEC
9.23934255415316 0.00000000000000 0.00000000000000

0.00000000000000 9.23934255415316 0.00000000000000

0.00000000000000 0.00000000000000 13.52271175505657

PRIMCOORD
 96 1
Ni 4.245089831049536 3.739134195848704 9.01258964237631 0.08844569163791866 -1.1693886255954182 0.5661458603715604
Ni 8.354084146923888 5.721185669163435 4.637776670680872 1.6160751195563654 -0.30582217951199586 0.35717893671741713
Ni 4.7795950346068725 4.219912622709252 4.498830818341293 -0.2842053725731686 0.27287812048580745 -0.21560679756816417
Ni 0.7331427521182867 3.909054943953715 1.755681114275177 -0.6992145900354926 -1.011837851629722 -0.8382467363717112
Ni 5.055795939606665 4.749382384598532 11.11286959032001 -0.054310697627422584 0.005920993470125286 -2.1840282083399933
Ni 7.913155004309814 1.8611269585412884 5.557252938939282 1.9434071481156787 -0.16871424678168362 1.4706386123556996
Ni 8.088360656330657 3.6124350920063892 11.19929347622613 0.4546504860030299 0.16429863421249125 -1.3278891650688935
Ni 8.68785539510471 1.6682649229834614 1.4745842816792312 -0.14565299408684593 0.02922110164864645 0.15749626657867713
Ni 1.2827995534580932 5.36512912684802 7.811529628171669 0.22320543585102848 -0.7339185691755812 -2.177016810019167
Ni 2.6382572964163664 7.909357634538124 12.089304557285274 0.5385031589536274 1.0089127075631268 -1.0881713333851388
Ni 9.04408748492782 8.61184332427333 5.016398459208939 -0.624367463017615 -0.7304632636371291 0.5865005127685124
Ni 6.101735708473379 0.9828627775496074 2.012882235337003 1.1943604650494075 2.352662493813361 0.34429436744526515
Ni 3.3156212138663497 3.2120019876145043 11.725408432849957 -0.2427314216990981 0.7116764699479291 -0.9134877563938978
Ni 4.390969809943017 6.085908714753414 8.945611800651399 0.3321975841817311 -0.5670285200868299 0.7004420346846905
Ni 5.297894431401325 2.6701330280765414 6.645020135283904 -0.08513771031060821 1.4109545662315055 -0.7199335677503989
Ni 2.3502023149759923 7.032082063195033 8.855943057655699 -0.7387980087550695 0.9162838310817961 -0.03650992200057583
Ni 7.280629616061811 6.703845181177818 0.7226468590267042 0.24292014067113643 -2.6485167634793676 -1.4945604132786194
Ni 3.9936226459495368 8.126223481937439 10.067428745948845 0.8151975678617315 0.7869383159057222 0.49760513518768495
Ni 7.081725050502316 6.993664877037639 6.639718600551554 0.268182514782351 0.21649742770323357 0.16485424960564513
Ni 1.155786311970432 6.735397535850137 3.9263870265685914 0.4434361053444492 0.64941463579423 -0.25718564945121514
Ni 1.1368918565370814 1.860646512730758 3.4537955811063275 -1.188099057520728 1.2137000459182838 -0.44011938226639036
Ni 3.5451541998471434 0.696159511918475 1.8890824371743877 0.8222218216983647 0.09388640303751572 0.58782694488942
Ni 5.649636200764479 1.1708649189470712 9.514309039036217 0.35297029795270823 -1.5070091805649335 0.07355051969364108
Ni 1.0795247788912756 8.073263570668997 10.63853375699182 -2.3373472036125293 0.6024467516851237 -1.8329952366193143
P 1.101098643652583 4.551318599207465 3.642991445556109 0.12683868959382028 -0.3432780103656088 2.031574132170914
Ni 7.554261983843769 6.511537506170603 11.396387130653626 -0.6870938955125586 -0.6351735524941835 0.3184943756630257
P 8.265885383321558 8.42644667746374 11.888086460361224 -0.41444871697316366 1.2589424626958512 -0.6439101610362329
Ni 1.7698976905956152 4.078051757807707 9.593309113235396 2.13074363798424 1.4053978980793345 1.3008522155557596
P 0.6073278533541976 6.7964973078700615 6.274010641049988 -0.3851047165934077 -1.2345460361293576 -1.4123568458956708
P 2.3946712704775646 1.2723960537916128 12.08830393649142 0.6756756263732879 -1.4563887873049048 0.7934169816515303
P 4.038960099647068 4.316362119173186 13.566389928982014 0.6261680065614635 1.0784242813007041 0.26785547046023545
Ni 6.041236493716617 2.2532354153314875 4.503495762374691 -0.8850631825046176 -1.3854687632555753 -2.2174720898207356
Ni 1.6698540898952152 0.747504386116135 0.6602581987266072 -0.6858325123016317 -0.34113653854257375 -0.8788387988614605
Ni 8.106617597130803 1.1089613241287595 10.227618618522119 -0.008860792824739578 -0.36108135709561684 -1.1205582343562766
Ni 0.5987537435047359 6.224582006488942 1.5748681052848963 -0.4823127278049888 1.0201602554524882 0.21985940219693104
Ni 4.32549982891577 0.03639746588466528 13.045252206168428 0.5132513263653741 0.9881903874141111 -0.6368211153999355
Ni 5.051351815859261 6.970409451939476 12.32056991998673 -0.15018559184987681 0.18968519260639588 0.06401378384779943
Ni 8.87229115029324 4.731735240404057 13.088037753464643 0.6157375552567589 0.6188791862095341 0.18338419008903256
Ni 0.3747717545040676 3.398026909714786 5.811236920939058 0.06686513725366548 1.7299047984850273 -0.0516712031220465
Ni 1.1444126813403808 2.225378797663247 10.658276384067605 -0.5567927012914347 -0.9344211641124552 -0.8732214526746831
Ni 3.1268060103279884 7.619066732210282 0.5653442809878679 0.2335502694204623 -0.8385187590861752 3.088169233411669
Ni 5.785639322514561 8.203104050964779 1.3130454650994703 -0.9981199878229972 0.06318537440923312 -0.5570662666677955
Ni 5.5172271832508635 3.498495520170655 1.9730311032220267 -1.4654863787307988 -0.04898414320818661 1.0775899583248667
Ni 4.476165787229532 7.994026969301558 5.518456015804719 -1.516407333950382 1.0342774115801607 0.5726939459027233
Ni 3.010815304454991 3.1266951382178667 1.5440502783421384 -0.14032695388824218 -1.974712900207496 -0.0958260432623898
Ni 8.059524668356335 7.377753584528988 2.800066825731676 -0.3352615678190355 0.0985113034040368 1.2329761205390766
Ni 6.40899004364994 4.772342150736368 12.724331035550787 0.6942999263426946 -0.5854034230495918 2.2981854458114035
Ni 7.03616585258454 4.047155396453611 5.421755209224508 -0.11252124452988363 0.7145779598654404 1.5602423288574612
Ni 9.065744503771718 7.603479961395581 8.001361159386152 0.5068292248891143 0.6922602702048465 1.209489350271046
Ni 2.104149384586968 5.365822077536285 -0.036172949861667525 0.23677314723313417 -0.44493274449463366 -1.0733244981802934
Ni 7.4493215316129655 0.11080466292202501 7.714179295812991 1.0040993453348834 0.36827556085121094 0.6599286479516764
Ni 0.3136682867471388 7.075553169705505 12.838760292539561 1.1181146579117904 -0.6263194445376632 -0.21438835178003074
Ni 3.467950253831948 1.35059784879791 5.93670072468776 1.9891941245428064 -3.303053808101828 0.8925391791666887
Ni 3.5293364454696885 1.4819628206078737 9.841247793430751 -1.4941924884162396 0.5864650315448868 1.6983316516644362
Ni 2.372090317382646 2.342783122940305 7.825918056262796 -0.9191603812986429 2.4438032157849396 0.445537210847852
Ni 2.9270606646000656 5.231010830970018 2.195560667580092 -0.8586664376786437 1.3896360072593872 1.232205303811323
P 4.145905489202584 1.9702805509567412 3.695838636845927 -1.183950325459677 -0.4841811484722951 -1.3656177899679192
Ni 4.918721054125401 8.935460535035448 3.5807330599854055 0.2269816150640091 0.4742903717211444 -0.6780161015810064
P 5.475474594447288 0.8342996935911653 7.431608788086669 -0.7152963260887036 -1.2739430498697415 -0.33670369958220076
Ni 3.0495466282577315 5.846055383188731 11.150530998260068 -0.2698629878085675 0.17772544914135843 -0.7204621865603593
P 0.7662122068307794 0.7121518898693728 8.598240240295569 -0.39465225107252677 0.1585164803130754 0.08656955766112834
P 6.673105888646397 5.4076208630524105 2.848383043454494 -0.8204593304813032 0.8938807807962477 1.104621251411046
P 8.24846922268984 0.8736907064491339 3.7112951329312334 -0.338583690213733 0.6765356603807382 -1.6982478337013787
Ni 5.071262598968732 7.975150992553227 7.729162737561775 0.14620552415620627 0.20246486086956747 0.6838663897141964
Ni 6.153623856010638 2.3483267284464224 11.461877438234396 -0.3062790645437564 0.0072268567657423925 -0.41493259858811765
Ni 6.164369211349996 8.932134371731777 11.214466324496374 -0.11842861115325409 -1.2512744046276323 -1.0336572614976585
Ni 3.077652708173747 0.2781374711899299 7.977358271478914 0.3369294424397617 -2.424467234460489 0.5971981016916748
Ni 4.940710689299666 6.107177681211884 1.1912755504863448 0.31610402105397817 -1.807657529185474 -0.20566665563631675
Ni 0.7979160867202653 8.828986351947952 2.749342835350701 -1.100662266763298 -0.18393594882744452 -2.0927764147118473
Ni 2.400251833353723 0.08756217290337649 4.1507154909133925 2.0696426569078614 -0.038509726039424 0.9987419376777122
Ni 9.169003395665666 1.1177202208284251 12.328588745351327 0.25809890529410395 -0.16180389281509552 1.1151033818892924
Ni 7.508887572776198 4.328114562846156 1.3340150768606105 1.2846529800880777 -0.6867205713335398 -1.5128077895245817
Ni 6.8486903537101576 7.147915700245358 9.175497729516083 -0.15977143576609903 -0.514898375050494 -0.09394142464516725
Ni 9.200879127325841 3.14952555356056 8.651817339643692 -0.20223783246042587 -1.4448599607296988 -0.49563567016614
Ni 1.3055190966906647 2.9599804419638938 13.145779948416363 0.005554611269642047 0.04682544499397097 -0.01155967981314138
Ni 2.6318359533717803 2.954538469225388 5.011489596533272 -1.694187804699392 3.189910613717229 -1.7674035667614338
Ni 8.97292606891429 5.694890500379418 9.545736662584648 -0.05672187817207651 -0.3453122671868182 1.67749646008664
Ni 4.846256890817934 2.370491911128382 -0.17290043606454886 0.69191934192566 -0.675709822045333 1.278836630516617
Ni 4.45623652543504 6.401071927118703 3.6411796104898593 -1.9024715862435815 0.23477848540060856 -0.9814186159079163
Ni 8.504556079044935 8.497608093477268 0.8813491974558353 0.9574289378615382 1.8344702785029439 -0.5772828508249864
Ni 1.0067002812259125 1.1309971560155765 6.283869019508367 -0.25394503102673033 0.32512010850965944 0.25541904446909564
Ni 6.832429110892212 2.6549989850448408 8.347664651747804 1.0166033913391652 1.6583898211641763 0.4475015336630745
Ni 6.911896695822407 0.5662534322908712 -0.41316769017368826 -0.6921551120855499 -0.37429117091767156 1.6877502766041643
Ni 2.104149384586968 8.336242976536699 6.1925639889541095 0.21591147329277652 -1.2689957331667951 0.42817506542032063
Ni 5.88565520518743 4.929872940535207 7.462643739578416 0.09899929878404885 -0.0934500868310455 -0.19487959232314178
Ni 3.660803050047264 4.257045540257729 6.776285322194757 -0.578483556001307 -0.2032945558597144 1.0568601819766832
Ni 6.384145451640023 6.925829624327782 4.42866078377911 0.9293586619878833 0.7791645854975743 0.4880532298331917
Ni 2.527126484703731 5.738675744535236 5.558145459425767 -0.2955444517350716 0.4191031850260395 -0.6318331752670409
P 7.498003627299187 2.550298755719302 13.276530503949399 0.43003757255035613 1.8742375310985528 -0.12911000212650023
Ni 8.192275541542829 4.9216961224136835 7.488336503230769 0.048855845160438435 0.1367621193551193 -1.062120401934358
P 4.714272883059788 6.0618309881718435 6.060987436200663 0.17799361520108056 -0.9116550740605333 -0.253332337143396
Ni 7.914965915441812 3.3061970845059503 3.305396957444567 0.8644478202471112 -0.6062897795802977 1.0247908122459641
P 6.613863224471021 4.737814727775767 9.505505793492501 0.7518026485448537 0.20175575061768478 0.6067047556305293
P 2.9170544566615235 7.742809246449335 2.7089105485918332 -0.040316697341175725 -0.08958134790425863 0.3282889931559443
P 1.0131216242704986 5.207238002691285 11.466583035374837 -0.5971435943046555 -0.17815610892087383 -0.5687125926574721
Ni 6.539578910689047 9.276669453936979 5.528165640848684 -0.4845873827717783 -1.0323223447363188 -0.3925269771994079
