# total energy = -340864.6298151158 ev
CRYSTAL
PRIMVEC
9.28640768011389 0.00000000000000 0.00000000000000

0.00000000000000 9.28640768011389 0.00000000000000

0.00000000000000 0.00000000000000 13.59159632432358

PRIMCOORD
 96 1
Ni 3.67487290665475 3.1542861868684366 8.806117319520169 -0.18378528218219317 -0.2598122884407848 0.7980663074980836
Ni 8.556375175863854 0.4323742060075772 4.2172687545278675 0.017686618646485665 0.8233052845705304 0.10448886114371038
Ni 4.91309462762993 4.54859384562646 7.636016969630175 0.747330728816429 0.9861440464080435 1.1174500277445982
Ni 3.732755084796138 3.9431386474133614 11.539836038916077 -1.1960697344310303 -0.773311726261223 0.2657697915758004
Ni 6.082216190166146 7.467265300615656 9.13470756360085 2.652490660525451 0.3048212490513073 3.1301322081070153
Ni 8.72457058906726 0.3252304218359269 6.76804431692022 -0.15987042323780853 -0.24708969866779382 -0.05676995780119255
Ni 1.3281420050988875 7.76005644366392 3.349132661045365 -0.37288811992255777 0.6826232613357146 -0.42701318390173554
Ni 0.9062670114459795 7.5819431472172925 0.5505901738785661 -0.6397809693592078 -1.255431107108483 -0.022638563335122302
Ni 0.7894922940238184 0.4031554533517029 2.1072957416183247 -2.117535366824082 0.6793307066273719 -0.21617783958028577
Ni 3.608874408331174 8.144225836818276 11.279081144568623 0.587993038153639 1.012236115509405 0.06626478466550524
Ni 5.30317017597407 2.6014477737265898 12.22944651945757 0.7380387619915418 -2.6898230784273225 0.12631444165923406
Ni 2.222320899861625 5.240124755245386 10.26085348936461 -1.238279535029861 -0.6183662511288577 -0.4544810503047012
Ni 8.855053901286842 8.808659009261433 10.17954820550751 -1.6990957835239704 -1.41423503675499 -1.8582149304180513
Ni 4.031935276225805 8.618547674284615 4.145735557315752 0.25850436826263873 -0.622951813617011 -0.15058848371525033
Ni 3.062462189200853 2.8612071651867077 6.497747638834555 1.4945190185177228 0.29582161665585827 -0.0922529811991508
Ni 5.606714978943357 3.6135361849117897 5.64108304457523 -0.5006282382847249 -0.38908992649340085 0.6639634801426824
Ni 3.613926214028096 4.958087272118143 5.780056919200501 0.5562969926019388 0.587817174697407 -1.5406656922771145
Ni 5.564471111084352 7.787209899284877 1.8791333517827975 0.06590483022292522 0.24636516179694345 -0.028525875353834742
Ni 6.822584316991163 1.7764247558480035 6.328940251374849 -0.05059931021410641 -1.3205844038773644 0.0587147402323892
Ni 6.293806985762413 0.9394408450693522 8.495903018662041 -0.7490924487025422 -0.6726275835755835 0.6374762324854312
Ni 1.7893607215388352 5.165239164914541 12.683758934616634 1.5806712861357743 0.28579302877526264 -0.18552334791922243
Ni 6.758387381728622 0.6633745219846107 13.71106591046381 -0.28750332659815003 1.3076376139087094 -0.7452933866714261
Ni 6.1256022861514765 3.1241703672450574 0.7173564089629342 0.8977106960652991 0.9469781748418593 1.3948574035593266
Ni 6.309315286339361 4.6241666301146065 11.633455099159423 0.5878765671804327 1.2337654492095913 0.19004077617360174
P 6.427429103727508 8.840214222052133 4.71342943658511 0.3731920243162218 -0.5807001040366515 -0.588267117750632
P 1.25935758451598 8.805594494776166 5.42842895531665 -2.159961397198777 -0.17277144757019278 -0.6543742937923503
P 4.4261432759212855 1.3003292145432228 7.207229174211111 1.4738532626382554 0.7933305925853111 -0.3186645826923028
P 6.2649355447482025 5.19601431947263 9.43288017981339 -0.2676132725424423 -0.5563083054558484 -0.6811186517657302
P 0.05189244528382452 5.357504946438575 11.022417841379378 0.7754583402905807 1.0672646651394586 -0.6634096645217413
P 7.761161526160122 1.272247118169156 2.1442918605815007 1.0465683131323718 -0.49425524487884553 -0.39893982270428713
P 5.537354801093519 4.514958477548791 3.755290409951875 0.15249521381965994 3.1123280900460593 -0.6697091243772079
P 1.3782886057668637 4.104907866605241 7.537342389126893 -0.06141079900731359 -1.4927994647234548 0.1535336823865033
Ni 5.170885300693453 5.374629081925936 1.7619871780593919 1.2259104719415468 0.4660006209085265 -0.745633286509348
Ni 3.2926257998593336 7.111187290242898 0.37221407209880836 0.2997278936888 0.2705124484671083 0.3186360434472125
Ni 3.1219416294375915 4.534060617840277 1.9485186029329677 -1.7691035801716757 0.21254255682054365 0.4191931736366845
Ni 8.775980141159467 5.297199015931568 12.959070272769097 -1.2025358017713483 -0.9923612309623491 2.3596592368461686
Ni 5.731301422380684 6.998162424181799 12.062120313999078 0.08118489631044727 1.2135635203404198 1.2659749440626005
Ni 5.2901413462079265 1.2916371370941067 4.6348970740168 -0.5411632222842939 -0.28494610739393506 0.3404973622966781
Ni 1.418424459116307 7.402706195459401 11.58587061832928 -1.0899345959331488 -0.11417574941417112 -0.0655811283349193
Ni 4.397290407722138 7.574950482346369 7.885028273013789 -1.1723122270001165 0.8528755420284795 1.2254466449312509
Ni 3.5247952745445335 6.384553760156389 3.437124158324861 0.8706560059403521 -0.2701825759315153 -0.2885214834500192
Ni 2.037688545328161 4.2632411150106115 4.193102736209669 -0.7380431328669161 0.17788408620640975 -0.2852268718591475
Ni 1.2251557455789135 2.6401442339087113 2.2974284353324634 0.06173090135089369 1.5755882151859124 -1.027756065521875
Ni 3.2422470390030793 0.3490899887055994 8.716004806760568 -1.3502983860020292 -0.9936269850486499 0.24546553280080952
Ni 3.0371938743087115 -0.2192028638495155 6.453425472970089 0.8309550878063044 0.4014993559013473 -0.8128789470308839
Ni 1.557089096370793 7.647421606719126 7.678055607882742 -1.3313555263509393 1.5433077578856518 -0.4602215523329042
Ni 3.246509500059858 1.2007974986248207 2.549117010007297 -0.23063978064188667 -0.9203040079847828 0.10164162150290239
Ni 5.5289506022778685 1.3184005635987566 2.0376383987274926 -0.7559408390829433 -1.1745691413550932 0.26015578782313253
Ni 0.2728253668563852 6.246177001535367 9.184602502624733 0.6391320229212993 2.009580658618958 -1.0239755154335202
Ni 7.954068069803802 6.99238627869745 11.574765932203581 0.6647471523862423 0.7979495794145612 -0.467079455795002
Ni 8.365316627318865 3.8895282167362826 1.3572985388243033 -0.07434730456332357 -1.3653383110542872 -0.15056045869079232
Ni 6.618645521200528 8.403056587525283 6.835525854526513 -2.0252882991622023 0.6502332750407833 0.6348511361577583
Ni 2.045321972318731 0.10102125568639167 13.259526416593538 -0.4293642006324154 -0.7639775933444907 0.23317128881448873
Ni 2.7277800617797654 5.673066360753114 7.916751569780803 0.5887764532868828 -0.41503749959709807 -0.05608398747776148
Ni 7.243806476194633 3.704115803970205 7.643859340790193 -0.5675106019295709 -0.21970565022788613 -1.2190042317400167
Ni 1.0811235647714479 0.713729138181284 11.168595182326529 1.957950850257809 1.5564396672819196 0.25553268722882444
P 8.249143669104718 7.67757457197263 8.268324743860221 -0.26664730908474726 0.42285879541372984 -0.9058055572582916
P 2.0408273510736747 2.224930380377866 9.7341925304122 -0.19400773124114976 -0.010768294260097584 1.6945372176190108
P 4.037256387741128 7.018629666380358 6.043203992127966 0.16417470704011727 -0.2901644183700809 -3.4967442652128744
P 2.727705770519517 7.341675925164968 9.505771978447308 -0.3356639454637767 -0.30004722470143164 0.3002706535661474
P 2.5042098004683706 8.653483139416638 1.7346953549662223 2.047410070761906 -1.4807103947694047 -0.04150069034694788
P 4.194568131318077 5.547077669778589 12.887048610520845 0.22497589748788996 -0.7419818057996899 -0.20543525635180102
P 1.1577642861256718 4.608936921763591 1.0568730401447157 -0.7960963282559064 -0.011742999468541068 0.46075634179045166
P 7.004328598782453 5.988767071180619 0.43908735001181426 -0.5637403362538614 0.9917559932781822 0.5722828265072337
Ni 8.04272540250328 8.425668989863528 1.075014965897486 -0.010235818795395276 -1.3967227389028398 1.1436539398334757
Ni 4.256536328773152 1.3859220327574338 10.343476514450371 0.8617918706815029 0.2974388405443071 2.174171627260888
Ni 1.929659766518796 6.5747022407633295 5.192139101609898 0.033802550371741784 0.07364693606218929 2.0754070701954648
Ni 3.908565352175051 2.7683802355057647 0.7967505501501314 -0.3465924194508225 -0.5390580030158328 -0.1664344496085714
Ni 4.1096439344461055 3.0131885108408007 3.7604007200162433 -1.183452559887652 0.35075015037293783 -0.3578857329764546
Ni 8.870701497976755 1.610922400828619 0.11159011609754425 0.35649939415188925 -0.3037737816233994 1.5744733848551788
Ni 6.015511924870206 6.5939529635753145 4.765852135738961 -2.3082613419901663 0.7472517959493775 0.46940527571470125
Ni 6.713441169278065 2.853954480904913 3.2959215458921234 1.0908751054695471 0.06645581763038877 0.29780188031068067
Ni 7.97183296741081 1.2804841616492477 11.522764835951644 -1.2723433094827894 0.6767146091607635 -1.6855812939773034
Ni 8.720753875571976 6.054830574356912 2.1113046837495033 0.6168909521349117 -0.10659613729470029 -1.717723683037803
Ni 8.915099812382978 3.6350806503839572 3.7942431749818555 0.9854472774513352 0.9137019292872329 -1.3950101270871074
Ni 0.8129451162436285 1.1710438488951544 8.355501823199237 0.27781798098958604 -0.2329483741704053 1.174032809235649
Ni 4.374362267527835 5.949996319738248 10.58312340447962 0.6695988240515888 0.3085148958528106 -1.978318101060251
Ni 0.09813225430346437 5.506579646535433 6.654336899905583 -0.18206367150539612 -0.4093250225933531 0.7483653407285306
Ni 7.508534095683894 4.968311606809891 5.108659869749767 1.1628711361918749 -0.4852939219204998 0.15947473046128663
Ni 8.408879165047287 7.457347417372433 5.912371510985216 1.4699734679678749 -0.6655534503376216 -1.4593185593571898
Ni 1.0971890498002626 2.001759434590309 6.103265690116906 -0.9121356132413776 -1.3183812255784586 -0.008795743914759046
Ni 6.289683820818602 2.9131831881383117 9.87304382445806 -0.06245929487648597 0.5258713291222298 0.12577553843662856
Ni 4.879979298374004 8.978785995231307 -0.33985744233817305 -1.7417398434467422 0.3488999845380766 -0.10526224897462517
Ni 0.5422314784598169 3.3911638701719076 11.26088164308916 0.5471055559106578 -2.247138506536917 0.24758823557076717
Ni 7.744548143086972 7.5559133469076 3.504823926508135 0.09885094613164266 0.7701960634503768 -0.5454158269130607
Ni 1.4760373314392936 2.6763705096875587 13.412866363669432 1.7891597274916025 0.7671318227027563 -0.2655075390533492
Ni 8.839090566740868 4.1093746286277035 9.141259124114045 0.46305002292063474 -1.2025031487612001 0.06422255742449585
Ni 6.7657143572706655 6.015233332644273 7.259678803946802 0.5957035194240193 0.3210618792798858 0.40265969475803554
P 8.496728580291556 2.7771373178075978 5.5753408510995115 -1.3445177747645103 0.02648647632630277 1.2251198577194513
P 8.18824340851572 1.8873880394371982 9.243902715196121 0.29442113676390586 -0.03699508916711048 0.019768440876178857
P 2.0198400700533736 2.0172027303145392 4.167414675697121 0.811379222556906 0.8462847761848392 -0.05916931127130455
P -0.3991279384054619 8.918535783169487 12.613001152433366 0.8882220398485736 -1.4056629788152628 0.03281164721338221
P 0.1355249028682188 6.104345699312773 4.10763899906014 -1.0895931534333299 -1.8464858149065815 1.2134869014662133
P 7.517151881872761 3.0123341613479386 12.706593282094872 0.009457031647841776 1.0583007710779517 -0.1483415966626026
P 6.103333480891882 9.19033035878992 10.996335108546758 -0.9472126594501686 -0.4283601848479333 0.14166547019400763
P 3.292987969753047 1.605248405827113 12.740314085121828 1.8318739785306775 0.9277329534590023 -1.7876281213384246
