# total energy = -340859.41453788383 ev
CRYSTAL
PRIMVEC
9.36121326575538 0.00000000000000 0.00000000000000

0.00000000000000 9.36121326575538 0.00000000000000

0.00000000000000 0.00000000000000 13.70108186037131

PRIMCOORD
 96 1
Ni 6.580661319803409 7.711449053757801 0.29981250742274684 0.5619570191011934 -0.36776313999116667 2.0433155889775585
Ni 6.057584816552698 0.4743785366891462 3.228864934820827 -1.5507171629758454 3.89059433209908 0.4541884587649468
Ni 9.093641526178844 4.9278736221024655 3.3732064154170125 -1.404583629708155 -1.0163635074142174 -0.31425848320480715
Ni 5.670395682365956 0.0402635135768139 6.519234911817466 0.8323841069433471 0.29105479139483426 3.8385603463209756
Ni 1.3057113615604332 2.4566631484883565 3.753520674718072 -1.734685764813438 -2.462386892324398 -1.9704476971732392
Ni 4.048172345370017 2.783247789197549 7.769499808307227 0.45146746028935797 -0.5584623756843737 0.42496761422661644
Ni 7.066143191326309 8.892057163722004 10.851722276356897 0.35118440969687903 0.19276588841424866 0.19484436820983217
Ni 4.478703896115465 8.386130402833185 3.7491639661508107 -0.357038811595127 -1.961757111377776 0.25847094392154196
Ni 0.9153188202578396 0.8099256028007799 7.627542628682425 2.196524283924475 0.7945690929781025 1.5128394140934656
Ni 0.6785690608673554 9.091216971991217 12.610544434610855 -0.854427717006948 -0.8569756802397822 1.3644615648762888
Ni 4.437158832468049 -0.08538549674195785 1.3670113931698007 1.3227927243825928 3.4057904624411215 -1.6346649667434106
Ni 4.061764826761645 2.6462089909247863 11.55658792088625 -1.585780839448198 -0.3244140835815703 -2.864273970582467
Ni 2.8315797323276994 1.919629076535912 5.46658054283224 -0.9406517184031993 0.28297844214460294 2.853046477297764
Ni 2.518456516027021 8.19311155034421 7.774240326610754 0.6574660453437968 -0.5456328280198731 0.46095894471956095
Ni 0.8617811065341046 8.086880504316523 10.161955332403682 0.27577446819699597 -1.0982094343474311 0.39249021042420146
Ni 4.234357512310858 4.3193105210085365 2.131243978807579 0.6268215809850624 1.2425323967689441 0.2610307342289182
Ni 4.541161909782783 7.5859619924253066 12.86167114504904 -1.4881611946204951 0.4916496889351984 1.3871332954421918
Ni 6.025260547788722 4.600015856414442 9.290224192487235 -1.5935849088736491 1.727567151490786 0.16083818646771655
Ni 2.7392500877232693 0.4985950588048514 3.673259506015906 0.14160530638003355 -0.6385111015078487 -0.5972050436702102
Ni 2.7201812966800545 6.12075428241407 5.5580770394725825 1.615313558799992 -1.0317939830366745 0.04243682900797208
Ni 4.986493538407133 2.2451278165278667 13.3959445952643 0.7525097019142072 0.36242732960055 2.524354078055814
Ni 1.3039420922883824 4.132938129806103 5.073702599457004 2.1374809567080737 0.7204367326390624 1.5893850118596886
Ni -0.06930106042853067 2.494744563296308 6.606825910360986 -1.7869231248516 2.5364979125071994 -0.05183241129025911
Ni 0.18353500751799667 0.5805580960448951 5.447919900679297 -0.7461112545870312 -0.6256841249465095 -1.1298933957142734
P 3.8848098159173237 9.094942734796913 5.62681455487372 -1.9844843777719632 0.4685735238420252 0.6074372629211796
P 7.975257399554967 -0.1564698682621588 12.805921376674588 -1.2060307022984842 1.2317383914772335 1.0314540831987526
P 2.6650624740671693 0.17279863223696443 -0.28127730552507146 0.8183787938031907 0.9745031197350056 1.4891279294091386
P 0.8118268651772537 9.000759570002716 3.5541427501841025 -1.6950699501940292 -0.4189067527445173 -1.3967859880406073
P 2.407778893786508 1.664124126740381 9.116439824512984 1.5095396602962712 0.06114314716822373 -0.593313679035604
P 5.957569616009889 5.3611386470671665 6.990990436601699 0.5200089568041818 -0.8844054943159607 0.7149425422937106
P 8.693112663353622 4.4118086674484 5.458880945074242 -2.7177221188304355 -0.4179428461693512 1.7374481580499237
P 6.025129490805607 1.4829284863709848 10.946232147487573 -0.4262017437440337 0.5812626614083408 1.695837681597989
Ni 9.269576164797485 0.8129155742584151 10.732112184595795 -1.3380164833108827 1.3225060463801093 0.1562531382001954
Ni 8.675232746371522 9.034385047384761 8.761992469193569 -2.0937629469948322 -0.16374404726060188 -0.5570598389098922
Ni 7.625485034047521 7.244361965936381 7.133344531661078 -0.020478065348693765 0.2339927562745196 0.6929236148204583
Ni 4.532259396144052 0.7593947107182234 9.5897567996389 -0.5426027829442978 0.2988976844780207 -0.8065992846697593
Ni 0.7416336811422338 2.012763785465191 12.965415852882778 2.1044978169138338 1.1068781657660227 0.6198070973404423
Ni 2.4981520448572945 8.344313864006459 1.7342002956119054 -2.2146893848692764 -0.7680301661473096 -0.31159122078528917
Ni 1.3743384146472302 5.282832099656027 9.825606946452432 -1.3114107077978963 1.169007845217232 1.8685031997179369
Ni 6.873966848014502 8.45940997882056 5.00651249257793 0.8029645161306493 -0.3242952986155189 -0.8539993712202776
Ni 8.513901600157109 7.009067875179781 12.656580072172572 1.6806869419994797 0.18117175581874603 0.08946384848978786
Ni 9.524472635742839 4.502940076778637 0.060960219574576764 0.316541622812029 0.23839242800411206 -0.8925039550533791
Ni 8.456161637881927 6.206371937240402 1.3059313500678047 -1.8184417642851716 -0.45835056056243645 1.1499204895684776
Ni 6.507044740145167 5.930141261686561 2.822682835416815 -0.7898009821654978 -0.1609484867933357 -0.5175494395200958
Ni 3.0414581295730945 5.507388879010288 8.255230688098045 0.4100673000760164 1.5155879233728802 -2.0711290116454006
Ni 0.9723304801554268 0.9024228131193358 1.7753999304966825 -1.9413024430678503 -0.9065393501005227 0.18926044636415149
Ni 3.1570878335327337 5.272188400384484 0.2808392007529446 -0.7256172483987374 0.9379381761267781 0.2652180328373884
Ni 4.510494575733902 7.158266889242988 1.7378998470209768 0.27910044724643546 -3.261544376004131 0.7064026231434996
Ni 6.384628156702793 6.498563481095018 12.006969923967063 -0.29372436780719735 -1.6804270034698736 -1.610288080560943
Ni 7.383937652953725 1.4213223430939133 1.1762832295214132 -0.9971146864869344 0.02430463818363556 -0.49134347054868927
Ni 4.710459448327964 7.904636408082208 10.59127835054055 -1.0606145068127926 -0.8107816981822231 -0.22559501912912763
Ni 6.845789596644804 6.1252570259053725 5.135069095679237 0.09821716920238568 -1.420705217860366 0.1275976792470319
Ni 3.4126395893936627 4.061680575843928 9.840021342352452 0.46178478305496595 -1.91157020611074 0.04962537633661131
Ni 8.175035047887436 1.2899189950950907 3.3759192949674905 2.4236840764375613 -0.1475000745979137 0.424946531180694
Ni 6.528875089046874 3.135313651909505 3.0935813640004963 -0.3587200559522919 0.47497942736836907 -0.16775213997873042
Ni 3.680651119863585 2.53075715001366 3.420132304342602 1.2563878145947975 0.6096219292773243 -0.3259482608379096
P 8.804979159655248 5.8386915711116165 10.861504744025114 3.6011503368347917 -2.7993880685423593 3.851069791641897
P 3.0055485161996183 4.090419499998405 6.4683080404216415 -0.08004178384493957 -0.01597477816170152 -0.07173043576576678
P 9.171330233526726 2.8616011426740857 1.3700172786896712 2.4909305082900457 -3.3979246865398 1.0102113717698924
P 0.8900931593721498 6.7952296848017 0.5227947307370133 1.5698245732292577 0.27202194313309924 -1.9333657047192772
P 8.769013379003296 2.144157772250934 9.058716712421345 0.14035472180238406 0.3544677084338411 -0.9469570917959369
P 6.918797697452869 8.274114127122283 2.466783555948749 0.38905547371103966 -2.641088846446413 -1.6871830912467844
P 6.001717096893443 8.401698100184616 9.031601958736186 0.3876814761816485 -0.14960760785921978 -2.998989491821203
P 2.7372187044849885 3.2975153909403234 13.107125896482275 -0.2756489983627253 0.2974398689855716 -0.6125776694715385
Ni 7.959979899809005 2.545051722386261 12.86739833521116 -1.1616933138336898 0.1088283690593287 -0.48649334154523954
Ni 2.3884386275639837 2.392098861878121 1.3083624571045855 2.128192589427612 2.1629168802826753 -0.07875468960239987
Ni 1.3584711584772504 6.321318272645227 2.514449916828937 0.6200788629445901 0.7497336818309668 1.0037216502804907
Ni 4.760635550434803 7.175032821868612 7.05587862118449 0.3982168284953336 0.2570668644851637 0.27079244160137234
Ni 5.735624615104846 0.17679118961542833 12.857657056880495 1.014543423486343 0.9624058222508393 -1.0674816662462714
Ni 6.614333603250852 2.90983011246036 6.651080109073648 0.28167669261404393 0.3287245380314661 -0.09114817817074623
Ni 1.8101964956349903 8.160721753088676 5.243746226684631 0.7493549583353094 0.6255753672827872 0.49990138742102935
Ni 8.386804410174918 7.345163508377881 3.64087064488168 1.8290923020204821 0.14411084641070665 -0.8668782840654748
Ni 0.3983814005447533 5.818227959319536 7.972480863755548 -0.4513677014867001 1.6631566464252001 -1.968496744094455
Ni 2.2283806063284013 0.8334353533289729 11.012723907870905 0.9825038785522952 -0.06231017089313139 0.8963775790761723
Ni 5.146832396035104 1.875453512013119 5.3077441599035495 -0.3164578048489711 0.14196063283692326 -1.4556999887679964
Ni 6.255162579811454 3.5592268250076518 11.64350772045196 -0.9354192663596664 0.49776248670115564 -0.0004663981134572612
Ni 0.2522275890963512 6.3078194033843955 5.390252019744827 -0.32938094066854245 1.186855414921614 1.2033320724203984
Ni 1.4163796225878666 3.464182428610128 8.466898949284266 -0.11941128678149757 -0.7891227251515506 -2.4309168467405744
Ni 2.4850369853327274 7.957096646180477 12.06813234574416 0.6591406048327422 -2.2909326209037317 -1.6420239782116428
Ni 6.39108739372774 2.4133581767819696 9.087256242737226 0.9494623747162939 -0.7987278523414825 -0.6996735319497821
Ni 1.007594169826408 3.2013382877601635 10.676663847282507 0.016304393586978376 -1.9581069162196987 1.369878622126802
Ni 8.116864469810592 3.9300338363050353 10.404806730479471 0.04270448084706194 -0.3865134240154763 -0.6087145869717064
Ni 7.819514897549096 6.870194279143409 9.696323913216148 -3.1335769721225066 2.5178967524662443 -3.928587266403085
Ni 4.011972534391072 5.557864539935675 11.340426277421805 0.9182640947366186 0.9796697515376096 0.8525562110158479
Ni 1.829798875823744 5.012040288901455 12.099767629225475 -0.7904962084603095 0.3077556490892829 -0.12387960696549632
Ni 7.90252077392621 4.393217298272247 7.946736591665247 0.5603323390135769 0.13596019227911424 -0.5615425572715942
Ni 8.664149070085235 8.736464441125408 1.1997602158038274 0.46806161720261324 -0.837628643171738 -0.052037071101897474
Ni 4.91623763424448 4.313703154373836 5.149975891387245 -0.2587414239741092 0.7262821356762459 -0.04967165619351445
P 7.390359445126354 1.208570053433071 5.370933284312387 -0.3533521067721592 0.6317401013326024 0.4445025989357506
P 5.218071227571119 5.871352843546459 0.15502636920527924 0.854070333667529 -1.3881411678814157 -0.2995905967799873
P 7.488727072167148 3.980874584540528 0.9919628162260351 -2.2750578586550043 1.775512054801181 -0.01763828190705349
P 0.5170712850601251 8.178208499121434 7.054878843627586 -1.6083178442084494 -1.8267101749415506 -0.39412157538003734
P 4.237193959873987 6.163609915892634 3.821656264118188 0.631601261761893 -0.6755013055789527 -0.12533073758972607
P 1.887679256295121 4.298107373383165 2.9471710553137123 1.4487125017065694 0.027471723057707523 -0.8444916888401586
P 2.6755470327163597 6.941086745795478 10.022560316798776 1.7417575840585553 0.5409678184440361 -0.21788042409368927
P 5.0835131507644595 2.020758261435198 1.8050356588641883 0.1892265078024225 0.4756777389869743 0.8645218680181563
