# total energy = -340890.13564726495 ev
CRYSTAL
PRIMVEC
9.09953996983307 0.00000000000000 0.00000000000000

0.00000000000000 9.09953996983307 0.00000000000000

0.00000000000000 0.00000000000000 13.31809654144962

PRIMCOORD
 96 1
Ni 6.089302781260997 2.450333153375049 10.915538492977111 0.5033914028521588 -0.31794467380714275 0.9143413626434447
Ni 4.697782969315782 0.5169002633337851 6.008392403997599 -0.17969697104543245 -0.9620404684916206 0.10776033280613055
Ni 2.851176977259112 1.6490549848939953 4.740802863215505 0.24718997169108395 0.17706853228364988 -0.20676168847270845
Ni 3.275315622807682 4.159972873676188 4.743652839053523 -0.12084801922802413 0.8306696953554018 -0.22589121021330774
Ni 4.068567997262137 2.5744508750562507 2.4449889937017817 -1.6356029051766476 -0.8664558518160754 0.1241040642714766
Ni 4.890119940223081 4.631192537698258 2.3674245171907433 1.2466075952795819 1.5135109862391936 1.0992126788009648
Ni 5.083002883513142 4.858508139261168 11.366888402082534 0.7212582000990934 -0.6682140278889201 -0.9891663781741351
Ni 6.006769956066825 8.16663670227284 12.01498673894797 -1.466778358069345 0.19330479163685418 2.8185373877773006
Ni 1.7197220103028084 6.68326613646765 0.36493067049995725 0.8431233477377221 -0.7745911071942788 -1.0345910861658376
Ni 3.1928737930106372 1.6446235090539114 0.16066147316739715 -0.19766126883333698 -0.8462721777793489 0.5220244445723138
Ni 8.272009372145883 0.04537030500751258 6.6003948083961665 -0.08703184200952753 -0.22213122895024323 0.5499540811030463
Ni -0.20266858829709652 2.538889873859027 1.4220797061163397 -0.2910727891169632 0.5705493887558948 -1.1022710060113148
Ni 6.858259384682547 0.7587605691734723 4.719720139655156 0.7166335568428883 -0.05680929567956022 -0.3567994418908113
Ni 1.308686701940524 7.550725257279158 2.546100349127369 -0.9273719705751577 0.822950215223957 1.3137465550199245
Ni 7.97382655530048 3.9660616823985926 3.6167157935645733 0.140520557956287 0.516006263402692 0.4692283838172047
Ni 7.732825246009671 4.009284496033908 12.499526309201487 -0.07513149102751576 -1.24257250597826 0.22527980188155397
Ni 8.321283379690144 7.37680575475036 8.88530105965628 -0.16415028156008504 1.0708850355008654 1.8110387869528812
Ni 7.34061688531296 0.6755452785008484 0.1804575218123718 -1.9872390576989647 0.19688608123020931 0.16232994052189462
Ni 1.9025499622103381 6.502194395724671 9.141487680819637 0.7705251646550214 0.4261030133826404 0.5495753576073891
Ni 0.15901172661748497 5.005383809763828 1.4416573658082095 -0.4329439475638737 -0.8422481442216204 -0.5317015626507617
Ni 6.3332068437201565 2.382978360421658 6.5909522160363005 1.7607436382427548 -0.9997657509565363 1.0105196470389306
Ni 3.752732073374099 4.476991737726876 0.2795360400661422 -0.7691488531327851 -0.8743041442159006 -0.29552851089547166
Ni 6.301522246440541 5.865344909852072 4.78047776631684 -0.46254480114944213 0.8849431119869856 -0.8301739866659058
Ni 5.535996169490677 3.4928674182588675 8.784762975232592 -1.6084237736586946 -0.7484818117017368 0.19532619294225714
P 0.09346228234309316 5.552457236830949 12.616072303887753 1.2720031525345512 1.5572490505570922 -1.0203805989934103
P 4.059859737757084 6.2796378534315025 12.512351200472564 -0.7446732365889239 1.6250616393256916 0.6718079158877656
P 2.6807789965991278 8.457130408061012 1.341745329716756 0.991613554163047 2.5339180675951654 -1.331830409104829
P 6.617813147314214 7.9158533877908805 5.748969076558434 -0.7787336686077427 -0.13006259584775662 0.2758271758118024
P 5.151595213867461 1.1357863478595478 12.344516560149646 -0.34111314150380606 0.4558033686605505 1.9424046749930934
P 4.185078503743522 6.24242983554628 8.213163558777836 0.09181589366173219 -0.07631111315791374 0.26945983883287783
P 4.92613591840594 1.2113944233323561 3.828033494358589 0.3373909554572125 -0.025666551528168702 0.1240780961295476
P 0.4555566263146025 5.830712061705543 3.4099123744220265 -0.5307535969151956 -1.2744924946153082 1.3730829879967128
Ni 0.846329079644651 0.05020580041084034 4.5856338722186925 0.004966599976655962 0.14100829622598296 -0.05185837943218811
Ni 2.126771720270931 6.548793138593399 4.760647139420957 -0.7079609687695548 0.20365425319197827 -0.2937053416438039
Ni 6.326900862699256 5.92931467403234 8.888137386184727 -0.9848584948274007 0.6909271532157197 0.7719775808308318
Ni 8.676875192582958 2.438804036559061 9.900593122548223 -0.8155297543901696 -0.20293074476239245 2.138673434354278
Ni 2.626982517817657 5.186391853728818 7.153735088463423 -1.1632241486559192 -0.8302734883582475 -0.9312103704846414
Ni 0.6066189950390743 9.442046387484027 9.021398325369248 0.25393346106250464 -0.22186563399368242 -0.22560118977671467
Ni 1.632330030902056 1.221613206429716 11.411850137756945 -0.620814455559034 -0.3417101516578567 -0.47862885119549825
Ni 4.192631121705062 6.875075334071614 1.4228522570379478 0.5087331267800465 0.4459799548122255 0.0030264455311496265
Ni 5.519325812737016 8.137809360463013 7.881063117607322 1.4311138147881999 -0.4931368150036862 0.22838235206627763
Ni 5.498478767255223 3.367439362859037 4.47610544255886 0.18163249750524849 -0.40386271392720124 -0.24808163026741795
Ni 0.8820984603012958 7.434587831925993 7.108666888174372 1.040326703098034 0.7217284548672924 -1.0358516980458161
Ni 5.312775360798482 4.8101440856881785 6.736665875317649 -0.09914199500950022 0.5203174891835362 0.5650508275351688
Ni 0.6678652669833313 7.44260452641288 11.259691274497094 0.37448297521350343 -0.12270924080647899 -0.17989417465790308
Ni 4.282261587875138 0.4780634278399899 10.511560787615995 0.2329370613164956 0.17126838066210506 -1.1577422996057416
Ni 8.506550008240676 7.268120852421894 4.731386659520806 -0.15683832127970407 -0.04745330838595698 -0.7318938254360686
Ni 7.807441471653796 6.3336709202455035 6.891035926727686 -2.151052267634605 -0.6186634706543022 -1.0266247801309094
Ni 2.4236533029374185 5.299399037420816 2.3334632150750116 0.34943297422341113 -0.6597905797119153 1.0356472953444937
Ni 2.360584393188708 5.385080303355581 11.428671546869838 -0.47960998416184497 -0.139112878975483 0.24964280410695072
Ni 1.1705738881811927 3.1486682290863506 3.6449898833598686 0.7007017161039804 0.7899174531387042 -0.25338581608915073
Ni 1.4743074242513414 1.0567659449944777 2.4002538365662156 1.287146435933893 -0.30722703027932247 -0.037975965023141045
Ni 1.001850222828345 3.0885748688236916 8.227573589866864 -0.09386300599874801 2.3679587578507992 -0.9225691498698756
Ni 4.102236294199119 2.825925754556375 6.707672011931078 -2.3623025880062865 -0.05107316452673139 0.24973510671044086
Ni 4.062425807956065 6.840187698813129 6.012227859986502 1.3442557793523753 1.1198601798479875 0.46009479694705274
Ni 0.5317771008100752 0.3936588273269163 0.3282686249974967 2.1814730460183074 0.8272426719517236 -0.8723971570011749
P 0.22919556646755396 5.528907628054486 8.144361939010127 1.1642484761553755 -0.14850589015460874 -0.6084299658517521
P 8.327771351505298 1.909938788457049 7.718396105887246 0.04169892240068303 -0.921300053349465 0.20817682365268017
P 1.7063001892265788 3.1352373084704075 10.419771910626066 0.7034296565581046 1.377464919114492 -0.7050466233362374
P 4.17680702214468 6.262130339024272 3.8516067619383048 0.07396472441292423 -0.8866402971837504 -1.0264574013151095
P 6.927261194323936 4.316712445227412 10.31602441854571 0.9555998550725994 0.7060071874772937 0.20513520861287896
P 6.4138651637335125 7.983035289489731 10.066336688645162 0.6844081211502794 -0.23102287501291824 -2.898776375234711
P 2.5549050637533757 8.52602302322585 5.851052262825337 -0.26979562490574177 0.5149289711781133 -0.1670152618127059
P 7.072762834329979 4.122409973742171 1.7109091060910604 -1.0804814209400488 -0.5042745767880606 -1.7841969841696885
Ni 5.6268186753631175 2.688386211798943 0.6001028146508113 -0.10329612638718984 0.5800681268796074 -1.6832639586980365
Ni 1.45666341674842 1.2470464199267073 6.760038953023685 0.1805066114309214 -1.1333289037583836 0.23519860365716266
Ni 6.741503190628919 1.0084837872789019 9.057410663736222 0.15802874204337947 -0.6285663315903111 -0.28917814319741164
Ni 2.845535262637239 1.903523612959597 8.847411486246576 -0.1684288543307809 -0.4774983371354809 1.1861833285552539
Ni 6.615583760084602 1.9083736676264649 2.5300924388647905 0.14347655526081743 0.1344344996632072 0.24357551486694826
Ni 4.061643247540773 7.013078953354393 10.428002444296203 0.4220758945011182 0.3795141098795077 -0.7945377255195348
Ni 8.550983060657781 7.570271068582033 0.13286237934510453 -1.7226362898480723 -1.6679808072867208 -0.35005055320275197
Ni 7.662094523822869 4.026482626090908 8.22846625471268 1.6961624119272594 0.21920557066301605 -1.2210058355510778
Ni 2.790619540471106 8.431779090421436 12.299248169986917 1.0179313661219693 -0.6131160584735118 0.6487381785524957
Ni 0.10452914254167656 5.052892506603825 10.284100503371652 -0.14206244852211017 -1.0541882915714749 0.25441811400840697
Ni 8.700097217929764 2.42716572526652 5.474989215440865 0.05281637247008324 0.10174215163650864 0.5179664724528563
Ni 3.6993905715782627 2.941881189115286 11.483341581463728 -0.44831734469615053 -0.5485723702641714 -0.3067950849482265
Ni 1.424687634197999 3.4247391644298966 12.639459030903359 -1.2476645757891869 0.25163026685062473 0.3978936408279599
Ni 3.270219880568571 8.677084481996351 7.9722259462650165 -1.3343955987288436 -0.2960944107012707 0.420983689878204
Ni 5.813914311395903 7.882448977505566 3.4378934590385732 1.1335497615199381 0.14762914397661026 0.07151163488674137
Ni 3.687752260285722 8.572949349524235 3.745581655067861 -2.507440590129927 -0.5594674199101203 0.025290399135672575
Ni 3.3525161177302123 4.331735785293077 9.34749216037541 -0.11345892585280459 0.4019855515091464 0.2709605917481204
Ni 7.400173372732569 6.360532761477389 11.347470894289607 -0.013183331459493424 -0.805007257592291 -0.048076543792252686
Ni 8.320109539067206 -0.4379599364181869 2.3276567987843393 -0.7827037089990843 0.725520317809557 1.0078953220422062
Ni 4.957656723970727 0.22939939615711838 1.4306833209146956 -0.4654192944837597 0.142014111782678 -0.25537045061934727
Ni 5.959679838053614 5.549709175837714 0.2444281959466105 1.0651568747678366 0.9403208174263419 0.09884837502848139
Ni 8.076878842546787 9.20327446542283 11.010096359901612 0.3434554164837375 0.0015470327721457226 -0.014800298237626124
Ni 9.470709937579027 5.015902877671707 5.747531349283827 -0.1427417339773219 -0.7632396867372018 -0.45683206703538093
Ni 7.255772777031763 6.195376115691919 2.433522663709811 0.599610053567277 -0.38786093918230624 0.36924101008827376
P 8.576461771853335 1.6255963715146597 3.3539229065697955 0.5991827362218712 -0.9763527713492347 1.0245774106835772
P 2.1984669936672794 3.266024992761017 1.3854285800615342 -0.7695815697948294 -0.3461165082556684 1.1197984733721167
P 4.7744556909349765 1.4245056434037449 8.312143802002709 1.0064953563708858 -0.653271804756791 -1.1702252625641008
P 8.625881372032998 1.856624585280351 12.17883942069261 0.4818882386730604 0.1945690030612585 0.6938445839728309
P 6.498836665570686 7.7704700418011035 1.2022866940339165 0.22553048443977933 0.11949844717866517 -0.3712953215141412
P 1.7251999332098529 3.2647510572012393 6.102897493591768 1.150189169848832 0.3545718381118732 -1.23212714227522
P 7.158607891979572 4.177080008336061 5.748862611943796 1.1036159500749831 0.35378328077230686 0.05167660243868519
P 2.3494010588818024 8.54477717457372 10.058399160153774 -0.7892528229715118 -0.05062784945919668 0.47221266325650935
