# total energy = -340869.9313110734 ev
CRYSTAL
PRIMVEC
9.15798091898810 0.00000000000000 0.00000000000000

0.00000000000000 9.15798091898810 0.00000000000000

0.00000000000000 0.00000000000000 13.40363077783679

PRIMCOORD
 96 1
Ni 0.6054167227699625 2.1853140546205307 9.79352380225321 0.7178314338057316 -0.03688427462085906 0.20498299930573083
Ni 5.486720409892541 0.8942255585146045 13.389838208606028 0.8444001575676168 -0.344834041998819 -0.3632074022996841
Ni 7.3063745997346405 3.737628463541672 4.317014541159205 -0.28471470810941935 -1.2052575715778855 0.0674876013290128
Ni 2.922082782863609 1.7727012213308029 4.812439333306012 0.9581874132941175 0.28528292190806354 0.5918088123553032
Ni 0.9775961542117827 2.281417907079579 3.7482178369548986 -0.5035312708641327 1.8229049422628476 -0.39549634424037694
Ni 7.755133983973088 0.8778391831377248 7.756788831137119 0.0980202227002312 0.316871495347622 0.2192305103636805
Ni 8.708241697030354 2.3165112902149962 5.916911987683426 -2.511953904619248 -0.8445647081699389 -2.9317464024028284
Ni 6.192535162405528 6.881783127316226 12.142925981176676 0.29721001236295264 -0.1490252529931885 -1.57814260617665
Ni 2.892127027060908 4.68977458859549 9.234404336556002 1.8972666450038747 -1.1291061239262876 1.173628888929011
Ni 4.73475859119496 7.497117027695099 10.338796400700746 0.5257728558711525 -1.294860259638383 0.1906519273950394
Ni 3.729212279016242 4.7645220293969714 1.4051429070941321 0.22079939751269714 0.5307456264953956 -1.0458368342829858
Ni 0.7665468192146659 0.14425193748891685 4.341892196505594 -0.29949700862491646 -1.040824725780375 2.059982765220594
Ni 3.1121749941741164 1.588891384976167 12.676403100115229 0.04970842296872084 -0.688994197859065 -1.2304482119109001
Ni 4.737515143471516 3.0194412787176343 10.141240434887274 -0.030303536079547812 0.8579143900039676 1.0151286065658516
Ni 0.8064838584931739 2.1529772237616687 7.597070895360339 2.0197727686606117 -0.5938320134329192 0.7729304316624044
Ni 3.129419472369312 4.2974649991500256 6.5727653749314685 -1.812706918683923 -1.9378250260422112 0.5056539736340904
Ni 3.086853176749943 1.9282861602889472 8.600399144544433 0.5948460565197304 1.615395319880521 -0.3782049041497809
Ni 5.390992034653888 0.8706144519384735 9.227367343966947 1.4335980146626344 0.2742773148261793 -0.692667275835278
Ni 8.168479455741634 4.947764070930522 2.396032786504081 -1.051597648026163 0.2978728427579322 -0.11520341934773708
Ni 3.0839317808156537 3.545842025748897 3.2256643577355324 -1.2083678350720932 -0.2663416049188703 0.6507570087547373
Ni 1.0055005222737914 5.000907834587836 4.322724542303499 -0.16221346954868837 1.1229730144453562 -1.4755067390812782
Ni 8.522746792174436 7.330267772125117 4.050966035557165 1.6912179234377904 -0.7065206367786026 0.07169803986593459
Ni 5.870989292032969 2.7485207272314502 7.905675622802663 1.1084449960325105 1.2041679380581325 1.7261345328093174
Ni 5.627029836567315 4.176826915631535 12.804917047281021 -0.7840545666000238 -0.4926611609188484 -0.6562493993278763
P 1.2173887283291556 3.569808461987255 5.786119534848508 0.6496843445158489 -0.7477914705029315 0.664782633609868
P 6.485984347115388 4.4396518119267725 6.725218284392662 -0.9702829110060709 0.9216916323609288 -1.1419647250565108
P 5.213675206817784 4.561846752212753 2.9651509358409687 0.6379968808755916 0.6965938645831938 0.933215059619496
P 5.096150836834273 7.85784074072249 0.46449462716727674 -0.6762659516591192 0.3086357377013911 -0.9943564070155069
P 4.572305166497889 5.238667336926488 10.761882301045189 0.5307178585812536 0.11703841567394682 0.19247689641892013
P 2.4765744818749202 2.6110869065860403 10.861631945734457 -0.3420649638941141 -0.7216842318929184 -1.389980792193316
P 4.332054693331255 2.7575779704258467 0.6365007418300445 -0.05661466317025089 0.06375924463483212 0.3873140655399007
P 8.163305196484977 6.803280914310799 10.708106636699892 -1.1165077184359866 -0.329782032761703 0.4166097291802244
Ni 6.66163442241218 8.12921003327695 8.749421474328559 -0.6703375019898262 -1.2035853260817853 0.020445412338545434
Ni 6.817063675693576 6.876553920173658 6.557792991818709 1.2131392883188077 0.1535082284652066 -0.6990814068917379
Ni 3.12308214952753 7.489332743857649 1.5861055271604587 -0.9452321386850301 -1.3725276297138749 -0.007156151428807031
Ni 0.6378542914196621 4.756325636415187 10.298264092658197 -0.6092051534548798 -0.33516360878859053 3.6463464737554556
Ni 4.299324069290028 7.994615186736963 8.001485504072084 -0.7690578360808754 0.41613690330886394 -0.5098692972670187
Ni 8.476572252046884 0.09846203256274574 2.2955862194618346 2.486794117524169 1.010566698226782 0.8836647594951942
Ni 7.519114498021632 8.398271514623131 0.43124840879658094 -0.7251647342423512 -0.19458442968022618 -1.8426836675516716
Ni 1.3244546840275289 6.456971863354167 8.949617686060073 -0.4887140033456422 2.519652044594454 -0.7327867695639831
Ni 6.828795049335661 4.90720337314692 10.634816230673161 -0.9136556494303297 1.668066939242624 -0.6217364531526711
Ni 5.085188733594948 2.3610923416511165 3.271411220151073 0.3790654523778633 -1.055828398278059 0.049365952027637564
Ni 3.1200233838784617 8.991781946314191 6.151127351380792 -0.06635554460709864 0.7842476564474364 1.77315846696734
Ni 7.772955414970354 5.322536126789262 8.34818376922059 -0.17211890158785842 0.561080272923195 0.718448241454124
Ni 5.348883638083781 7.725892550687235 4.66046904944274 -0.5429329125902068 1.6124030700214167 1.3523346997057677
Ni 6.524072390032978 6.001453889148617 0.7294753121864379 0.37332957833535063 -1.5747060696912751 1.04921629227818
Ni 5.163782526410228 7.0922976362238055 2.453963426822377 0.9519447748185152 -0.805641034521548 0.4538652710975732
Ni 0.06817658944457616 6.490590811550962 0.8684449262430716 0.8314492538339036 0.6811217370895238 1.5823831266205588
Ni 7.518198699923109 2.9378436681391977 11.508961084281442 0.7429667954207785 -1.1383870350075815 -0.12341295174172293
Ni 1.8303140797089117 9.149198481469382 8.548004503731711 -0.490403218122607 -0.7564272918010585 -1.3691553708075324
Ni 7.130367363179424 8.907555995192991 11.410832402226559 0.9755670422231457 -1.3459424230261787 1.081625304736505
Ni 2.190076204732853 2.2048846599859764 1.302100052442572 -0.520926840632761 1.0746655855892202 0.7697512626034743
Ni 8.519898660088026 4.86515908244371 6.153646711949829 0.4695677694344945 0.5716580484390413 -0.8044824954370725
Ni 2.4349331423350598 6.249223064704128 11.100458352857887 -0.23730639402878484 0.9208904766158721 -1.3371006563648327
Ni 3.953674392964333 0.653749799015733 1.732580106634492 0.41044550935104146 -0.056689996492876565 -0.9676513869204947
Ni 3.5100434780776166 0.19462358030200064 10.188542322474106 -1.2543669275100269 1.7124578066531735 0.7537638860362824
P 0.6907810109276261 0.7687337450739399 0.553476317814108 -0.41786365619198357 -0.37064920328971 -0.43308175869331866
P 1.8162382629346066 5.875247753191103 13.103389384561282 -1.0404375176442855 0.13482633578498715 1.3620493558903706
P 7.751214368111407 1.094873258708692 10.076246243835065 0.9692405857844858 1.2507200747860587 -2.457402037515297
P 5.939719939327153 8.933985928316378 6.715648194263093 -0.12555622333697083 -0.15906952460306797 0.27726210848611604
P 7.432956212912548 7.2544763214913175 2.1820840347270387 0.02753111554073323 -0.3547078494691052 1.898219238725131
P 7.745563893843518 1.635304032609334 3.808186128042409 0.28840989757281943 1.007107278923272 -0.7566532917689356
P 5.190899308107506 0.4944302354118104 11.338828692528255 -0.6819977119365738 0.29987830322373515 0.36424407109431467
P 0.9038597545110708 9.4875767208928 6.523279308879656 0.32181084163076834 -0.4955572515197207 -0.5628615331933339
Ni 1.7887734779598892 0.0790864921922857 2.311040312374417 -1.4057000027007855 0.48858133442251983 -1.07750074104517
Ni 7.456043482976324 9.142586419198043 5.068315153629653 0.4923742258060488 -1.2273780576260087 0.45497058834660997
Ni 5.381852369630624 5.9518176322086465 8.297035529619958 -0.44950647990824516 -1.5109830776110171 1.3324631575928212
Ni 8.858240267587504 8.253300675626873 9.298701605255232 0.775663257212535 0.46835755117647726 0.2846373179042646
Ni 2.9819393465831 8.310913534004982 4.040095512127692 -1.8578765732420262 -3.160652231072744 -0.3452366767538764
Ni 4.77891837550576 3.69804766972349 5.06119757080793 0.7461575344439343 1.3986505520531718 0.7790393727736197
Ni 0.8310061841773355 3.4381075374386016 12.788967507597137 -1.7733212177974491 -0.6855383780999807 0.601587489008622
Ni 0.32663770780034895 7.9682951493853995 12.34655368838336 -0.37276470697081615 -0.3331938866567294 -0.6673331679458636
Ni 6.258179570107687 1.8357813943570964 5.782742071461154 -0.5440490284725211 0.19151478961596693 -0.186944139526149
Ni 4.534189649637345 5.973302255600006 6.049822681520229 0.7094267546818039 0.9004093259433847 -0.5122784209291436
Ni 8.671023662306363 5.477415901211544 12.348014386350503 -0.6117384613996948 -0.4706226930615701 -0.1362854368290169
Ni 7.800621675526746 1.6822386851586593 13.490486251229951 1.5196294404321053 -2.6025567518094856 -1.971871831214275
Ni 8.910239283621666 2.737842521402667 1.8006440529129497 -0.6498059576953776 -1.2791235656294164 0.3550570052784079
Ni 2.8807619726582323 4.160946976603139 12.260180190721123 1.7478454421238478 -1.0817078371479822 -0.24885013300232625
Ni 6.2994637483891225 0.23356789444170917 2.5334739335342786 -1.513985868993083 0.16743229474546648 0.38011549090893243
Ni 3.4493993279933957 5.818147741748168 3.814566493394822 -0.24043876901017947 0.5262603370305323 0.10960921308941121
Ni 6.455012055423326 2.602505878402876 1.5026808993754674 -1.3183897102188906 1.2389549638303305 1.0606358469690313
Ni 0.878766886611529 4.33675273757668 8.242951241315462 -0.4479193379267834 -0.971270985950953 -3.924153656111764
Ni 0.4679133014690647 1.1174110499133536 11.801052140411192 0.3151231451979476 -0.3584115235729376 0.5652508593611169
Ni 1.1473942796590104 4.394319806049863 1.9161967095903396 2.508412981345525 2.0440712361966606 -0.3192680206042566
Ni 3.9792526338560923 6.105451921216936 12.80675413826666 2.094333731896638 1.1169646034677472 0.9066990156068385
Ni 1.8634568128944742 6.976394228874681 5.833742867567923 -0.8767703463682063 -0.4903078301953233 0.4432923806777333
Ni 6.725291548240544 5.966259768222361 4.065159990286181 -1.2539601789899115 -0.6611679196754161 -0.07717294693757677
Ni 2.6910910284730467 8.129658774345227 12.78845740805626 0.08068815917968684 0.9466819837576793 -0.94688715778995
P 3.006336207927764 6.105690028722552 7.66162275593096 1.1223888598071121 1.764295103039439 -0.35972792839151596
P 1.8136465543157851 8.32023635864795 10.54589589849893 -2.2008846177756998 -1.4343541761023684 1.0634275507815556
P 4.250860033916169 2.2842477232040164 6.722524006386806 -1.9367929852332708 -0.9442687463304964 -0.6695911107421048
P 1.3068530445739086 6.856855103074419 2.9326208715833184 0.6636965996345409 0.012387060810443183 0.27163679187953865
P 7.668343798176023 3.8416264956099924 0.18514598578038172 0.9226462829647141 1.3263225919127222 0.011278658237612834
P 4.438525380265588 0.39570445299668994 3.746019921518443 2.027620803950121 1.2252417280092962 0.965870126650356
P 8.170210314147843 3.516930279778513 9.460537782033898 -0.8107788699687456 0.2668493977932243 -0.4797665643443673
P 9.028661135741729 6.809664027057507 7.200121872747756 0.3042481501566566 0.06370653702002577 0.07080483862770386
