# total energy = -340856.8119007202 ev
CRYSTAL
PRIMVEC
9.44427668673946 0.00000000000000 0.00000000000000

0.00000000000000 9.44427668673946 0.00000000000000

0.00000000000000 0.00000000000000 13.82265357316029

PRIMCOORD
 96 1
Ni 7.212801690162306 6.235366300159991 0.8406841560281565 0.2404544527394633 -2.33793624334678 -1.7511948182120551
Ni 0.401383637491438 8.017699593909708 13.409535233122979 -0.23855312195169237 1.3264370060033994 -0.28683972487222215
Ni 8.80826108602347 6.279820509356 12.613364785232394 -2.2457400835274934 -2.339529298865513 1.0144868592167948
Ni 0.9867852236764274 7.289262552208383 1.6431265479015482 0.01322935420608044 -0.024309009059009748 1.7811317149808037
Ni 1.7051735552471898 4.538343155479224 8.581518175149798 -1.3273764870985334 -1.424245626913457 1.0284865159299963
Ni 7.091744954773643 8.046863519551788 9.679326534926629 0.31921839831324383 0.7023027420425131 0.26874378660245973
Ni 3.603482563661657 4.191039333729912 12.788870607571926 -0.23205543004249068 0.29863723172778245 0.4661700566068552
Ni 5.500847144432274 1.0194718644300678 8.39357140745783 1.1329751199633906 -1.9453115642272434 0.975119927383398
Ni 7.991350062646298 1.723410453049929 0.7249247152938467 0.2153257759926356 -0.10857177296383236 -1.0458882563462117
Ni 0.34215008009682457 8.102877523108518 9.101858140949977 -0.6321831024072919 -1.7485427253011887 -0.9223966288477534
Ni 9.394873428447873 2.6884360638120577 2.574331260309773 -1.196998674003203 -0.03061335401048276 0.1639836740752337
Ni 9.119704990135805 0.964270068647049 8.779734649040986 -0.6210893064869756 0.7037705848372912 0.9991970229372598
Ni 2.7060213065405403 8.293245803279314 6.434003044352693 0.7028791833712734 -0.9357419398064079 0.35744144635018443
Ni 3.5752819542163032 3.85586196292763 7.029703613993863 0.27085337674629484 -1.7498480743761733 -0.5876060871278654
Ni 6.226979782682605 3.0636193896078154 8.99242353214653 0.7105171595325055 0.9146043864968442 0.4578232273040567
Ni 6.431117817900732 0.10677132284779138 2.800193020191732 -1.1671036862159836 1.26902530085315 1.2117274955729456
Ni 3.1725874511552012 6.652302772090346 0.4254901531007033 -0.3854695561319942 -0.18279617879604648 -0.6990071020103767
Ni 1.0868001111601175 4.287446507614096 11.165165269738505 0.4368851915998089 -0.014394063938142954 -1.3340433575957475
Ni 7.573724158535932 5.0489857382323535 7.3350739039286035 0.48055615012519814 0.471776089939723 0.19607669795503652
Ni 8.898444481734682 2.5239923224649368 11.813116298775663 -0.6405286461585097 -1.4972976097041246 0.25131016450704463
Ni 7.946867520620974 8.746939399108303 4.349808953792784 -0.5770794765649288 -2.543185351829704 -0.04344701544004131
Ni 5.269424594583328 6.401859449494267 1.8668047910709267 -0.5920337838819159 0.49995640902868094 -0.9756133220800488
Ni 4.145092928856621 1.0187257665914264 13.008056208439513 0.38643963335474735 0.545036589196771 0.1538933797187672
Ni 3.435412220162153 4.3470210033881385 4.685976084765819 1.5483450631992433 -0.38572795199970344 1.5987029468265048
P 2.4658250238802295 6.245008906403696 9.727360124892828 -1.5061494036677998 0.16959202140094665 0.38854228152004694
P 3.740849564459605 8.433115537333464 12.220082448069899 -0.15294489976256886 0.5697991408534316 0.5485350892683327
P 9.217547694038641 3.71246951376192 4.90918400296856 -0.8598008083934031 -0.449182006689291 -0.825495864463946
P 3.760635323598258 9.316910926448076 8.763631213285704 -0.15508842846813292 -0.47879854400414323 -0.7467051794172882
P 1.6073119627914774 5.403741094091641 13.029233109497556 0.1276789261069285 0.6056873701096085 0.1191094392703626
P 4.603272555993896 6.747614409907666 6.107359521740237 0.2728848053540268 1.2272127356927383 -0.8160033515924785
P 7.154719390065545 1.1321893037235373 9.962359222229033 -0.28248119079321027 -0.4577370953481536 0.5444976859741655
P 4.607201374992311 1.5379909737329045 4.753596159637819 0.10230162368440444 -0.12156072902433258 -0.8392055007405547
Ni 6.3322929092482925 5.6115529528443435 9.912280001986256 -0.7093383087330558 -1.1282692298472892 -0.6707025986387288
Ni 9.343392677581623 5.223298748457705 1.4348878078538259 0.16651826757162935 -1.151283174243959 -0.721873465085589
Ni 2.497557792713582 6.294336362241971 5.1395941263833 1.321513857670169 2.052631981282478 1.568055654254293
Ni 5.984516873677054 7.006274253005239 12.075884402123984 0.3804654180491835 1.5268475554470995 0.3015780595236613
Ni 8.762182461280037 3.952335246746883 9.241826095479087 0.07671349080265498 -0.10362188515772476 0.27468020669155274
Ni 4.146254574858555 7.471933747081804 10.293481220728625 -0.15735537012543868 0.4003801546952395 0.46559001573366915
Ni 8.061776032048176 7.9194224532907 7.137907633577375 0.3847555607841051 -0.7279055302122819 0.3356855427303315
Ni 0.8861422918095772 0.12357457948716641 6.878608412964915 -0.7731633736088168 0.9417783758084748 0.31468811454305806
Ni 5.739031796211186 2.130458767549178 6.471088829071386 1.5559807253676299 1.095333655461533 -0.08949084507298136
Ni 5.3005718182774935 6.934025538250731 8.445060658172876 0.07873643476995473 0.41722396572545567 -3.148414037135339
Ni 7.396870637948625 1.630799878294021 4.4924033615994405 -0.2888233309611542 1.0609315238325792 0.3019824940509315
Ni 3.343141639358031 6.897580075474569 3.1274721426084984 -0.9589543733671292 2.0054337263301205 -0.6775892984562331
Ni 5.5190084880235055 5.424575167914967 3.8731629329353137 -0.86522892138751 1.1456074640154206 0.7719901792363221
Ni 0.17236276714080143 6.606875802421173 4.952836393094941 -0.9610210260881706 0.8945878341656013 0.8078660671973249
Ni 3.6021225878545136 4.742660631949683 2.4694166822097903 -0.4504007095877404 -0.2711703937660814 -2.6348156118431914
Ni 2.1231866746915347 9.123095485377226 0.6997443854535244 2.3359037862977834 -1.181270464634669 0.6646250249860811
Ni 3.1795006615081816 0.42061218432021924 2.642932595503732 1.2460663780641312 -1.033418406013975 1.2382160287817772
Ni 1.8260225165542059 0.23116283224688786 12.445087612078884 -0.09331561813571025 1.0368495431827112 -2.3472269246200868
Ni 0.35214873556226206 0.25449019504997705 2.111340718754727 -1.2921138072414973 -1.793871274034659 3.2282817572962594
Ni 0.907045308850904 6.6730707359786035 11.218271380579822 1.528840417507412 1.126577443967163 -1.88011455870462
Ni 2.6638903893484023 2.055055664464213 1.0692998669195815 1.2742415549467667 1.8358687015123674 0.2051328946200338
Ni 7.578597405178197 4.370272811979721 3.0923073237173964 0.3015009264288227 -0.03787543488953477 0.20129320915896948
Ni 7.215956078492764 6.367416173323065 5.285989855456452 -0.4429337117867339 0.2948841924432535 -0.5924865551486184
Ni 8.327896853532163 2.6806067586445432 6.980467767637044 0.24471245668486888 -0.32098911706042144 -0.8058413234578121
P 6.59709153203089 2.2191121904773556 2.2258752368349635 1.032446529019009 -0.4603578208004523 0.08208992462321991
P 8.154150499893122 3.9609767596881085 -0.07919025793680283 1.9300561807300693 -0.35015236888793894 0.45348089117496093
P 0.6471765983692026 6.754527620260646 7.419281905937179 0.6032967583902449 -0.3306888608466885 -1.6132741597724605
P 8.27478224284205 6.1623337104610885 9.847963535012441 2.6086353539033977 0.11095595692529277 0.24749773273948988
P 5.55669115101311 4.569027609627903 7.578932676991763 -0.5339145111416805 -0.0753387219423154 -0.05103742619278952
P 1.6635998503649234 8.617590589006639 3.797940215530324 0.06827050224162437 -0.4229544404513296 -0.15221522068539592
P 0.9767270692694274 2.1147151587262023 10.331299881298943 0.6071474995949028 0.17526978851201427 -0.3191186395105859
P 4.631048172999518 3.0948516117899274 0.6851794223300732 0.446910694156611 0.06879320751431378 -0.026192599234967796
Ni 1.3059167688097018 3.078711343356535 13.120877534773806 0.6221830537717865 0.2512183761241867 1.149591388363833
Ni 3.8790287730312647 0.9311905459935672 6.737949137400507 -1.612804933445526 -0.5708558642527201 0.7681872605504642
Ni 1.4110410098466193 5.47604647450478 3.397442451168817 -0.7125172206816696 -0.5551528516951665 -1.0734126870187255
Ni 5.544848028359235 3.0755663993025153 11.442516280335509 -0.21503729821793935 -1.9828540412573914 -1.4224677090774276
Ni 5.3903396658254135 7.756348132027161 3.8601694974112286 0.31820718343991006 0.10043063191393671 -0.2050470197744469
Ni 5.103110886501384 3.2756056185463343 3.239905309181169 0.009652692598415634 -1.9041708283228753 0.4822098836785373
Ni 5.886796945367919 0.1290872036443175 0.6384378093806606 0.8536170481801945 0.9386406015104415 -1.889957512936971
Ni 1.950328083037712 0.10785458135528707 9.86497834344404 0.24090388157205606 1.0537535180269013 0.79966244834061
Ni 2.447550348971737 1.0555112233193749 4.891809367604656 0.2615444406405431 -0.3126039783205197 0.616509657536093
Ni 3.394216286337426 2.3839242586055778 8.867840303935731 -0.3404860494427685 -0.7997974312565774 -0.10295159856357754
Ni 3.9632244974804713 4.751018816597753 9.75625016651819 0.8497228553321109 -0.8556042538135523 0.2535809628190923
Ni 6.440713202762245 3.8465876834650254 5.157066037794521 1.1228958813505179 0.5355723584600776 1.2767396387782721
Ni 1.2573070779807543 4.715413894424617 6.2229725761897505 -0.7860129758779754 -1.1722839448653422 0.07956253021567589
Ni 0.18877030859740343 0.7168819694788222 4.530858566401715 0.6542758205412731 1.0212545169579315 -0.009211748406255103
Ni 6.253867637703008 4.344008279204258 13.1907094591877 -2.7496876159934387 0.3273284290148879 3.224978403954639
Ni 3.1588932503193803 2.4514130580350826 11.202057446790207 -1.3206885335553964 -0.48008358136415386 0.12873025018957832
Ni 7.727420313296044 8.292698035245882 1.5043051285320712 1.9167736046885506 1.367600881836219 1.3976506500337478
Ni 9.262530782715205 9.01392909402463 11.127042503466864 -0.7573924839278052 0.8608246216722271 0.880099410741439
Ni 6.785599289743303 1.004106026664632 12.180632760958648 0.32856435830451797 -0.4692219560593016 -0.09987090275572477
Ni 4.780607734679566 0.4504069876283916 10.668586159029942 0.06277836877880155 0.27588913939798937 0.40351947165516955
Ni 7.720478770113747 4.419798597623202 11.51425594858998 0.6241682025226154 0.7805866626560815 -1.2069835531300566
Ni 1.8834059401945176 3.0665187824744344 3.8039392199240574 -0.6145484200446641 -0.8347086413114656 0.8472486827600053
Ni 5.927454555435651 8.608882966130345 5.877834327027785 -0.09213008246804133 0.7809507308637195 1.320931245693822
Ni 3.144547394409302 5.970322126189993 7.640319529414354 0.35131347907557564 2.390768556656463 -0.9306033330282617
P 1.6403008203911498 2.361380770746884 6.833270219494263 0.7698013991151194 -0.16239293254934611 0.046718229992145345
P 4.380255412175212 8.307874987482547 1.2063835394243747 -1.5195978158632217 -0.15668945440666562 1.3630055491560527
P 7.9665305041659265 6.564216005748479 2.8406107456379264 0.5724386353588077 -0.05278680478372844 1.7266364121464004
P 5.175812926524939 5.17825899412251 11.611332721673655 -1.971308502511637 -0.2989015411327626 -0.7337748445088653
P 1.6876638667302153 3.9560374031107743 1.8777384299037754 -0.6204190198928282 -0.5549834159968378 -1.194149377479866
P 0.7597268739697107 1.3632624153442594 0.5584334548148594 -0.9100676749687552 1.0503673751634877 -2.982018154074187
P 7.575093578619514 7.966181065937702 13.301110217470807 0.1100082483000428 1.205875921888175 -1.5936468724598363
P 8.107807435409413 0.4323910858943135 6.351937948668011 -0.2601678720079907 0.8927332974553657 -0.7053415288688368
