# total energy = -340860.65281911806 ev
CRYSTAL
PRIMVEC
9.36966882641217 0.00000000000000 0.00000000000000

0.00000000000000 9.36966882641217 0.00000000000000

0.00000000000000 0.00000000000000 13.71345742809291

PRIMCOORD
 96 1
Ni 4.5971717798093366 8.080664725783677 12.680436588685637 -1.335173614545449 2.64716976253317 -0.5969895852252944
Ni 7.744209288763814 0.028804235831865595 7.632334506298113 0.9613835516339121 -0.5766030511491426 -0.8250523491686244
Ni 5.670804649183532 4.329255470077905 11.033985269218592 0.942848211833886 0.24996984842906625 0.8875512390337941
Ni 6.2910954632298415 6.89665715791902 2.690470413624859 -1.2784337386512434 0.5930539976163142 -1.3107748739861103
Ni 4.390608061395015 8.778105392747683 10.018722625581752 0.26754102454361023 0.7491199595063679 1.5362145984842963
Ni 5.480356761109073 5.628547442885401 6.769620377397524 -0.6255200885648196 0.3325104874364596 -0.23233748005928373
Ni 3.707418660679225 7.307835703636798 7.821497812779783 -0.9411098889865405 -0.550986893242935 0.4986199496054445
Ni 2.492687948812003 5.434436014309265 12.557989071943481 0.42022238623214725 -0.24135202485306825 0.5461349644672723
Ni 6.1903996326121 4.449758780543595 8.623899383600312 0.7997195268307904 -0.2146629455976561 0.9031220968888576
Ni 0.6767721145531309 -0.017191468318361523 11.704216417980877 1.2904503034961454 -0.2716984983554095 0.8408983150619452
Ni 9.342581089739012 7.477670320346314 6.3040218583094205 -1.0318148089722812 -2.9870803990884425 1.571379062200571
Ni 0.41401755536485746 6.823545632255092 12.149410609318327 1.6337635379750637 0.23006231087186185 0.5578579093311553
Ni 7.188456753427377 1.8646577883350373 13.519027568287962 -1.1366494834911844 -1.4323777691022879 3.3684084222482373
Ni 6.499945380831911 7.916629934062751 11.198573808365731 -0.39345617388189663 -0.9147105730574052 -2.1763480660869163
Ni 9.177506264781035 -0.013164384667156059 5.356421340961121 -1.7149777448615495 1.8690770699435357 -0.7839481229291467
Ni 1.8804550499356247 3.2873014509241054 1.3694351873948714 -1.9884716445544852 -0.8012783866774781 2.238656694318151
Ni 8.540827899999597 7.06100114871042 3.6557468111685973 0.8656834924264253 0.40489963983214783 0.06445524226059222
Ni 6.1760734090134655 9.217514750566627 5.696295770126923 0.8613977205668778 -0.511647472213364 1.0251294265323054
Ni 5.620555115397085 6.223334018451997 12.629490888507181 0.6859919206976315 -3.5937995528966753 0.3028142459236075
Ni 2.067454899890856 3.8714721917377557 8.477000779151815 1.475098447899266 0.04957549693528236 0.7160951678409151
Ni 5.771369304438042 3.6079877353497873 0.3798051467003353 -0.08735965766259149 1.1802085990290576 -0.5909549489954403
Ni 4.455642932551406 6.3295579536630635 1.0594546865426362 0.2898342887241718 1.5525585870599585 -1.1277609227523029
Ni 8.812417119901509 3.3775782098337483 4.980000518632156 -0.9778517244922643 -0.5944902158422084 -0.6312145678464356
Ni 7.885831832709767 8.493239352152989 1.5450818096624215 -0.2856719298163661 5.751554429362436 2.9646768345822623
P 6.397150744402468 3.9714746668641303 5.091189441341533 0.019305899417463527 -1.3262138342489997 0.638793665745274
P 7.471804907676107 5.132648351857712 2.532491238850825 0.6150703539864053 1.2933042280051725 -0.5205373185038261
P 1.9341338825036936 1.213156607508445 3.191628699751248 0.4778166397068481 1.9475923898416199 -1.9507874997401504
P 8.463734265094715 3.6116137971762567 8.32155891068943 -0.3623540531604533 0.10538000549941207 -0.10244200591701066
P 1.4103881357957295 4.352295485662629 11.018104617565665 -0.3050534196667714 0.4635752992964855 -1.1919832230664826
P 2.918183348459612 7.41388161514062 11.708837538634144 -2.312535543885488 0.4274392156955606 -1.195715179305089
P 4.3088764404330195 2.259289498948047 11.98966244107443 0.19336906921588634 0.10260424252648781 -0.18276506844779492
P 9.426917478628031 2.581034555948383 0.4801055772946216 -0.1672317486988862 0.21733612155444504 -0.5723149652967497
Ni 5.892022529604566 0.7140362243465447 11.881394044130712 -1.2091239965118272 0.4480538066221187 0.002461317056298987
Ni 1.9990188389592494 2.9096756891871722 12.475886412096918 -3.0718051902313483 -0.4095723627174688 -1.282443888251901
Ni 3.989258298250794 9.209822252479984 6.598038317456389 0.9545323330400335 -0.06707031128593609 1.3621133763590862
Ni 4.986284755497823 0.36539084821495965 0.5292092005865539 0.8177082500987272 0.4895043604574215 -0.842816872240897
Ni 1.39245458970823 9.196451735099178 6.9521330929633605 1.2589779439194768 -1.0572224504121084 1.8040194182122544
Ni 7.91345361633879 4.952666383835363 6.563932723016213 0.7296199418002273 0.21051729886039872 0.8522808458672743
Ni 4.931603368367914 1.8477361664781804 5.159551481889602 1.1481230313484225 1.7165129505591536 0.2563569829023327
Ni 6.454989709918734 2.0726269570696965 7.219133986052811 0.641616994126682 0.2140998740053345 0.08367552394278492
Ni 0.37484484403642615 4.942387857159299 0.5491609733340571 0.2077104255392229 -0.03890104794057171 -0.2645212638806799
Ni 3.0484498538172424 5.423332956778602 6.39348814086767 -0.5516877759647014 -1.014243632857737 0.12354973442990336
Ni 7.381678063467301 2.563447687606567 9.99410756867137 0.46856118254685114 0.6533206557168555 0.48496302094364224
Ni 8.75919740110475 1.9622803675856415 12.14082518179483 2.594482716552099 0.8944093996062079 -2.1070360099546552
Ni 1.438553360215282 6.646252759178988 2.47390738466478 -0.2678914659044935 0.41901165375349775 -0.36337041024010974
Ni 0.14363327487091498 0.31852470183300385 9.565259701526317 -1.8175493343778892 0.2788672481897068 -1.312439920393359
Ni 5.7052944000446 9.320065775607214 3.497438761019604 -0.10675580280101615 0.15250292712914382 -0.8289275158533144
Ni 7.8028540457970745 5.769982593455309 11.866529064575948 -1.0538813018540172 -0.40861976899621233 0.9997688362803298
Ni 2.3642860075460193 7.52036790107815 5.248908139322865 -1.472317028499387 -0.6758933988110488 0.49634580885928714
Ni 3.0210623119082762 0.858000248526179 4.944606594731671 -2.08128486913248 -0.8391988158723352 -2.267639454703746
Ni 2.83792276549957 0.5264863748326211 13.090523567987951 0.18864415293639125 0.2876581070084594 -0.699153397780254
Ni 0.11154497012386204 4.690699813793359 3.263624297860829 -0.8683610392585882 0.33824301904486265 -1.401045791758226
Ni 0.5434782692054947 2.63608136016158 9.746812026039924 -0.5638048709432096 0.5987590184208913 0.5726980596677814
Ni 4.348678793504962 6.359859462569528 10.473392362978915 2.3975878935711417 -0.06813037711933427 0.15389749348382528
Ni 2.766207320487177 1.6775829810293876 10.58294908938294 -0.8175326437528114 -0.6473914347166141 -0.6303511914048756
Ni 0.6529150638488512 0.36997355322613834 0.45985772301296735 -0.062118366597299475 0.6601489914925986 0.33853483925366856
P 6.303032421283904 1.2280075325600055 1.8545254284922883 0.4557588885758602 1.4867540298603235 0.2902883455424549
P 2.5829365987152393 5.262230871392779 1.298384988867438 0.11173268719031725 0.7475297322011126 -0.7302007540043619
P 0.2327481948490796 1.6239697361429342 6.627974409279565 -0.7047766575043023 0.9740187238994192 0.4432990655459527
P 6.925581325511554 7.359200228010711 6.61689383895403 0.29905863553591716 0.14588490759199393 0.44053512964757036
P 7.812101908904891 0.32966055320447357 10.982572959533789 0.8585286265491989 -0.10548156407428284 -0.8891520078620105
P 0.3968551330197829 5.690865110089141 5.158235043422887 0.6607632280378297 -0.17053613048177083 0.28224336375079134
P 3.413520259359165 3.48424251947852 5.199882284281991 -0.8537301767192911 0.13298594014213871 -0.041167732487561365
P 4.1827138500107734 8.06695690032599 4.519407276618213 1.5735133349347545 0.838456281279356 -0.6741391351241035
Ni 6.721912834757127 6.027076935720145 4.746666719482937 0.2186155024875009 0.5248372314307607 0.2408845982983464
Ni 4.373189847091639 5.9184824743021105 4.332643542316798 -0.25142586414930246 -0.0006762001314181902 -0.23907994098943985
Ni 4.300603022880637 3.1200060144599973 7.219120868516489 0.7050936745240889 1.5347459843585698 0.8558983880152035
Ni 2.2561131812240856 8.860549108538649 9.621388702486174 -1.4018289497811536 -1.5106174667414822 -0.26175449976882015
Ni 6.460714577556907 3.3445032789618185 2.679225874095284 -0.2747095172675914 -1.1286181285462755 0.23799287857284818
Ni 1.081269149448026 8.767217837599473 3.508492159305614 -0.3032518476816584 -0.7444652343431759 -0.6512174933309236
Ni 5.81950129307518 7.791601073565576 8.668372516570177 2.2966618100780254 -1.6075822515940055 -1.5679332697438157
Ni 0.8238225076362251 5.778911887823849 8.073852976564444 -1.5029416953637795 -0.6085245824480874 -2.780434410257992
Ni 2.4511240980052382 7.61142234249838 0.23251207919526298 0.3561468959084769 -0.009723140825034867 -0.1589409694450037
Ni 2.3617843059758195 4.5697936075691725 3.4969318619374024 0.8597696980451516 -0.24582394458149276 1.4017944969987923
Ni 8.028588106580791 8.378816956739957 12.790390589046877 0.549201519207738 0.8728524993710388 0.9028966111416127
Ni 8.961104394124355 5.142842551514557 9.985207320276116 1.0404586006902081 -1.0946613119848565 -0.5305522795376668
Ni 6.28211932051729 0.6356411424450301 9.345186794632916 0.16833192374160044 -0.008318547168024382 -0.030036141350774075
Ni 4.384855084750435 4.4946582334439595 2.264489665133294 0.31223502501687517 -1.3979036465848182 0.7667117044462021
Ni 1.102875605706006 3.7245557849185333 6.2501003513193725 1.7810594669819713 1.335301912593197 1.0762676399690174
Ni 2.3341531526779953 6.227503521068996 9.604795956004276 -0.9562323464502758 -0.2726426074362337 1.3653969322063646
Ni 2.4272876605723237 1.8962991598802232 6.939407208796149 -0.7343808535239804 0.8965218179635205 -0.0916523715006744
Ni 7.2006279532014945 2.003759891373186 4.459548210508182 -0.5367103287192628 -2.208362157099668 -0.09590626168102193
Ni 9.338561501822848 2.2969649372018797 2.6875498878591992 -0.1326900061682747 -0.8844815989695347 0.29247249767796724
Ni 3.5148251184490524 9.204987503378025 2.079892198258958 -1.791482204977192 -2.135544144696677 1.2517983954519023
Ni 3.753067687083769 2.0434216994130945 2.29871800223478 1.1264409183892987 0.6869319160133976 1.1826794291670535
Ni 4.853853856646874 2.61559926415987 9.836731800568199 -0.46574376770271403 -1.0832335297638893 -1.1323688538379595
Ni 3.5260499816741433 2.8465334911288345 0.1664896449471146 4.697219070690136 -0.15385532739198018 0.12576936778904146
Ni 8.009024238121702 6.60396744387445 0.8181501101433452 -0.7184096749067047 -5.992857346145124 -1.233272825843889
P 8.292681591440905 0.30315282319603853 3.50459718798452 -0.9553681986777676 -0.3677477133721989 -1.3934278702016518
P 3.4683421915211086 0.926916036500461 8.488341826270053 0.8085129567527043 0.15041442003123126 1.4115716309902142
P 7.32686550097416 3.674503014176934 12.351601503302641 -0.7318724852798298 0.9613380431079573 -0.44082540719447955
P 0.4897544622271749 7.736563639021181 8.625614032991125 0.5955225137614647 1.255550920515799 -0.627412677601842
P 7.184868170276117 6.302863767245462 9.78542911600838 -1.5541768393896718 0.0745823033922651 0.2962219374180705
P 6.201165382065882 7.687569640854236 0.34153098661003944 -0.6032533067468191 0.5229448995040543 1.072691749692301
P 0.4203908040841455 7.614945337968024 0.6714529535740956 0.3208880727061828 0.038433621385849936 -0.22400787714766582
P 3.9784550701218038 5.039972957734695 8.549737518063653 0.35818989448043476 0.2661148336200449 -0.3437325814045242
