# total energy = -340869.35414918605 ev
CRYSTAL
PRIMVEC
9.22111893123769 0.00000000000000 0.00000000000000
0.00000000000000 9.22111893123769 0.00000000000000
0.00000000000000 0.00000000000000 13.49603964085131
PRIMCOORD
 96 1
Ni 7.759359304943401 1.6748871171912 5.623313898059845 1.567838138926848 -1.525937127817688 0.9059035162887366
Ni 6.699151960660464 6.9477256576044795 2.5110996564396166 1.0130537263146941 -0.29193385156567786 -1.623347227737746
Ni 6.7163954526397385 8.541070422082992 5.260553243961949 0.8865323108509764 -1.3348028614695915 0.3349936588696295
Ni 2.565693289735497 6.070566740744314 8.19439047689561 0.6358489812946533 -0.9564722303752237 0.6640598965112307
Ni 1.3799772987520749 4.065056412367609 0.3411472739640864 -3.627204353609366 -2.217478260468323 -1.285205253047122
Ni 0.2296242980042242 5.379858844109248 6.4087558798276785 0.8061889366052182 0.7061431988345257 -0.510089897918257
Ni 3.0936299989811737 4.485437993032398 10.079638053003386 -0.002903289689724032 -0.6655254253131635 -0.28747761556653717
Ni 7.258818539371748 4.325147286574787 2.763799804004341 -2.4923736684944755 1.5682045211273314 -0.35706606528863666
Ni 1.0559287452035868 2.1512962151105737 5.364028027515656 2.200298920475559 -1.7909502437331222 1.1469449518799215
Ni 7.778391693951541 2.788042125081086 0.9897321782405829 -0.2622358102806129 -0.5866910315127638 -3.0603864068714457
Ni 8.243458815863157 9.093692066103277 1.9083667649261915 -1.087263991079521 -0.966260420110239 -0.7430691253265976
Ni 7.814888881787889 3.76065806278053 11.717760569915779 -0.3917517895962802 0.8081853982099565 0.5500044747250076
Ni 3.550186028327618 3.1919179032630396 12.27964113922825 -0.30432039815548884 2.053558092641173 0.9657117466956205
Ni 3.0394928110612156 8.279218314203064 3.326449414616852 2.375724003618515 -0.989999672708708 2.563079776760786
Ni 4.360777689252818 1.0838410715251188 0.12574101889186418 -0.3851049737037239 -0.6686197479677711 1.5217390305759406
Ni 6.575579748888132 7.757828599238288 11.26033959963476 -0.21608990785216978 -1.7902730151604394 -1.0321683356569578
Ni 8.544260929155094 1.322492844742022 8.064558047634117 -0.9986869160700607 1.6316223232623448 1.3153380678767603
Ni 4.445860951548416 3.8610391610085433 3.719684021812665 -0.30472020469706873 0.03127207064040421 0.6460344064680875
Ni 1.4823132741456528 6.158609982144376 1.3644498569638925 -0.34114887983774794 0.6320303788795115 0.4211623815479134
Ni 4.354737856500718 8.516035084797574 5.357981739980462 -0.5337589594004227 0.2913427549488983 0.36217638993200857
Ni 1.9253603645885475 8.7849321273685 5.521809667573502 -0.5509768659406059 1.3819435237111362 -0.641211016937515
Ni 4.528869462135277 3.062702366842945 6.195194770608425 -0.020634902641532202 -0.4961815153672809 -0.29268898456414755
Ni 0.6396726930476361 7.558827636455011 8.179328701602055 -0.03578847045351901 -0.8769456956038059 0.40800296134781994
Ni 5.928801261766042 2.6007796464099036 12.794447897549174 0.48353451602723174 1.113882622108314 0.560132307187629
P 6.582606241341719 0.9301987916541692 1.060637970526483 -0.7947045901147023 0.15657992541199486 -0.42478737989501036
P 1.2705133985991495 6.127359610851455 10.092365041040708 0.404652042597716 1.2303703074851131 -0.599184278883768
P 2.0119374481144354 3.3326045113527694 3.4902238597213984 -0.1363574277175329 -0.7147126856710917 -1.0192354296453736
P 6.000901188924304 4.579926796407601 6.617067406167893 0.6589207755124523 1.3528013549295412 -2.091662098601746
P 7.242036103327748 3.7052944660727407 9.527502361938877 0.47231165072821885 0.8258200805725843 0.6510370018890013
P 7.9659492484213 7.000101611851688 6.576782182767329 -0.1882415181813339 0.979376388666907 0.25570058026525644
P 5.7542823691458524 1.2353440518563936 5.110329232795126 -1.493223439634751 0.7539852580184692 -0.5484044772277393
P 2.2612027289613628 6.868211951007001 6.248072353713213 -0.3689998406117451 -1.2765606899982467 -0.9793154535219843
Ni 2.3265527972272024 8.112961543943 10.083727619149272 -0.05558673612636878 -0.3471200098195183 0.42034091408788254
Ni 2.5895114393517895 8.637219026825184 12.717547455992833 0.08150474154371125 -1.393259720054904 1.0055263075893972
Ni 1.9618667735436002 1.5485393486885144 -0.02251336131946484 -0.6442045523482002 0.6439631257613555 0.6863071379452051
Ni 5.0782544934899345 2.623371387238365 10.547560033266222 0.8972638383358676 -0.48664143708732965 -0.2150018169943136
Ni 0.849068622947617 1.3851964519393847 2.1462347430531277 0.8967820136034426 1.619429637850895 0.5157573806166795
Ni 4.119746867409897 8.055984251461748 1.2466288569281776 0.7514185257325575 -0.5489729481366997 -0.40806929580938106
Ni 4.2712406266224665 5.914112019668189 5.626094065349551 0.31711934969236993 -0.10237232902133982 -1.4491544743399947
Ni 6.695242206329334 2.7376579324742636 7.632455502982774 -0.42109193332129413 0.04015574628327923 0.07139490680321899
Ni 8.510935806153435 7.646852435617662 4.094576901791379 1.3398658778147956 -0.07073541884234913 0.40153458001465686
Ni 8.024567900032128 5.967410085785947 0.743220323439116 2.162806065736423 0.06619356510793761 0.5661139786923605
Ni 7.441175382891607 8.15495451852782 8.494636556729604 0.46309013212995087 0.29321323249873377 0.6111998152874054
Ni 1.5077082350605848 0.6735058996899659 8.671488392382283 0.5326143042730181 0.5344428728413246 -0.2874935564061371
Ni 7.831901845799526 1.8677283726792069 3.0741549962751695 -0.6882148964908793 0.03220486686731872 1.420367374904973
Ni 5.811222777152282 0.5338631222376983 11.834312744017618 -0.4409241375558729 1.2624175657286452 0.16499128940414165
Ni 8.303783374434502 6.171980604267343 11.073811122012533 0.07332580527734468 0.27173603646156425 -0.40708687729145376
Ni 0.8869932399595748 4.573850079180679 11.399361795798146 0.5398352475014897 -1.2795753084548545 0.8155258977354278
Ni 5.2871589377629125 2.603887163413655 1.7807750675101346 1.2597513317503917 -2.796206585490584 0.23523331354984003
Ni 5.328229800477185 7.03611930151535 7.217020130391612 1.246521463323679 0.17955838858503914 0.7747566862378656
Ni 6.686113298810895 3.3901903976685825 4.746691650308339 -2.825934708682636 0.6187017800914054 1.2531199424768031
Ni 4.218292963015516 1.9264761199519123 8.548984908267919 -0.5410344100159135 -0.3834214153537139 -1.8370706922402684
Ni 0.941328681931701 0.8256128632964507 11.310787417960649 -0.41945208372502596 -1.4813469999121394 0.9014940743671314
Ni 6.670787799522363 5.871436682299161 8.958954001690461 1.3668776305169492 -0.08609698890008398 0.19472275503030337
Ni 5.7060005916038845 4.800781810522899 10.983117731096511 -0.3038378020921154 0.9951858448953377 0.26458168480497013
Ni 4.885293363458756 6.178333955055429 0.1207459388890978 -0.7270529524039995 -0.7993541730715719 0.3127613298339904
P 2.879082230060433 5.1458821780760315 13.185090448276874 1.3321924204299378 0.5190131685498158 0.6264526276814179
P 8.689982268058023 8.526325853272906 10.634662720558321 -0.7997910034986742 -0.6490243423343467 -0.8659714559804892
P 2.4894254169223515 2.3842493369674815 9.733289145977528 -0.27331597935417445 0.2588964614947348 1.2468256248276592
P 0.41791032085171653 3.3021563773872264 7.091844366076394 -1.5875569575120143 -0.32569577850747133 0.38816870023071215
P 5.110196448685768 7.152600473003157 3.7605501756916757 -1.7390563830773083 -1.0856192563872464 1.5335892450463071
P 2.9877807773608023 1.2463817309468705 6.799749755178056 -0.49623730830588086 -0.18740925208802564 -0.5285954129216123
P 6.693868259642216 5.557061082272736 12.792126019859131 0.24918360508234505 -0.025009120449827896 -2.648113357393362
P 0.06452846658918 0.5563792498927748 4.242722472801983 -0.25534062582267636 -0.7928467109703571 -0.4445136546793442
Ni 4.836421434319636 4.40594272867233 8.341699692439624 -0.49179598470507563 -0.48272950362743317 0.46562292585413356
Ni 9.060210184083628 9.066111700055144 6.60358520850859 -0.4303278500972653 -1.2694968411729297 -2.1817790072945002
Ni 8.886982248082207 3.59786843315373 4.635619587053176 0.22237368397835253 2.5567427787991646 -0.6809918963798787
Ni 3.2310338888117474 6.330869700681719 11.58556661215381 1.6307121527432498 1.2522131143918176 -1.6908852226887203
Ni 0.0551321466282811 3.850748392533211 2.219005045541279 3.8152566385980298 -0.34673074480089966 0.9542541396779824
Ni 1.1921984374333845 6.732993466309629 12.56103371975699 -1.6002204119122958 -0.16864097034158698 -0.15677995723794289
Ni 1.0332632354254814 8.328302329072411 2.5479039075288568 -0.14596769711378732 -0.6733927438763821 -0.9729506876462211
Ni 2.607695485439024 4.496816853514979 5.112245381262128 -1.5061679156105607 -0.6616597717101701 0.792876278656712
Ni 5.6145824207576105 9.076208825037659 3.1069499049512603 0.18800960467618588 2.2229297705011977 -0.6620220401455954
Ni 4.624437136399022 8.906595567568795 9.39943762113323 0.5412277569736421 -1.0478860035025308 0.8623174041676698
Ni 3.3278095296259123 1.7313572481436486 4.605591013988732 0.6589094626585427 -0.8031928300913715 -0.8106667698709137
Ni 8.098567377643722 0.18249700452418285 12.667625241433155 2.063233668057724 1.9203392105526216 -0.37229368087166853
Ni 2.4797432422815824 3.665781972419697 7.49181315626283 0.29020427046908087 -0.5231426173371571 0.6513709881896524
Ni 3.276770637591 1.1631980191046045 11.489164426647218 0.611486750400205 -0.3297025856740193 -3.0260017587439885
Ni 6.936973833193872 5.936795971683706 4.666903154373436 -0.6544871652211309 -0.49663505796493185 1.7794149894000126
Ni 1.7436213360219561 6.46850411847993 3.977430887644906 -1.8443489710692362 -0.19511587670366395 1.2251337416765222
Ni 0.009690473647604177 4.821031387200165 8.771778201535112 -0.2803093799528721 -0.450291951924018 0.5191805473656156
Ni 0.31930336586264046 2.5142855529523653 10.069664491011523 0.28757377482476926 2.386099433315568 -1.4357441144713596
Ni 3.2102218238934466 8.35792056235446 7.681581012886295 -0.2262107983362556 0.634277008821843 -1.0223906874449038
Ni 3.4628343708304685 5.934001972715941 2.5773248088706073 2.1276891674286325 -0.11379445481535241 -0.12806741979459882
Ni 3.167620255474062 3.572962191530189 1.4986272773594138 0.4922482417511458 -0.4964648509356546 1.1376586414819891
Ni 5.771396765463251 0.1724376861283589 7.235996270575648 -0.4114996616471687 1.1214002706415978 -0.6129245112879961
Ni 6.75902468441524 8.127217393461693 0.16277856428435342 -2.5836113210552343 -2.285907913995631 1.4373222575917568
Ni 7.596984625658348 1.5436429346558969 10.823486334626343 -0.3833854199094559 -0.2616323723686591 -1.2505974331652656
P 4.617410643945436 6.420867819247346 9.177306404189089 -0.8338596630476091 0.4920078436055655 1.1810460073286884
P 0.10603087765886968 2.579589515624677 12.647273310338258 0.4115266582303622 -0.42278166231889125 0.14951504814541347
P 3.0181090367831738 0.46736225835741296 1.9418237499253372 -0.8556785586949135 2.9346507205338166 -1.9375946551989598
P 6.284966971765767 1.0182143696981143 9.091202364052794 1.1312414251017355 0.6067631196722906 0.9439149625355033
P 8.976159687083046 5.913494204714921 2.763192132281649 -0.2503758256182333 0.8155127851093051 0.7753367271110518
P 5.206215957766082 4.580277198918409 1.8504415414420161 0.1579948034816505 2.978461289960864 -0.36413094255521805
P 4.3163503393297455 8.387824650316379 11.495535297560842 -0.36908263013353854 -1.4192075502689172 0.1201929021425285
P 0.6229677144007623 8.598979047553497 0.1720310347934466 -0.02229249284961322 -0.3351687509949131 1.2142458911194252
