# total energy = -340862.7227508567 ev
CRYSTAL
PRIMVEC
9.30440983218623 0.00000000000000 0.00000000000000
0.00000000000000 9.30440983218623 0.00000000000000
0.00000000000000 0.00000000000000 13.61794429356665
PRIMCOORD
 96 1
Ni 6.670359163037667 1.6482482492814698 0.24533960305214722 -0.12185254923313854 1.9967757935448063 1.5046455654287634
Ni 7.914842557268985 3.735432021941001 8.321652745584673 0.4317044187298178 0.25445719477645856 0.7704002090413828
Ni 7.601572390091117 8.19571477018289 8.055449864862773 1.50951317793371 -1.6179810783298263 1.764555555789677
Ni 4.678378109513362 3.8765985245523824 8.498795678396236 0.02879841228893105 1.5403512463604891 -1.3769414425108544
Ni 3.995518183784921 2.9897394181124626 4.016040920062928 -0.5802756149047231 0.9650422314324218 -1.7784618814581241
Ni 4.13313040192507 9.05353481422826 1.3157235368555136 -0.9925036700774843 -1.6934252155017542 1.2513955035865287
Ni 4.027506744026018 2.739981150936261 10.382960955117241 -0.4820237358096602 1.686211985582767 -0.657910331970067
Ni 8.814895316536676 7.704888554406749 10.479294160020153 -0.17726856410959793 0.09081830563515327 0.9006970323871326
Ni 8.802929845777498 2.473958775760805 9.957345624537657 -1.1223250964487124 -1.2934134998895275 -0.3645502894808238
Ni 1.9886779881125562 9.07369746985434 13.17507471310146 -0.05781382568467462 0.7976315339535102 -1.039180762419049
Ni 7.66052512938361 0.6204896767859907 12.155322585075863 2.1135887234715085 -1.1017650129091736 -2.7276874575732637
Ni 8.500517924615151 1.5748364574541693 4.708812833349497 0.18571026711904792 0.92630059188785 0.031747210504609845
Ni 2.1846753765589546 0.14739766572757237 5.093260803607172 -0.5401720620156181 -0.1517796758098741 -0.08477107099980885
Ni 2.9727774793924153 5.645329573880964 8.794195796476068 1.1840439136147478 0.8100908427627854 -1.4641064676641367
Ni 9.271192868248038 4.081732843236349 6.047307051844929 -1.0286505523116865 -1.1202368464611159 -1.1705265958546036
Ni 6.230632764842709 2.0930455507141823 8.315756541214462 -0.29558430383407164 -1.2442066991475733 0.12406626905500569
Ni 0.24797926405866247 8.305032278697334 2.940277176622737 -0.2041119095546872 0.6771797217226402 -0.1922310989567012
Ni 1.068592834953334 5.124785073808702 1.8409555984895751 0.5735778911695735 0.41299295836324357 -0.7170428764661652
Ni 5.870031065975933 3.9976209803569067 4.971393507410008 -2.003761995054652 0.925581197223322 1.3438785985186146
Ni 4.159806144278539 5.455110223802722 10.751856604710868 -0.39410537743012125 2.465612855460863 -1.5048607667633633
Ni 0.6813107415282844 1.408622484171166 11.71652476696004 0.7801742577090113 -0.7967149356765117 0.3117269750322051
Ni 8.899509617535088 3.113860242317302 2.372844965199991 3.0167187907801662 0.12138717956094577 -2.912268753294191
Ni 8.186810450185588 8.842855067416401 0.6477618317954963 1.0906539905976766 0.03498217250213976 1.5710502181062427
Ni 2.172216772090418 1.3241942713649655 1.4277597938581612 -2.6542786056638095 -0.18287331189088507 0.8946649672604398
P 1.5462905287689783 8.872480307616417 10.842457362852715 0.5971124839564039 -0.7411811642752655 0.5398092793595607
P 7.638268981595156 0.20526551085947511 9.829690985562726 0.01641572235386205 1.7613876995846567 -0.10491823537164512
P 6.085977108627368 8.992218754894685 1.972246400740311 1.8908759109861821 0.384521333286112 -0.29615945961125123
P 6.2710604246005826 3.6014671323681906 10.082371767797603 -0.024449905512248214 -1.0615041085065975 0.45782399863500506
P 3.0465614476041383 4.084347382336915 1.8884546095514723 -0.7804316251354559 -0.5091681574349359 0.9568311563765391
P 4.753325128926406 5.600826582713667 6.630930796871968 -0.9120214562610165 -1.0657551704734678 -0.06397521730038015
P 1.3342709469731995 5.019635940799789 7.216080465075138 2.324053314717101 0.4554578123956737 0.5807569254165159
P 6.0921738454279994 5.435515137162888 3.1896223280122293 -0.3068547345415683 -0.3696022500824344 -0.5464069871817364
Ni 4.874533672923141 4.475458240316709 0.9547571051320044 0.7207249533034426 0.3809397865824407 -0.14221182961578088
Ni 1.0163299661708312 4.515783551568867 9.42452953863003 -1.1485662895334285 -0.526195545230868 0.09382058279658681
Ni 5.606483663756887 1.7898055370964951 11.682684629206442 0.27622389702958877 -0.32038053694214497 0.40806749603716824
Ni 4.155693595230672 2.1086676544503087 1.3191159245995228 1.9072173284586829 1.8145120902134622 -0.9305292852572168
Ni 1.4879425761011709 5.935580631682313 13.09967270805846 0.3218779474232779 0.16721555074897007 -0.1933919520340218
Ni 4.509893860285384 8.860617185362957 5.343531743752914 0.8811743889731728 0.023926686018926537 0.5829467339789831
Ni 3.5754147854586287 8.024950940600323 11.660895562780436 0.4035698652771308 -0.3656386374489961 -0.5508465110103287
Ni 1.2508941324529916 6.84022976929762 4.670982034313931 -0.12826642317928233 -0.05799200313375174 -1.271336722595146
Ni 6.20661808363786 2.9125593403928853 2.227242120086295 0.46011228044854957 0.9058220123185238 1.0381700617663474
Ni 2.96301715371094 2.721400244943977 12.477277488184226 -0.8275715160460521 -2.119315598652957 0.4814863752489515
Ni 8.005988553814008 6.180240082391928 2.0454013908623603 -0.44043768483775764 0.04189895422663107 0.46345034368284693
Ni 8.56889603084314 5.533416135085177 11.384506214416897 1.431478140106154 -0.9192053756039654 -1.4846773498369528
Ni 5.11409430716617 7.538367535606598 3.408408076476806 0.1603995562684012 0.7691365118376109 0.6847750175713949
Ni 8.993195717903793 6.614020962845741 6.546608654335327 -0.24293351040757516 0.2760634601923246 -0.8565517053284861
Ni 3.8068619745212526 0.8508724413891663 3.330894900893172 -0.12002115245135458 -1.059017337529002 1.1159621303451621
Ni 1.5946548499246576 2.8014460808236055 4.898238517287959 0.35870874309838224 -0.46532673476995345 -0.6390284074638994
Ni 5.971839915934656 8.857137336168607 13.22468489470399 -2.260055471708901 -1.523730864194989 0.5027069751906246
Ni 7.887859769398368 1.1566125498692101 2.348972641462183 -0.5819085225224558 -1.121906777964371 0.5078550950504672
Ni 6.074616424492877 6.479023283806159 8.129940037763935 -1.8892869692325074 0.7903499126904324 -0.2596508231622561
Ni 9.0295108286138 8.829168280879271 5.387830968349741 0.8862330344430028 -1.418429534452312 0.8699630936383856
Ni 4.087799318302433 2.0327064543897153 6.139296027900669 -0.15976706489072484 -0.5960914988910573 0.3114004449307218
Ni 5.315339382632924 6.757420523763656 1.2618863619669045 1.3362503925493956 0.4770085419832559 -0.6052610812054673
Ni 3.016796641259964 4.73237159848343 5.4049622473247 -0.08081388612427372 -0.008805256996455802 1.9710238813916825
Ni 1.0148691738619737 3.5393322849888857 13.655937767066614 0.42639406226049786 1.6620613564784925 -0.13776690647054984
P 7.233973775197201 2.6236481175754576 6.227404134707846 -0.016716541423732502 1.262880878518309 0.6320488908222728
P 6.9707334184953025 7.455251244555486 5.672949713809905 -0.7532172695041931 2.0960160046950675 2.4659828372057726
P 2.8620363962075572 7.88304938962971 3.4024569760898937 0.189531440637351 0.20658891034027002 0.42554842643075097
P 3.723140896845454 1.7428368773824 8.257594676738865 0.04813747893717516 0.027166018891830634 0.4106077459605187
P 0.4685402938769334 5.013690423058642 3.8096198015298217 -0.8891167837487011 -1.0230866850706637 1.3180338695413687
P 3.9694751412849696 0.6304509777150537 13.131034151091805 0.5205859123535743 1.7837907498702053 -2.881636116009999
P 1.2739597638775642 8.59894927388524 7.0800639531832 -2.1707651726825 0.353433610742372 -1.9151126720463598
P 8.319528548870583 6.156383576150458 8.826307174924024 -1.710595299523138 -1.8064012881808695 0.22973860898385595
Ni 6.235182621142271 5.907704620489081 12.299072922236098 0.3409092530231161 0.4735920601025392 3.426838284250356
Ni 3.6535904350065347 5.736475570425988 3.4601015153911425 -0.1062248699982106 -0.6617502745414474 -1.159616633810319
Ni 6.58483302989742 5.714479946106629 10.237166439165568 0.30587565845775067 -0.3958118185982667 -2.327041450811147
Ni 7.795429764327087 3.780716583515585 3.9621683884177985 -0.3093741585293123 1.685744559028045 1.8842818027084323
Ni 1.9338191890487078 2.7370223486801035 7.354084398859891 0.45887172317322905 1.0307341743135927 -0.11718651121603688
Ni 7.311312027880158 0.5165929173106588 6.786666144051561 -2.0575738986687853 0.8509189325227409 -2.709166773061257
Ni 5.27272518661657 8.933852193407656 7.881562544973941 0.6365475500235748 0.531713903945936 -0.448704295721924
Ni 2.7561894324778526 7.062028285594095 6.331500008548843 1.1017693837845477 -0.3698146232035566 0.9082799869407131
Ni 0.9088016956244988 6.838201408002518 8.451241771317639 1.7458829190808385 1.2872657351205765 1.1768697644638118
Ni 1.732080979872595 6.421410379497584 10.857001085514977 0.03146721737034581 0.3795434204555463 -0.5391685604517683
Ni 6.055467949514349 8.278384449572696 10.750468386796975 0.5352836235750652 -0.11039468510518409 0.4023758449690296
Ni 6.040497154450962 1.5259231761314676 4.686151943742985 -0.5584634041256382 0.42960562721926016 -0.40375421337379497
Ni 7.087336279734812 8.803562545631017 3.917446743624653 0.25910189263732153 -0.2853536272449989 0.29901415545122695
Ni 7.242478005581251 5.094536438164779 6.80529543297382 -1.2729901990381687 0.4449273451779951 -2.1830360196300536
Ni 1.749861706638371 2.2262753919277585 9.758455495143336 1.3768378270534545 -0.310011277892679 -0.2883219658447035
Ni 0.41909945252931285 0.12240788239553642 9.032618501423727 0.5265742687265254 0.07459104514301347 -0.329714155638245
Ni 4.240791725528833 0.5465326465555115 10.01210300553675 -0.1225994547014921 -1.2548996600850453 0.16002391809653732
Ni 7.942281261210519 6.380070887597877 4.269715413244213 0.8853889412751526 -1.116174246355968 -0.0829576719401539
Ni 3.000727925862531 8.723274795101513 8.171474922265466 0.027418244111952775 0.4883041695017332 1.1882198993693085
Ni 8.341533477599551 3.0002534009723925 12.132825453078496 -1.3930658588765428 1.3221378644074133 1.3460200703416496
Ni 2.877379367655367 6.8917948073593305 1.1147240978024793 0.6166605812916606 -0.4570141011392 1.007003406355556
Ni 8.525156001263907 5.811962245596443 13.549717696511525 -0.22911254536408285 -1.2246902263812005 1.0107649302805173
Ni 4.625249930637079 4.089706722272597 12.280525512118412 1.9541636153012345 -1.128138874917012 1.487495021791406
Ni 9.139889039823847 1.6838283116322426 7.316363391857729 0.7702665116769959 0.8474389443939404 -0.10660025105975834
P 4.523608560051346 7.542433562606411 9.419899664407817 -1.2055974714158075 -0.9087240164566672 0.2466407840558333
P 1.631332832609476 4.130739168655157 11.526050476058469 -0.4425364763483153 0.581118936741625 -0.13089691882359392
P 7.025620130787982 3.9512478028578872 0.30299530764492927 0.2427144524182336 -0.30021768884102495 -0.24561465678416408
P 7.662823318557418 7.564568753069928 12.744244260935155 0.2049958548215373 -0.5370060055828106 -2.60047441535916
P 4.226202411259479 6.24149101085823 13.02564496431494 -1.0514806628323246 -0.3471891724945569 -0.4389467021145279
P 9.64076401797939 1.6543054199379432 0.2110807668660737 -1.5871095855619504 -2.1956490804083733 0.38661138304592124
P 0.8767238130511399 1.387650344908969 3.3655389396371223 0.4888728975210097 -0.7378068484863938 -0.27160491020033867
P 1.0712818093307852 7.948487302420761 0.9793002768027336 -2.1465106710105095 -1.1514533812732362 0.8047288071199238
