# total energy = -381169.9426418931 ev
CRYSTAL
PRIMVEC
9.22987395414086 0.00000000000000 0.00000000000000
0.00000000000000 9.22987395414086 0.00000000000000
0.00000000000000 0.00000000000000 13.50885350184046
PRIMCOORD
 96 1
Ni 4.833371167924355 0.8930964474781874 10.906940191767228 -1.7160221269656641 0.490808938201458 -0.7467177778227786
Ni 6.444547193184814 5.200609392344834 0.7120561620474567 1.4600790916722983 0.03119030955987532 -1.4971081194011377
Ni 2.7003103803383937 3.5933929830056672 7.8171272850844815 -0.5730618707651034 0.08980837631340016 -1.0351235616305399
Ni 0.7400365249038626 3.171209319006042 6.212478626676093 0.9982593416143387 -0.466225592435139 -1.8272830167258851
Ni 5.093302877890413 3.3657566019640908 12.417000179026438 -0.36261836256543356 0.018731772081548383 0.7777347950295831
Ni 8.288842144608639 1.863539238593743 7.267060948650629 -1.3370764879951167 1.0812872046707958 1.0700959639406666
Ni 4.934170621249379 7.20333512999007 7.325567273596756 1.6451388696915408 2.417450951043656 -1.432013443784334
Ni 8.18886415006449 3.3537854554607893 4.522926203846294 -0.6389366190810415 -0.6316002333206284 -0.09268698341277586
Ni 6.171342924489575 1.588692052336756 6.132425161011417 -0.016810643799435566 0.23903623223569798 3.439614610079418
Ni 0.6529923527152076 1.8674065557756117 12.594452812455755 0.07463938188244565 -0.06095185709302406 -0.3224407619052834
Ni 0.5126262757738748 7.582018398099133 2.6035748405102113 -0.6049198958159646 0.01910432492961871 0.04075378487859433
Ni 2.2723118957550517 5.410884380500743 0.2780554904393677 1.5215752513045666 -1.2048670210076862 0.7056688303012685
Ni 8.039423261062982 6.015478043224153 11.988566967380407 0.5590071924442502 -0.635494426168712 -0.5651359310498073
Ni 0.8100866531897584 4.713475105412492 4.636967757316488 2.4122254409786583 1.2940873860281004 0.9972769230964116
Ni 3.0617337841751557 5.411438172937288 2.5246834159748843 0.5142021203144177 1.0849101461353636 -0.026940533144585863
Ni 3.5930145581740285 5.076772173659562 11.793539730977356 -1.039844107034661 -0.6625136350700332 -0.19659348969045498
Ni 3.0434124843994783 2.230011383477002 1.7549350038630205 -0.684681172306008 0.19171353589033432 0.4484397292066277
Ni 7.441945831149169 7.941291241307314 5.464141676135824 0.11811236546441595 0.7734739628707001 -1.1508905667912308
Ni 3.943002148196149 8.689547891944285 2.3354239277984403 1.9479176343915225 2.416596830573477 1.0604604977334318
Ni 5.535127713639481 4.426942898744418 2.714820665163251 -1.0141870685881889 -0.42180952821360895 0.26853347036386654
Ni 0.04437723391509149 1.3416267866464129 9.566699732186965 -0.17913929876974954 -0.4690576625672954 -0.7894561972315695
Ni 3.0005858693067116 0.011770858238751285 5.133891248552147 -0.6853442598113035 1.080313785013933 -0.7498730356223086
Ni 4.584395318327934 4.876539288352991 6.385176029050283 0.35420494169075767 -0.5740136931554114 2.3162255911425658
Ni 5.417169924655522 6.087554128840408 4.613746317464788 -0.014658630453439271 0.19693236108711246 0.66640628525622
P 6.669922255110501 8.88005249011556 7.274382084661745 -1.3841279329569647 -0.025000121588763396 0.9200288999465251
Ni 7.913038597169607 3.4067187825204917 12.890458561738315 -1.2714359671771716 -1.1136681921046627 -1.3920543868928927
P 1.7823255777745064 5.499251193625345 6.911967392363569 -2.869121014262123 -0.7905622858115546 -2.3505881277828355
Ni 3.8659142410291683 8.47238741782734 9.328039189708578 -0.17256884464108344 -1.1051280158441357 0.0018838472862741746
P 6.959564929297166 3.9145372169577666 6.678938918964839 0.40400849547644613 -1.3907631788852952 -1.1502799297904254
P 8.062451796549286 8.996127384815265 3.297821960785795 1.1622191044301726 -0.3479139664757234 0.837152474866268
P 4.0895817762755104 6.355515829136359 10.184824390109943 0.4048276489436318 1.7766505392809984 0.393762906489038
Ni 9.302328452854608 8.815914096089775 11.633446644458916 -1.7923016155546938 -0.20902477347527226 0.45960654445672455
Ni 0.8715751504066777 3.0617983932927526 1.2151276723161522 -1.578365006600101 0.7052127166004565 -1.2611340710305312
Ni 0.9395550179672916 0.5841577988275267 1.1163375625483902 1.0185916254137877 -1.1662377386712623 -2.3345112768256313
Ni 4.874905600665186 6.791848889889694 1.2748643394588024 0.3873762862364038 0.3390230917439968 -0.35465385630271823
Ni 3.933153872699601 0.77890629303752 0.0712333981253123 -0.301057668243817 -1.1704566618486163 -0.408572974918677
Ni 6.544719015081754 8.605131464867032 11.461911283214077 0.8502085367192778 -0.8592752749072362 -1.598673122029834
Ni 2.6223087156511142 7.463940620753923 1.2062125370751813 -2.4862243610636283 0.34945457148996595 -1.3779053490860205
Ni 7.484541699393375 7.61637198891277 -0.023233438687826184 0.5275464028318075 0.1534264673846777 1.5757813050333247
Ni 1.5003529288339814 3.0695607172783164 10.160062484297253 1.8318238420190323 -0.19672050218662251 0.7646687058742444
Ni 3.875947114004564 2.2521907705606052 6.08962900450266 -0.6247736973170983 1.563074656099934 -1.19073418115073
Ni 3.6538394274544888 4.238773458680573 4.429593718540677 -1.0770006614803 -0.7538279065049985 -0.15994704211201485
Ni 5.449760609546161 6.44330116020259 12.278480999860982 -0.2787993710662489 1.9349690446506547 1.008557123995921
Ni 6.790538247789872 4.446870196586074 8.665524376046989 0.2547616133907548 0.17623292375623198 0.6784076805924704
Ni 5.071215789546234 8.653320636720338 4.716048394267635 1.046546458755501 -0.9114797248249333 -0.12583056004428006
Ni 7.928581704888621 1.1028222581345242 0.9365876134948078 -0.7138531658842738 0.07595861491450144 -0.053185325773727754
Ni 1.1341761399168797 8.235438093977875 9.428044873874553 1.2367507570901604 -0.26486424904239547 -1.2932672041196502
Ni 6.72882731061094 6.421897082530148 2.8752783317024146 1.3283666189259444 1.1241611212161864 -1.4379889446414782
Ni 4.421995686311288 0.6223805527978215 7.390855709915765 1.4905186391090781 -3.705571835075676 -0.3867461088515726
Ni 6.3019641005225155 8.762925389786417 2.2070760697175156 -0.4938950333259495 0.20131557775647266 -0.8460119821394269
Ni 4.272471728444299 1.6079732590024436 3.5410217552690573 1.0223122687984845 -0.04977115788585622 1.2633714450014824
Ni 9.040735365578918 6.357047988210798 7.66119502573928 1.0318873140814293 -0.10596904523366266 0.8085412388874785
Ni 5.818300246192518 3.542822503675221 4.894784903162341 0.09202595279000925 -0.30164439398522247 -0.6644075096586364
Ni 1.0194395769388218 4.627960323336095 12.191254076168267 -1.4652315824075155 -0.6207653474886535 -0.9140893945336387
Ni 2.885267824270282 1.401131783953109 8.76765108524493 -1.5305430020208157 0.08306385850071502 0.5275335473160012
Ni 6.199272523039298 6.8202030626407675 9.284378194011415 -0.06742409508092904 -0.14416149714298399 0.8162519772681749
P 2.7239388576309547 7.527986716040283 3.588505764753163 -1.0610217695535404 -0.7916318647266496 0.4559167543099632
Ni 6.728282748048338 0.8157676406013097 9.393894340287648 -0.35302763355320493 -0.5678070501240673 -1.4851141802640553
P 4.391564791923173 4.53586464113876 0.740398335962405 -1.064743955600134 -0.6006742331657332 -0.28980137860370736
Ni 8.123101298224842 8.32934283146792 9.496089350552765 -0.5560241985565263 -2.312901154755023 1.0339472819342514
P 3.636976447761712 2.675555858424859 10.501458907653781 0.34952039173089483 0.28415163651709774 0.5618924844118452
P 1.9767621022452464 8.8039706392083 12.828345202055495 -1.2475601890008385 0.13606894994283664 1.5080386502707126
P 1.2317266776141764 1.3793492814490291 7.119624788269412 0.620752491972847 -1.877852759253637 0.6522703600754702
Ni 6.561591224648473 1.1884662584461159 4.199672943698355 1.3624381066883569 -0.19129804561947053 -4.187377798447575
Ni 8.590059080719081 3.935959754378093 10.272470350079642 -1.1838109716683354 -0.8205099812135804 1.6795646554695784
Ni 6.342806292717665 2.7741770614994747 10.37482688313875 0.2904631805574223 -0.2340729746931517 1.0152466202009547
Ni 7.509240842063256 3.348275220717172 1.8665860199821316 0.6621909616232918 -0.5959966251844058 1.0802392230222557
Ni -0.4388731220622854 8.817289347307193 7.4192246504651465 1.8318328408800968 -0.24155797021628722 -1.2033765525050888
Ni 6.160968546178309 1.3673504453239005 12.702401726136568 1.8056289287912193 0.214224829618973 0.4639113424796655
Ni 1.9964217337425725 0.5967824204059506 10.923394288044356 2.0404747770946536 1.1381553786127494 -0.35286848226752127
Ni 6.91543690197852 6.026286225610711 6.782701161825375 -0.7512997407665061 0.40966312265906224 0.42844940212762983
Ni 2.7630735231467596 2.872013725288986 13.009809138700183 0.17202145677804567 0.6903144593323854 -0.7826396885303682
Ni 3.3248313409034593 6.804272300216173 5.541696614924291 -1.0644395369858377 -0.5287476222287604 -0.08511457038215664
Ni 6.311295503078289 4.863718993446989 11.113436469531116 0.08096352432826057 0.015608653071534407 -1.5964951405419086
Ni 1.714984417490707 5.395156675302883 9.49457565122621 -1.4779588001661965 -0.9135152671977235 0.49160855128461783
Ni 7.917708913384465 5.718442240009621 4.721735842590946 -0.14240594790445796 -0.21304160794414922 0.42299763498443926
Ni 3.620953386597694 8.092467346609993 11.759281207865325 2.2895876768400636 0.06616374031126669 0.14558845939749765
Ni 9.107947307627523 5.344992310425901 2.7529963467764396 -0.40001865759076266 -0.623605645150926 -2.0760192498581667
Ni 0.714849121902429 7.237854858534671 5.289688751737789 0.1270528624871554 -0.25566227082815324 0.19425507136526543
Ni 2.118016093059839 2.1859571951498946 4.358928880650217 -0.7231554171218062 0.27643832703324 0.5411282552813003
Ni 5.225299305140772 2.5110333554014588 8.312010974178868 0.032813189875278974 0.759703391449169 -0.4451170925912979
Ni -0.004845683819763525 1.5670849174375818 2.963936808843597 -0.9780772102395091 1.6135688081947435 -0.5024555213014508
Ni 3.254573540453859 6.110361147352094 8.082090199336546 0.7869113193225287 2.055649685062879 -0.06628715326300841
Ni 1.7616783497653428 6.870219749534669 11.263587135838794 -0.4949772106465346 -0.408461131931161 0.4322790602863652
Ni 1.8280688330330743 0.22946574205696185 3.067225559170888 1.1915952435994446 0.07552589825245704 1.1713956287231182
Ni 0.5648673622878968 6.9383362192296305 -0.2313846328495882 0.09442427781885673 0.28322758204093157 1.3528262946302057
Ni 0.23655336225733595 3.7315549660495537 8.182677365560895 -0.699739352190711 1.363510256706613 1.568117874950796
Ni 5.385963720856246 2.2533814242991754 1.39827421498054 0.42379236297159273 0.23991143575179974 -0.17398063738694552
P 8.140001197413389 1.7283585048332544 11.359189247146848 -1.1318687742730895 -0.5462570918674334 -0.0158729624765146
Ni 4.237721253051138 4.448670022004843 9.224695983125025 1.514385675534663 -0.9535311454690288 2.0082709386685993
P 8.86260802836441 5.955234656002065 9.951472871123226 -0.06822190839187606 2.1323472350259345 -0.6340504946333338
Ni 2.348033781578556 8.538704062103532 7.085650545274808 -1.0784775031361427 -0.03523105528815223 1.9108099309059479
P 5.651968687876407 8.555807018518811 13.383585805821463 -1.9049143913571194 0.09364497645067098 1.1766910727941025
P 1.7919892557922061 3.741532459781295 2.9543589686535614 0.14706350128112736 0.4386502539200317 0.5987513051114075
P 8.658489366128086 4.804250915636062 0.6534178499039526 1.4640218783701304 2.1478864683121137 0.13867142056269022
Ni 8.886568781118898 1.1006809273798857 5.132580606452325 0.3726991438402033 -1.2707106589753727 0.7497889605489345
