# total energy = -381173.1313356651 ev
CRYSTAL
PRIMVEC
9.10610897096037 0.00000000000000 0.00000000000000

0.00000000000000 9.10610897096037 0.00000000000000

0.00000000000000 0.00000000000000 13.32771093859802

PRIMCOORD
 96 1
Ni 8.632563936470563 2.3147182504450945 2.564864883659792 -0.045175568095373805 0.18949441675182846 -0.12160032401301639
Ni 0.8153564395136335 4.326002739505847 8.453940325145824 0.11442051843512552 0.37230833615968784 0.2827953795995194
Ni 0.7032575068934526 8.071709582067376 1.819165624318703 2.997315703663206 0.6879747554556152 1.1441259943738875
Ni 8.10417286036205 8.124543226012875 6.8399280498752 -1.1840264301132513 0.2536853496074405 -1.265874156818678
Ni 3.805215264344335 2.3926210122433975 1.149941288897486 -0.06841217002581121 -0.20562474665478778 0.058847666265827686
Ni 1.4529252085012512 2.353446531675741 0.9220727511520519 -0.6760008709231906 -0.34241180571057156 -1.2082732184757576
Ni 4.809528016972601 2.8665939814545793 5.586910161074044 0.2853824236004053 -1.8418629714225891 0.3807094157391895
Ni 9.005185913418144 1.2787617693248234 6.7008267724788055 -0.018851585488864307 -1.3061407176482085 1.090940925710476
Ni 3.22901711641337 7.128753791332384 5.577153875978698 0.31241500223816515 -0.12924832747657738 -0.09969735329233798
Ni 5.820852473468161 5.562739816171504 4.21806074560699 -1.1546546618193532 -0.18572415107611884 0.021487737560130737
Ni 3.2006151626963733 3.548759918870857 8.279240536154092 0.747956535325886 0.4136251926306038 -1.2821831783913467
Ni 5.958700750277361 7.091336789786011 11.343361500437455 0.22866568763465134 0.12775348809860576 -0.10555046963900533
Ni 5.175138290052889 2.0855994439451417 7.929294591635516 -0.756981878752948 -2.3319699984610156 -0.8106909382406297
Ni 3.373913521525537 3.868001885337824 12.175490481968188 1.208669168362596 -1.6543961266237508 0.7250091825010934
Ni 1.8424572297106026 0.35920321484518664 5.604488593730438 0.008908872453855625 -0.018234263619839566 -0.6960930136873753
Ni 7.1281983186883515 2.481259876456685 9.601535880385887 -3.0126533624615406 2.560098068424643 1.3696935026991897
Ni 0.013140115169485793 8.462124895841827 13.129807964800872 -0.19081982043147136 1.339890303294828 -2.1179649981623325
Ni 6.215310899602454 1.9442999518558064 2.546458705702702 0.2354767970192138 -0.28817207053040045 -0.36912016823969335
Ni 4.766938745560483 8.964317696591635 1.8940943309442035 -0.5278821889046715 0.9770228008330658 -1.7454792558845165
Ni 5.951352120380081 6.007773571239494 0.20887865820666385 -1.0835502896733595 0.23941444151072316 1.7609668099971543
Ni 4.197588391536278 4.8816666118254535 6.183844740234361 -0.2397646257612903 1.590688046941828 0.5306929188805892
Ni 3.3381902562380166 6.93208005090927 1.422240353278371 0.32421816552068033 0.8767472064397546 0.7489950038927294
Ni 0.8830640017667136 3.928730525715718 12.54164256852913 0.34822558417887123 0.14942223132129107 1.2472758249912002
Ni 6.27950896747832 3.6516134191060217 0.33985091217145746 -0.5466496993201617 -0.18904730191208086 0.6147883039696121
P 2.2907965023160304 0.4194346616761269 0.5158264670226792 0.22475323995412258 -0.5964113441243212 0.031089265205636776
Ni 5.703939141062736 7.529777721996961 6.335767418988091 -0.3570046159230819 -0.17361579784835907 0.12520912441019727
P 5.096425084560834 4.773968661645614 2.171657636890909 -0.14910778540466577 1.2735707541319872 -1.4622069366485786
Ni 2.3999878543585145 8.235920044195815 7.582627756938515 -0.021451999226188862 -0.224730100025671 0.1459856948359163
P 0.23527180429622563 8.872992530247371 10.829737801162176 1.2798918112540085 -1.1832031628810074 -0.7027388011386672
P 2.6952989665874987 2.565892052745806 4.683184398171113 -0.4447890198279178 -0.2677040324840357 -0.08250464356313533
P 5.40559569456387 2.5078497144988883 11.896115060346688 -1.28606477283394 0.9329247820725868 -1.3253129197012852
Ni 3.805670569790263 7.548417926953259 10.440902397285097 1.2249185403419227 -0.23353124325706875 -1.6535435488154686
Ni 2.340980268566229 8.088073259794033 3.518302716370941 0.9074695752242758 -0.24723110934166453 0.827437304461033
Ni 4.197178616634942 0.9429831090617471 3.88300146794848 -0.36987273013500166 -0.012669367937552373 1.2897987859550755
Ni 3.442764811058789 5.3909439653139035 3.654538301290664 1.0890761045875954 0.560032548384971 0.1853991636365323
Ni 7.947629741943042 5.291031738259433 12.489104873123484 0.18419922979116019 -1.2658474173458005 -0.39561178677231873
Ni 5.745608695474078 1.4322270229293586 0.2427251544460691 0.900567963008436 -2.9028472028699746 0.21480744159532036
Ni 2.1388610750098143 5.307158657154209 11.005463848629029 -3.09430568532671 1.4279644705259407 0.49111669924986384
Ni 4.117582118577787 0.26317019019002574 6.365327669759529 -0.34985000715617165 0.5109203642393524 0.5475164181958313
Ni 7.435247205313363 0.059284411503409774 11.532988023168494 0.2925797126797929 0.255323913652128 1.622499020804838
Ni 7.01050186091593 5.906641125589938 7.753009429081064 1.784657468745875 -0.7457957802291414 -0.6773386158980077
Ni 7.09425985074887 0.6105682454331879 8.496148961205144 -0.18717759569319375 -0.9994433346201111 -1.3758114426714692
Ni 9.123319464418655 3.7956811683066 10.510565951733883 -2.7313895890151993 1.543146035496807 -0.2358768606711099
Ni 7.415368569544141 7.538000538350423 9.337327593779147 -1.1476715456333009 -0.055690865804400864 0.47922149047417467
Ni 1.6979614933908513 6.887951847089916 9.302022298890988 0.9485192940767341 -0.8990602681146581 0.6046689561474232
Ni 8.158936999398287 6.66772060289448 0.9945701266962961 -0.4547368750692491 0.08337239088006931 -0.20885790888010483
Ni 0.2061859817994449 8.664289619942835 8.710952053874225 1.007857269715419 -0.4969939839662473 -0.7581715281856749
Ni 3.7042831530909877 6.153799133857564 12.600830455278004 0.35694882298448205 0.2262640201716942 -0.64371244320313
Ni 3.19765567729784 1.3427595028044812 11.870392123873533 -0.6764839812071962 1.5001484488893584 0.6205673725452345
Ni 4.225289174866544 8.707161180731427 12.691672087238691 -0.1454341932078205 -1.6368154374275101 0.8549074848568438
Ni 7.6683089569750535 6.316771165173078 5.263899176125685 0.429737267701118 -0.8858013462222228 2.598984975297827
Ni 7.016775969960821 3.4867291049176092 4.437008028444908 -0.6549227100966527 -1.3528226950857798 -0.792776519854054
Ni -0.05498814931563195 1.6901393458298062 9.377657639568568 2.6309676988520105 0.26569085870874887 -0.034640730002320985
Ni 1.5045750582873383 3.0918244794463057 6.7184589311778184 0.9769747212039497 -1.4586881248620425 -1.199741783965979
Ni 7.272921707731067 4.666962775743586 2.1332599074140064 0.25090135910440015 0.3389891531822678 0.8968799726338875
Ni 3.963734408398672 5.035996945777253 10.002446895299874 1.4262860543822533 -0.32232429093207715 -0.335538475629506
P 4.56715982199614 7.919364379859823 3.752176732948167 -0.10224583074580457 -1.342907749964913 1.117760102785849
Ni 4.423201346102584 3.201862699618216 3.3546914362093436 -0.825989773381229 0.5047399464602533 0.01503812528004507
P 2.568095731104098 5.694505212223104 7.459519538635792 -0.1954308368409215 -0.08212566295716178 0.38115061704166614
Ni 1.7765654255758836 1.1406767336837405 2.9637497893393987 0.5134457017643673 0.3560008572489159 -0.38395954724537096
P 7.400844325819033 1.3460832325597567 4.314206686012741 -1.263577133254385 1.405503313308947 0.10092479794153586
P 2.3975838416040136 1.3025651380379462 7.760006563174087 0.2219463666329468 0.10426286117583335 0.17656125362992817
P 5.278164806357505 8.45792697963037 8.720427870814882 -0.2843766080437102 -1.022333351844407 -1.2941259525755195
Ni 8.914215885321703 4.397831726655468 3.792426644979106 1.229513873022089 1.8396903892513026 -0.5050417939713883
Ni 1.4912619270483995 6.073155433274773 2.8427478140295395 -2.003007376276815 -0.8444055568842554 -0.5029679421614951
Ni 8.746016947486934 4.362208628566052 6.1875627645058096 -0.5764999499123749 0.04069927749157507 0.06381863711785782
Ni 5.559607314703518 4.141321744528479 8.42967072365607 1.0145063996008208 0.5633143044600363 0.5508897055434383
Ni 7.875727905922072 9.085875144545527 1.7469960686955275 -2.436408465982765 -0.06192553386020303 0.698131898494275
Ni 0.4208734268852598 2.215507193777355 4.668336887579396 0.3747429137431095 1.1143911863136162 0.5290078178686825
Ni 7.580498748673355 2.6144276132817446 11.909229678411203 -0.2018243990720911 0.7983329308959091 -1.2987061157470343
Ni 7.538774557608501 2.844766638376785 7.265454698417845 -1.1859799542951963 -0.8035273306126549 1.6076259603477476
Ni 6.287913906010154 0.9004402788051147 6.228931817322839 1.7144537540372795 0.2038763965051134 -0.6105434126503292
Ni 5.587399159122972 0.3648089354954538 10.491960349991476 -1.9295208770518901 0.6984923671574874 0.32192679838334237
Ni 1.822150606822208 3.635377226904225 2.7793474412949393 -0.20619090357090297 -1.3486030005774774 3.281570698527387
Ni 6.796490089111873 8.383375265914099 4.4385278380234165 -2.8978638907227707 -0.1799437969489159 -0.13231719620988824
Ni 2.0084342769692425 3.0471863335275122 10.078068576814077 0.8346065685159626 -1.4859004236107767 1.5222072284616106
Ni 5.745517634384892 4.73807238028864 11.609742504632166 -0.32572740307635517 -1.1886222770140498 -1.3884823532709185
Ni 2.5191412895579055 4.71242047146505 1.1104990887276243 1.2577934366930725 0.6151132914091987 -2.519872388135376
Ni 1.2277857715987104 6.519473149700281 13.269668691681074 -0.2024797732679029 -2.691326402445726 0.9017038763850923
Ni 0.7445282137341619 1.468023137088228 11.925675311118129 0.2603391074785323 0.7925623469607188 0.31864684208048993
Ni 2.2687506126241908 0.30413311054928766 9.915363354489878 -0.06969206517949934 0.8593693772829394 -0.9934148690378439
Ni 8.298369739159316 6.916472180222854 3.2915050570343296 1.4598091258403634 -0.4574655868543218 -0.6192075160832304
Ni 6.183038849595069 7.192651357613937 2.416900630452961 -0.5967381313361207 -0.9110953449023211 -0.7771879213871776
Ni 8.965592551840233 6.599789030362003 10.863084372021952 1.0001244198475356 0.11749890025013314 0.39812452589184333
Ni 0.3115127012168908 6.3472948422681 7.491186032400093 0.45547478167653815 0.8484900113662741 -0.8674292714729384
Ni 4.300460103989279 2.2842309977857473 10.081426909783245 0.28986797017558463 1.3662417967051632 -0.2743305366616179
Ni 1.5412271466845526 5.143257802729001 5.389339468922452 1.6036991144895156 1.390574974133889 -0.7013989992813212
Ni 8.221951273114739 1.791171624281258 0.4417173101998495 0.47998407967181206 -0.1018470526454891 0.29832895645874424
P 0.5870171159371095 7.364647542867748 5.316250196298501 0.756658176864942 -0.14881390831333083 -0.12469824621204977
Ni 4.867461081912496 6.303567307241162 8.196528838235896 -2.4102423491103586 1.8507314775568127 0.47175140734937465
P 6.124604948664652 8.138147752737208 -0.014543366553836284 1.6218878695834 0.7523569783864269 1.116272462496729
Ni -0.2590433016281332 -0.04908830134729526 4.0946192437178475 3.8090962754235886 -0.31606391184466215 -0.6382411356759137
P 0.1632169856454237 4.683608742846718 1.1965855106110395 0.7384817630662315 -0.06620333529995051 0.15770118350063164
P 7.199471833193941 5.413272144382218 10.099459737274673 0.15827685349844356 -0.37757318410305296 -0.31492645580610923
P 6.51263446190244 4.367954583293665 6.240473810377118 -1.8019432524095158 1.5842662025758842 0.6415439747969016
Ni 2.1604789775824815 7.8929020273424815 11.86919284932896 -1.4312428841668963 1.3817609753866846 -0.529340775728069
