# total energy = -340885.2457977754 ev
CRYSTAL
PRIMVEC
9.15081329129453 0.00000000000000 0.00000000000000
0.00000000000000 9.15081329129453 0.00000000000000
0.00000000000000 0.00000000000000 13.39314023019239
PRIMCOORD
 96 1
Ni 5.647808749877093 3.122605222022579 9.741393042814938 -0.7998961616179708 0.047349950038873295 0.08679478629805698
Ni 4.8167776418587005 0.6883982965051865 6.692525074202171 -0.769790600481842 -0.6345264058284878 -0.3177461846430915
Ni 3.4897175491874957 2.877363426119998 3.3449370417974853 -0.43023709015567196 0.8734219987212635 -0.8527914669551054
Ni 5.0304033778790656 4.780439762324031 3.241796395156546 -0.38357311044022974 0.31233246982668794 -0.5205882263464195
Ni 5.276615159989321 5.0435530965623485 12.088032175731204 0.33639079632747226 -0.22838492316943892 -0.5706753728107977
Ni 5.758561043004294 5.799803758457014 5.353050988235391 0.48265545585638814 0.9904123347660941 0.4862969092637173
Ni 3.7055486312083277 2.8376214440451877 7.773431949968111 -1.2647009624461831 0.918520690832115 -0.7451175232151941
Ni 5.40798423543624 8.268455260241456 12.886812157425751 0.16644242002837142 0.14209792974573593 0.30861234066262333
Ni 2.414963680270992 5.397671268869741 12.155332747079902 -0.7821681482105884 0.5215698735333985 -0.06356795455963246
Ni 8.199869914708254 7.506778166071782 9.983286556138385 0.5758895700218856 -0.39485845354606186 -0.9061256596018716
Ni 7.722956978997252 9.007209567144864 7.655117424746364 -1.322667254548322 0.9041461672779977 -0.3171219207955313
Ni 8.482858815390616 2.582194792962025 1.8587799943597931 -0.31840978636901934 0.1529395004459302 0.003235733328478298
Ni 0.8770221804820795 1.1377114642825397 2.831497719798247 3.0569879227128576 0.4654632603478177 0.526867374486912
Ni 1.9105891539068693 6.733021998372577 0.9124815819418743 -0.8235125154853302 0.5914959091005748 -0.32483703005160186
Ni 7.832693531850377 3.8543042518871475 3.9992320873709652 0.330109848414767 0.6440986228979553 0.5042786905531187
Ni 7.633031936895212 4.331519164436387 13.417113683055948 0.7194766827186384 -1.6467962027893057 -2.2495707701274936
Ni 4.255338643880828 0.23663362585013537 10.534494944869277 1.5371229692311785 0.11594338283755515 2.9590299207091295
Ni 0.46436625562286615 0.30857365953176724 0.7353941282670106 0.3349972584140553 -0.8720708840100079 0.24106560396090096
Ni 3.7930121045380614 4.65604360659643 10.213086354631058 -1.3377614298772833 -0.7069723796040406 0.308617739979262
Ni -0.16820475922401912 4.893607870157137 1.81506472915883 1.517977506650979 1.529143807680444 1.1754859967424076
Ni 6.408396897266455 2.2876392642938086 7.520127372484569 0.9855025561693027 -1.624870092140176 0.014231827328665812
Ni 3.285315832953318 4.698439324522425 1.065527103886333 1.7263157955821882 -0.27825943940237885 -0.448954206949201
Ni 0.48583863898426194 9.243328002207338 5.167917224443469 -0.018648211228806593 0.46051234410044556 0.39230483388627274
Ni 6.953153962634984 0.8919444116976891 0.8075501211420492 -0.6022181806140854 -0.40851666775944484 0.6870830968792812
P 0.26903116518646 5.920722605138236 13.087240590533778 0.5739692130707211 -0.9964346297007742 -0.49991321449557136
P 3.9352065920951596 6.427952185245702 13.30844228486861 0.5761158271000788 0.11064793876657072 -1.7676627339600912
P 2.4133531371337216 8.85416221503775 1.7712030509453875 0.019664568308462905 0.5282359726996645 0.9183440560449345
P 5.9964638866563575 7.910484595543207 6.55126762992494 1.6544367500536992 -0.22751306208744687 0.6201760506440867
P 4.4281609034859075 1.2761541183948588 12.768136175079446 0.20443946809743502 0.10405460181976918 0.6089323594094674
P 3.978059850685151 5.629470520064079 8.424097782994764 0.041408644853773845 1.6368133805449812 -1.239477154882388
P 4.727859189217455 1.4168478725740452 4.267469877046054 -0.8579318735054644 -2.150894144790186 1.262687274450264
P 0.05801890143884843 5.813795351962054 4.045143547759116 0.09949475036322865 0.7706439496210729 0.20023185777399063
Ni 2.601933097206871 1.7198679035262125 5.343046404076424 0.9380847290069716 -1.335145846631307 0.3236792622980748
Ni 1.5735372483665788 6.937899556897312 5.33530481604159 -0.25653104658635173 0.5195901240992084 -1.3710029655392324
Ni 6.593838128384583 0.851506052732275 9.841439799485926 0.631087555350268 -0.5850244424436182 -0.42141974897435813
Ni 8.843062278529173 2.4940724610761347 10.78615237596243 -0.1753716041972012 1.1917376827145798 0.3763033162516939
Ni 3.2077901428456066 5.034155211323843 5.243361104529993 -0.09820354235563086 -0.8614051767660454 0.08435480939799665
Ni 1.8618519223778713 6.466596069726918 9.968889581605046 -0.7070196879022081 0.004775309901456292 -0.7525158725617943
Ni 1.6234183315555704 1.5260262258170936 12.159685788957175 0.41960943523849675 -1.9958887629541626 -0.5627656310454179
Ni 4.2513946433571705 7.429252475964071 1.7630460159876427 -1.2275508357584473 -2.017619469763035 0.8398256508230569
Ni 5.2665492653813795 7.853511632062256 8.766788419678159 0.16902097938882502 0.4710281560301049 -0.7022232949548294
Ni 6.900719802540887 0.9088807369162152 5.132867779418616 0.26119708460345337 0.7813932177177769 0.9275102959252349
Ni 8.035887340731602 7.461207115937645 5.351791836328069 -0.5157100723185118 -0.4876382537829602 0.03682488213783336
Ni 5.540341598717395 4.312201797602419 7.596374693977071 -0.3756975643468949 2.453442024426284 0.494428023011284
Ni 0.567957122277179 8.004463447928263 7.7198328913434775 0.792092606413152 -0.4439498117560742 -0.5046108770815568
Ni 6.400792571430819 2.0651738426450152 12.057897632519012 -0.31415795307120087 1.2039887321677911 -0.10404688851028532
Ni 0.8028026792124127 7.911692502896161 2.976035730636339 0.5903188580733382 -1.754899263646836 0.07518548419390278
Ni 7.335054004060295 6.471455151578571 7.753998367805488 -1.52221391332983 0.12537521767441634 -1.308492762820153
Ni 2.1672694664093846 5.665112937789474 3.003291427990661 -0.4399674300695584 -0.06536155612494549 1.2414265652992749
Ni 1.3353324278762766 1.3825140211476836 7.723556357267088 -0.4603184829220846 0.18250538702850505 -0.3675649079374315
Ni 1.3304092903316649 3.4387566700314705 4.229835327269615 -1.3271923961121852 0.7134281625317133 -0.5154506480095381
Ni 0.22832194214795942 8.104390328945286 12.251268043344211 3.3206733209558035 -1.7084466286112512 -0.9856817620596443
Ni 2.1158327449628023 5.919093760374405 7.277417606616549 0.6416918132286754 1.9246681769452787 0.42114824048052624
Ni 5.969725210252352 2.3674618085347867 2.8971374185366354 1.0432598175844292 -0.37940149556104336 -0.09606952673176358
Ni 3.860563408170631 7.266020268676375 6.541866084361122 0.650532294338441 0.4748662988292725 -0.4134567853735395
Ni 8.384908510042063 7.326003849726427 0.8938056871188303 -0.2932327728827595 0.5368239714789915 1.53388260791701
P 0.04510161341287514 6.055880117283054 8.469379667429255 2.1529212025225437 -0.4185658244653308 0.9712496457947143
P 8.351791716781934 1.8220641862366613 8.593815171653958 0.2342979462197642 -0.11418757648871303 0.00851960743523694
P 1.8343537284716303 3.5845931812739873 10.793678919885187 -0.04672877151510662 -0.23830346783473155 -0.19738590368476328
P 4.044595414043647 6.663585627204339 4.084814153490342 -0.4649390124132315 0.09377430293968367 -0.1875133817660577
P 7.189812295680976 3.9341542485679653 10.9609191833895 -0.5345500878431504 1.3040133868925607 0.8188529052261316
P 6.295311146752868 7.70251406212985 10.86909534753187 -2.003935030297407 1.0941692028397867 -1.2046451348048672
P 2.346314279044829 8.880873439001913 6.447404069034885 -0.6958952958542725 0.0073348430985164005 0.2236479227050858
P 6.790132224052727 4.072551148613885 2.0634544048297134 -0.2479574459847278 1.969084498277125 -1.156063883462054
Ni 3.034775716161647 1.9433765178889197 1.1108108184834793 -0.35425147865797696 -0.7045000068041479 -0.7509881230633582
Ni 1.5107077643864621 4.259721883441922 8.396467817377292 -0.6103894035709682 -3.1083583067650338 2.5035826498364173
Ni 0.23356810340135306 0.4044357492898368 10.180541487200927 0.723532855065883 -1.1292300510986615 -0.8905100645518018
Ni 2.55022185136189 1.5900178630837636 9.872900295542385 -1.1926684220589654 1.5057092308065876 -0.33932776746860915
Ni 5.193123139623084 3.3582203623546563 0.5512385864147157 0.8645270102244789 -0.9307840815805003 0.7499411698560826
Ni 3.964004201487153 7.2142358163251545 10.986647610007397 0.42054248857572735 -2.0922202850980613 0.8874617646437812
Ni 7.456476145471912 6.555953761405601 12.16473520772505 -0.4727891045852696 -1.1132498736203214 0.32726775098028155
Ni 8.005296171936738 4.2771724843667815 8.883375271352651 -0.3493746101816499 -1.1305312864085886 -0.4493990077961035
Ni 2.919356508261675 8.624284634632199 13.092598391709185 0.5446802342986168 0.46371773841162073 -0.9256819844672445
Ni 0.06726305301425096 5.0762947064779995 11.054510041291486 -0.28429716095602653 -0.4453050402323879 -0.4861868660484142
Ni 8.498470102846206 2.509912518863723 6.262243767884452 0.8664018586496885 -0.45379302309874103 -0.29549920031943305
Ni 3.5882077525195664 3.232039798037466 12.195566127827846 -0.0733016369076286 -0.9249715886637813 -0.33013016012974117
Ni 1.0677077426909445 3.5212146484970734 -0.4399015563189277 -0.9785803751281728 1.8576289760075944 1.522353781341804
Ni 2.7559870387747796 8.384643136456944 8.747193783201809 0.431162944404051 0.5426670605233299 -0.7469898005372425
Ni 5.4583869149821895 8.45274348888631 4.546448891349144 -1.0587504570208603 -1.7293797792194925 -1.2667383045911862
Ni 2.891327567185197 8.85731009480605 3.9924010052574843 0.8780947216065845 -0.6797523675458228 -0.05572531858676209
Ni 4.881931432411924 3.2532788356602236 5.398212081934586 0.4440693680530739 -0.20540645999639462 0.4540976988233535
Ni 5.92154617833343 5.718828211742763 9.688597425596283 0.5637107685675066 -0.24096867337172054 0.630459691958282
Ni 7.8885500961111745 -0.34370363171348406 3.023126730856275 -1.3347131299692627 0.9198080421849707 -0.08543827227016254
Ni 4.8521729876255355 0.35180850703553324 2.249364157587774 0.18802451707452134 1.4626177989337519 0.0682033964491148
Ni 6.0986052644871265 5.781090345299523 0.776101521142855 -1.3329529527450463 1.489050282093668 1.3192111776789215
Ni 7.570559334633013 0.07632144308007056 12.056331013285485 -0.7603795915805872 0.5016152847883426 -0.859216910865475
Ni 0.02846726503258735 4.868214363305283 6.3766884141701095 -0.5209463810167867 0.5874145399423496 -0.5681556917127376
Ni 7.108068080651209 6.42476770222428 3.0503412495508373 0.39106710482442975 -0.9495515919959905 0.5511331890128122
P 8.461729587527218 1.692086034408293 3.9430076604163142 -1.1440838282820425 0.35413886433951264 1.3803869778572937
P 1.7607262848211762 3.6285079342044533 1.9419251989027202 -1.2237911116056988 -0.9946839655582548 0.7369907803430017
P 4.50047978083733 1.2617507382922222 8.825329832555292 1.4273749165710579 -0.05495270208679568 -1.200013549570127
P 8.701444292208713 1.9311693329734705 13.209988684789659 -0.7823514678659882 0.09408437798093473 -1.8963711297727985
P 6.372296938877064 7.87196882244791 1.5819578267467862 0.5343945361018926 1.2773500186687614 0.21823832165374027
P 1.6735007326367206 3.255237109702132 6.395680012051312 -0.2987105081678791 1.0999248743766412 1.4151457214947176
P 6.8999968882917715 4.01987906737451 5.996979077444019 0.4355842134001982 0.057513263725120306 0.5228834501384995
P 2.176045096344854 8.575089862439203 10.908230630686221 -1.306333550385305 0.3784908108213159 -0.14704190401457257
