# total energy = -340885.33974358154 ev
CRYSTAL
PRIMVEC
9.14416302284720 0.00000000000000 0.00000000000000
0.00000000000000 9.14416302284720 0.00000000000000
0.00000000000000 0.00000000000000 13.38340689010416
PRIMCOORD
 96 1
Ni 6.918647548102159 2.2485588529046576 11.125719715393723 -0.7344369035728964 -0.16649409920191327 1.615539044547237
Ni 4.861722921493136 0.25626242790796766 5.522074146977464 -0.6359245717275951 0.9121718657959514 1.4050834521627091
Ni 2.9989105893825503 1.4870786699219312 4.53502117631645 -0.7089585567961338 1.026470256830916 0.7890211665766798
Ni 3.7909322771525753 4.825484603088326 4.700131843095306 -0.40397918490040746 0.6180613182939291 0.84738983632356
Ni 3.5090177284722097 3.2734183659438405 2.7915648620313656 1.4117343818203234 -2.0034259518714723 -0.13574936181988878
Ni 5.114696193930447 5.030103541000119 2.779051074815372 1.4958055985396304 0.02425887254736467 -1.2035480450859468
Ni 6.011016206132787 3.3015275233438874 0.1317884219898162 -0.41387176142377113 1.5359276633714967 -0.3143178756878328
Ni 5.773770894244623 7.996204873144098 12.479960213400814 2.3772350409464025 0.9209840647709429 0.8041464522538926
Ni 2.0979727748096764 6.47800861615894 0.011411001144931179 -0.6518546126942902 0.14924688208569134 0.6975323172370633
Ni 0.47306962082903803 0.37004965039949755 0.3616562230808564 0.6469124381976665 0.21194297556333178 0.41767673699215807
Ni 8.249425037985377 8.935182406254444 6.783580943637419 0.8958309625440831 0.8320748032330444 0.8228062334469248
Ni 8.877107826343028 2.794053903229899 1.3787047919915034 0.6742491783394066 0.1052221397653091 -0.06597193601543477
Ni 7.013371933758336 0.9713844471720805 4.8220281094327575 0.46597928075228784 0.7499046601911923 -1.2135907740339293
Ni 0.9329332412946579 7.599951708936671 2.5509179214662936 0.4100521305673647 0.3932373730028712 -0.44318208035211415
Ni 8.089905112531957 4.2749419747263815 3.824911072852912 -0.10861651015883875 -0.8092578053385289 -0.7995973994306294
Ni 8.009482197979773 4.351341457510178 12.883282730108558 -0.14873908921133738 -0.4196274329606257 -0.37097470494992885
Ni 8.431165279796026 7.522272043317479 8.971353057852241 1.8071085986605395 0.5406567149615205 -0.3627695434313172
Ni 6.942961877811569 1.2350929671004964 0.1693928783632556 1.5112509865604231 -1.9246586638635819 -0.09006265841605134
Ni 2.14832053689317 6.9099057281690275 9.102095387582278 0.8788331424345057 -0.872243147921814 0.5882300938651095
Ni 0.23930091975528486 5.446190394993069 1.4360533253519892 -0.13851561171111626 -0.6369874657744707 -0.41505344043669806
Ni 6.6064749636909035 2.135884475063611 7.085175560163061 1.1939303194905244 1.028335849284745 -1.8506540873516582
Ni 4.029119437841066 4.462196146892341 0.6251068776095712 -0.9198229545833062 0.7651034794188177 -0.5621652784572576
Ni 6.454050908810818 5.840742744862041 4.606354792737324 -0.6544575975347762 1.2507684115254911 0.6929182155038195
Ni 5.25315711174161 2.749704712146546 9.307396480062073 0.25689562901462204 -0.3946615070439074 0.3978748717748825
P -0.040873494685253524 6.159608856669794 12.210672839559006 1.1771829248288563 -0.7605040329735935 0.8377353439529315
P 4.558017832121713 6.143313958007829 12.60251211623325 -0.15001152816585778 0.30433839587761774 0.6699040139968334
P 2.568961184114886 8.984140255545224 0.7934874971165531 -0.27895389436624213 -0.4122455386742578 0.2797910455555569
P 6.83401831851939 8.024387183849024 5.483664089834036 -1.527470533743079 -0.9643670597422681 -0.3218959451454069
P 4.928383870564816 1.6438187697899218 12.709271134958456 0.5690764037547941 0.2777771004493216 -2.5236850770132473
P 4.408428467805718 6.301809737192934 8.115216156020352 0.17962523726723256 0.647393234488827 0.0631681480180525
P 4.893453167484731 1.4217527686643079 3.3556353652982005 0.09969426796854443 -0.1142060884314743 1.1382381681345428
P 0.5434440145396758 5.722197814304394 3.6657550850912672 -0.11339490538408858 0.7968013247427309 -0.055934349273774636
Ni 0.8963849357604201 0.1667557017223403 4.518425434688166 -0.07812399799693642 -0.3327349447424398 -0.9113624825207789
Ni 2.032116512091675 6.765601690130596 4.863757497785105 1.6231639080823466 0.20711418671612072 -0.388064313442364
Ni 6.695347084956699 6.082477840837201 8.934668504287664 -2.011977698096225 -1.428934547748694 1.3212431205072859
Ni 8.863528744124723 2.53738638889616 9.888209945983261 0.4328387894445771 -0.06811289361783754 -0.55350426034815
Ni 2.7890886226611857 5.184831924983915 6.972233258342892 -0.4461236794789414 0.949992536188151 -0.40879743222465725
Ni 0.8172586635372302 0.25108866042034683 9.088498017037752 -0.12989470281132467 0.03709459085945224 0.9200839215541768
Ni 1.517921932091859 1.529105243575352 11.395516419120757 -0.003148315820994578 -0.5948977356932722 -0.2537005191160921
Ni 4.160731377482859 7.45837263150501 1.1209500366639886 0.4941968808370844 -0.8981832648263435 0.9958540746069559
Ni 6.004999346806428 8.237245012722898 7.555106904212757 -0.20847944249476355 -0.7403591825946023 0.6207509493109503
Ni 4.988360436403107 2.892911450611782 5.182416951506573 0.07082335057046513 -0.8729278326936644 -0.3890719287712719
Ni 1.4054395816761218 7.848170016556798 7.181402331818205 -2.113804696137056 -0.7536828962867019 -0.9680532503446039
Ni 5.525323982546746 4.449513192658812 7.290423616496819 0.7598021218105624 1.0957918260448742 0.048199699633678275
Ni 1.2027592063436436 7.599540221596722 11.234178634041074 -0.5192443107240154 0.46774794261693636 0.4418813592628196
Ni 4.790169845157624 0.41663184611430515 10.7828501754223 1.099504756120087 0.8532792052248014 -0.9966472599322126
Ni 8.846328573314869 7.352044302862283 5.108004495366572 -0.5068899029237206 -0.7623359439760097 -0.8745828517985842
Ni 7.507266471654018 6.130192083945023 6.885548420893002 0.6774257762951753 0.41806060269413803 -1.5173275317718062
Ni 2.4937138658829445 5.327426004520783 2.64639487174642 -0.9903123188531203 1.709713668249133 -0.10504241965433521
Ni 2.966476242831488 5.754440133430148 11.283898192118912 -1.3029967727025884 -1.1193217908460142 -0.5885918480799024
Ni 1.2706180407827286 3.323802704679774 3.6590908190167215 -0.17879065718107917 0.7485070085127172 0.0827733238434897
Ni 2.009164662685651 1.349907079109276 2.279783426676271 -1.7264266101284396 0.7362549306182417 -0.5075249654045582
Ni 1.4843994301307102 3.6833786306531118 8.445585625020447 -0.5717956024581701 -0.25690771319948014 -1.366757817109633
Ni 3.7982201751512212 3.0059058741616775 7.450489448487906 -0.6570528690657781 -1.050330094167649 -2.546581521995446
Ni 4.433739511294115 7.103195047987567 5.958680502989187 -0.28205284500654004 -1.1162218117644518 -0.4460095224985802
Ni 8.247385889611856 7.612442635744889 13.612397147763545 0.10210107763782415 -0.07925708316011511 0.012982528302596994
P 0.47776149092076353 5.790148090374579 7.850692891158839 0.06696206784284597 0.5535050316790983 0.8211180471112245
P 8.875032101317064 1.7603154078109358 7.634898871510353 -0.06871813130200424 -0.06419890327541201 1.324196546708655
P 1.7045634453294503 3.619954715322362 10.504422296135767 0.9863227380777531 0.02244187394328393 0.5033389523476687
P 3.941317183659137 6.723611693129615 3.3869385788725594 0.7561835512213687 0.40045651645912966 1.1366677383236294
P 6.859402515312666 3.9918752614941595 9.811509620233146 1.9324622190684009 0.978276984955141 -0.2608841813487249
P 6.78542623575301 8.053721659105808 10.250471512661997 -1.3491825272300313 1.3499865111885654 -0.8145589058364682
P 2.6094606825289413 8.715411590069433 5.68802790559506 1.3925439249348017 0.7241715170911464 -0.14433196128257722
P 7.226540664177949 4.588019831285524 1.7207184382958338 0.06406392035944451 -1.187485335196129 0.29427741209719
Ni 2.953509819541551 2.1302699589140897 0.10162182789002618 -0.7666050036650087 0.2009836483383506 0.36659225961151704
Ni 1.8652263911716178 1.2298899382909239 7.218153637773484 -0.8926150267099465 1.0176709133717312 -2.878337647764385
Ni 7.094828138741945 0.8352132278036558 8.972597578451508 0.328194376559609 -0.8384537101761947 1.1274043107438325
Ni 2.9994318066798185 1.7024877203034872 9.098388343857495 -0.2699851152087286 -1.414180786478287 1.901511279212841
Ni 6.5799294581826615 2.4696464285775046 2.316587768777588 0.160879067007981 -0.06563743549415148 1.2609664351044154
Ni 4.775411165898133 7.003889436613297 10.33203013227244 -0.1647686318703743 0.5976089639768482 -0.9006846910919586
Ni 7.151604247491747 6.324020909387049 11.37325952611109 -0.03262241402071156 -0.905076649512067 0.7098589571232162
Ni 8.35138245666154 3.9188499748979417 7.784725984067206 -1.5114132231699002 0.09105561845693995 -0.12858858240539145
Ni 3.5862676184252336 8.184071704238425 12.286797083033191 -2.8842761247360067 0.30187913570384783 0.11141772705305972
Ni -0.12369217997224903 5.084017526696499 10.16935547054608 0.26647684494515395 0.12467819160739171 -0.1531158781227944
Ni 9.172601457241697 2.118419123523569 5.457525499584188 0.1903639638409754 1.477491630721791 2.0186857062440198
Ni 3.670357342384515 2.604778871016637 11.106554463931538 0.4232164358634647 1.3041470842569476 1.3191651549323347
Ni 1.2975841777940293 4.148935407070999 12.633869280369957 -0.19283607953055176 -0.06403846643814778 -0.9383354115651968
Ni 3.4696155296313504 8.731084685639921 7.8113995078589875 1.3249429379563762 -0.7729911096970107 0.6289183156130912
Ni 5.610364699469465 8.295145853535226 3.605007666302806 0.8270986901746917 -0.7904977511222063 -1.173910681835488
Ni 3.274771702084116 8.78584907850553 3.1186680359685797 -0.047290043335215325 -0.9488836193946885 -0.09346448500874871
Ni 3.52107887961426 4.481636637664137 9.184925045865004 0.7302074388725812 0.9956093055860014 1.7380911909505614
Ni 5.29492764882795 4.694759647268199 11.19726730523137 0.05078160142824158 -1.3421634155997206 -0.10736078337486672
Ni 8.047814529736767 8.976468302695958 2.6971312607620868 0.713087748473159 1.9135491842139818 0.3049958269559586
Ni 4.7495880492755775 0.746749850628876 1.1837987841351214 -0.18479546861426238 -0.8145406510040231 1.5943274434666284
Ni 6.296250086022072 6.051533992873063 0.5824456990363186 -0.723231007554748 0.43655994704990625 -0.6985646151563195
Ni 8.18899126399159 -0.07790186878276481 11.50978371017556 0.5560265125493714 0.6303103108646112 0.03265043904516957
Ni 0.5328056951775371 5.052579893924424 5.82633245821704 -0.06591125798082842 -1.2678832168289067 -0.47458476303311176
Ni 7.630767538617269 6.710608693187238 2.623335121215698 -0.13295920066926134 -1.1250566364472625 0.3341714200786503
P 8.74719670103969 1.90380561533258 3.4351191742989897 -0.8376906067579252 -1.1896620311324737 -1.302190474751209
P 1.8626477371746064 3.84994870586432 1.2831263415008562 0.6806183150905439 -1.6047252417611848 0.1024080673552817
P 5.023894654248449 1.103096972608084 7.904976301044862 -1.0001925540813097 -0.6972273844021347 0.23217652900138724
P 8.952940371014007 2.0405748629683966 12.543263425778512 -2.218860228417514 0.5209096142415803 -0.14735249327645591
P 6.487646564076848 8.31862806440163 1.4140908743944642 -0.6718392833463332 -0.33201709273980884 -0.9246679413804333
P 2.3460356316569344 3.274341926417948 5.707380612401 -0.08466668421146063 0.35477469815129864 0.30205268516723466
P 6.81850981788488 3.9346602329150793 5.561568701865734 0.6532478934973911 0.26662854003166986 1.3516764972964788
P 2.719620415514746 8.884450589320334 10.376316228630333 0.0016470486851197443 0.4006766028897358 -1.3357881082009964
