# total energy = -340890.336271628 ev
CRYSTAL
PRIMVEC
9.04474426979152 0.00000000000000 0.00000000000000
0.00000000000000 9.04474426979152 0.00000000000000
0.00000000000000 0.00000000000000 13.23789749560268
PRIMCOORD
 96 1
Ni 6.613444799332644 2.353505824598668 11.31649665940052 -1.177699459453959 -1.7555027015587896 -0.10495911591190955
Ni 4.79705208040741 0.36489664857093146 5.848119223535957 -0.7196054949870188 -1.3033726679847681 -0.3416846977365599
Ni 2.832135612521792 1.7965756837889937 4.825279823427352 0.349846664722062 -1.5980465441894285 -1.8874339751841689
Ni 3.1915828025488695 4.2865214787346195 4.919017746177223 0.26100887985204724 1.0125042815691272 -0.5795379654077503
Ni 3.7815172159336883 2.813403946722087 2.566087167326919 -0.9273089785477062 -1.37350619157706 -0.5949206185114077
Ni 5.209067325300681 4.569242101413122 2.3382889465004433 -0.26349745060185586 1.4362657913027843 0.15065430395617926
Ni 5.269658068512764 4.572896178179458 11.417369076589216 0.2704463711158633 0.6761564226644484 -0.3042049556235471
Ni 5.980339820587134 7.96176294713256 12.288581475909394 -1.3867990520312243 1.0693444304866229 -1.3605599158290373
Ni 1.96220304454428 6.790070569364822 0.2390887753497838 1.0479685359140083 -0.56508528031753 -0.5145008825017591
Ni 2.8738771082560457 1.5727634818509442 0.117266921017062 0.20841876446015717 0.5623534832086639 0.9050280556623187
Ni 8.335256625323298 8.348244878383836 6.625806251601334 -0.2666064285444828 1.0552936088205116 0.21031186771781202
Ni 8.647182727899072 2.642331649795182 1.2242170178604699 0.40893138669936024 0.6194970222991911 0.6896097199558768
Ni 6.928500383495427 1.0039847257840926 4.48482750126409 0.33734878936536744 -0.554226226115839 1.3351892982747329
Ni 0.9011116111183828 7.648543446097415 2.265229118560464 -0.8083286086560401 0.22027514957811095 0.09725609084069703
Ni 7.703598805693168 4.111026301761333 3.4896550700182165 1.0429502567638103 -0.35682078204705003 0.6953635917205185
Ni 7.573671051365422 4.044239908586528 12.571396163930396 0.02829113363520934 0.8927016728864818 -0.4837566593403669
Ni 8.250100356127634 7.3516044851102995 8.942292841554124 0.41332565911231395 0.054074413246900425 0.12174404867973226
Ni 6.932091147050466 0.8529320662695808 0.3970679001802848 -0.14356397276830116 0.6324841785874784 -1.2066012300899733
Ni 2.1609070358304794 6.469398198885467 9.200378293716618 0.4031967982084282 1.0251697928519377 -0.1873002373139871
Ni 0.2698201036393336 5.297099823238164 1.037367973152577 -0.11593078443206485 -1.4651806745649218 1.3439642162538854
Ni 6.259252605843292 2.2122088264707145 6.733946120972582 1.3334010960260585 0.16586520736866273 -0.15937934253400296
Ni 3.5588356070545295 4.656967078038588 0.19581057752988593 0.6078234426160048 -0.6586934899929946 0.7553736537255636
Ni 5.94524621203916 5.78922436991221 4.451931765622599 -0.8626624462119143 -0.49224361376545545 1.1049984322448068
Ni 5.421627865116648 2.8504783543092387 8.970476265326159 1.1683637838753298 -0.45910697911248677 0.48859264727642954
P 0.2990518132955705 5.8785140873311805 12.177952492859692 0.030914687300985465 -0.07972219572199173 -0.19677141002921597
P 4.044366535009124 6.453642254016764 12.26339005360841 1.0527158207910063 -0.46036964787499424 0.581308941265244
P 2.4992076132840606 8.579157204731722 1.198323723388526 0.6114330143441341 1.842484149946356 0.11194506031143947
P 6.379059291107846 7.74477048252574 5.557520628423102 0.06467918534594022 0.5905170901270733 0.8345014103966659
P 4.8926731189561705 1.1129377176832942 12.469093772640814 0.43544511671917263 0.6819851135310835 -0.4331025846289251
P 4.032563143474302 6.107002422160803 8.061046202717678 0.6066733881719617 0.3277837713847516 0.10942717898559219
P 4.797142527852122 1.1497679171697253 3.7395740223977287 0.5619757881542708 0.6234971445975197 -0.6988564353651254
P 0.43591055531154177 5.741305313704177 3.2503935400490347 -2.0363491849620545 -2.2184259690935733 -0.8604600392439569
Ni 0.6952396598388146 0.07568461278550052 4.7080716932493525 -0.8605770244377954 0.24129366081130704 -1.1488961620690215
Ni 1.7211515596442615 6.8191675123284385 4.338668048508458 1.8919742862566837 -0.1793195331013557 1.6342276220956755
Ni 5.974813481715275 5.471916644376116 9.014108112654876 1.0617979855979327 -0.46395916499846546 -0.547959933491153
Ni 8.878104098991427 2.5328178837387703 10.162892866100592 -0.2981708336143252 0.4085171819800771 0.24745119577227062
Ni 2.342706399700142 4.855354503268298 7.11603230641089 1.2324534152663873 1.3906220253217403 1.3482170779929683
Ni 0.5050214478154269 0.460524018440821 8.951969813663784 1.702135598791559 -1.168500052342878 1.7423173132167669
Ni 1.3859714190332195 1.130737774802473 11.615884937190419 1.0734263138654803 1.2595479574903339 -1.6393957965601766
Ni 4.132200048568243 6.92764113277067 1.630008574083157 0.3716557901773535 -0.15812078753655348 -0.35768724381240335
Ni 5.976649564842914 7.8199051748473964 7.898523902739331 -1.1143397642503905 0.38560428193764557 -0.37015992235811734
Ni 5.225754878849911 3.2927030457360744 4.401018898994622 1.2435713795564194 -0.7644887286529544 1.130588364898769
Ni 1.4757495526536308 7.043043027477786 6.843714948823078 -0.4137519480164552 1.0633375621709105 -0.10544196908559907
Ni 4.91762756895201 4.50648966427244 6.760925689255508 1.7943114468958712 0.823872212817594 0.14144872619751123
Ni 0.9665033046957402 7.94131277988334 11.61535491516441 -0.25387046903505306 -1.4802293413679282 -0.8793987851299887
Ni 4.70759955758796 0.24762068280939836 10.123351052221716 0.31727181610983424 1.5927318168447344 0.03475925785805626
Ni 8.122940293608051 6.967817887711418 4.505240585060977 1.085528239335337 0.6367925761548453 -0.09002254920673529
Ni 7.246224167277194 6.103728224662255 6.763771165866124 0.21953570030892514 -1.0420452284510378 -0.053937630558720015
Ni 2.520869776292411 4.84252905560824 2.6427612751575604 -0.7742460651500344 1.3677366360831347 -1.7013586114162185
Ni 2.352845558252276 5.357175016015392 11.429680782763315 0.659683878930722 0.4643772263724905 -0.17103672426727318
Ni 1.2143745269269888 3.390422465002136 3.823713662314839 -1.0905197790126575 0.05900887443404031 0.34914192534555355
Ni 1.6981598191986556 1.3566212232244108 2.5313110293098804 0.18417403298017956 -0.07197674744861798 -0.6550515223650332
Ni 1.1160581545258332 3.1942690916567944 8.22996132808822 -0.5823389251916552 -0.32012522639822927 -0.055939748590413334
Ni 3.716114668662965 2.6368324451567364 6.780702927516074 0.7031769171173503 -1.1038766599355376 1.4126039289094705
Ni 3.793257294257211 6.520781392225944 5.928883364816443 0.19025340640504007 1.2755160507838164 -0.3970269219522904
Ni 0.46197389097954267 0.4749847559012596 0.5930964560519248 0.3507786896180281 -1.1733800061429984 -0.2163007383113952
P 0.31248868568187754 5.73579706432126 8.002561076018475 -0.9428176157062665 -0.632795024959678 -0.6310127362482746
P 8.600520891172525 1.4474395024590019 7.458152479454629 -1.332394766248731 0.4310405598935738 -0.7843818680324556
P 1.929497248536683 3.554476040219446 10.34541671400239 0.32163420684358796 -1.8176696620058372 -0.3485084055266127
P 3.835876130205164 6.110159037981227 3.6982051701356857 1.5406374101423401 0.6927094419271231 -0.2086445073177181
P 7.204301776653518 4.032472696029592 10.140309043630634 -0.6466152186722219 1.0533521688234246 -0.21640975308543373
P 6.542687763335015 8.117214970357828 10.097947982900108 -0.3231663272173983 -1.9303132910461984 0.10863450788096775
P 2.5463035977452217 8.399193923989698 5.593090895004706 1.130592478663827 1.9860666346574183 -0.14441500791468675
P 7.091242470764424 4.306067171536726 1.3753908769508945 -0.2253767324707344 -0.26913330873139457 0.08155384961409179
Ni 5.464364282742725 2.9339703905222163 0.5587011017771213 -0.9080169630873135 0.10255179202199757 -1.7215273730546095
Ni 1.6740374856941584 0.9589238088289355 6.7938476546559645 -0.3900795441001798 0.16937013519812766 0.5676211593655064
Ni 7.146460635760658 0.7617185317016016 8.984243270885662 -1.0819844878481366 1.4338990908428209 -1.0334909111231234
Ni 2.8013653918310166 1.7245433388209344 8.919073173547847 0.6453623201017272 -0.6217446806827873 1.3148261612373484
Ni 6.486782197758975 2.142980352288705 2.4643274607056047 0.11850625846872494 0.012238451047720858 0.4104573364255834
Ni 4.547923638694675 6.884407254198681 10.089793241284939 -0.5430200729873744 0.4112255820501756 1.1947880395051294
Ni 8.21695136764095 7.240118964759183 0.14549104613921532 -0.05129710761207939 1.5235835399838469 0.22844097321835494
Ni 7.887026223567633 4.054143903782412 7.990620204367692 -0.32591175117301935 -0.663413006955851 -0.1956046434146244
Ni 3.3529319991693125 8.544986160119802 11.958084703985502 0.11942774184172981 -0.31088005365087745 1.7007454033122515
Ni 0.43507391644796245 5.206751870716072 10.086218758269949 -1.923188764186275 -1.5422057830707248 -0.08117744011127956
Ni 8.616937102387622 2.608757558318357 5.616522210031609 0.2646711591949829 -0.7801650017376306 -0.08303969013099893
Ni 3.8886703036831354 2.7032570485526963 11.1428285208104 -0.3863586436051669 -0.7118705882366063 0.30832026334350127
Ni 0.819456562507491 3.604158821599349 12.471251848671626 1.6095738281027376 -0.07221328893945629 -1.0923902565624928
Ni 3.4014027847900845 8.432777060210993 8.167332803946792 -0.15400136605154122 -0.9155446389229265 -1.2550860650642384
Ni 5.894007734610222 8.024515384273244 3.423347143825934 -1.4341325470098656 0.7155542077357806 0.20542600038042041
Ni 3.338912645239065 8.538365407166937 3.3589711750526843 -0.5970260948901848 -0.22126116764046408 1.1037285643934476
Ni 3.7206008619206448 4.246263321093631 9.228218017198747 -1.2996419972977422 0.9506209138007693 0.1504866680300634
Ni 7.466083815881361 6.2845145771511515 11.099249132999617 -0.6919170279328148 -0.5137714605349022 0.03627029518594399
Ni 7.895853894171454 8.931061077869877 2.4625266520814035 0.9207027860850981 0.31113047909878677 0.3331987717527358
Ni 4.62489441414397 0.4191958675288982 1.5026468137618696 0.33500034373784887 0.17162679244278828 -0.26165216986300105
Ni 6.0487904467446265 5.9081446702185945 0.13223235521898954 -0.7397984249951259 -0.6067165827050712 0.4357667617246495
Ni 8.05449871219503 0.18051681910365647 11.127021925372661 0.33709682125556134 -0.7637914454756135 0.29764247191468096
Ni 0.37202390721417994 4.954448723693971 5.743235462174316 -0.7971083144601885 0.3911252117558748 -0.3811071653982404
Ni 7.175060117778363 6.272267993137244 2.3766133377735046 0.8087980920932909 0.04654468052875855 -0.7544678540818426
P 8.754860410827844 1.8433822364270782 3.357461607200453 -1.1600148976900022 -0.7891682336775054 0.43338360620445365
P 1.9110278803266407 3.411849464654237 1.0842007555496278 0.4425809564330055 -0.9235142873919643 1.0410286142610654
P 4.885310696956672 0.9771399241937861 7.986317619422777 0.26102302091943436 0.7197996132756957 0.060487001641463575
P 8.557829697268803 1.8154791997336501 12.346563714816003 -0.8433660598761475 0.729675220518195 0.8886496143042953
P 6.3675724656295145 7.985957638592827 1.1851093517162086 -0.3900787727692314 -1.138867831298742 1.01698828548241
P 1.7663300582775432 3.1689709413710507 6.109686902319834 -1.3680258851887794 -1.2191384433250356 -1.2844143817147105
P 7.005163637632704 4.075806066790763 5.733147858665666 -0.9121893492974483 1.0773295055746286 0.03828963960881793
P 2.381019937279838 8.699208098096998 10.062364149201798 -0.6187997391218504 0.32384844088608744 -0.7517841366020923
