# total energy = -340872.8046742951 ev
CRYSTAL
PRIMVEC
9.26356681820730 0.00000000000000 0.00000000000000

0.00000000000000 9.26356681820730 0.00000000000000

0.00000000000000 0.00000000000000 13.55816641412783

PRIMCOORD
 96 1
Ni 0.8302508669045714 2.2572996047211107 3.040133979344055 -0.12249661057504065 0.6322365813530466 -0.5963033577915472
Ni 1.6726388588408678 8.132939081421132 9.539837709049143 -0.6631623243976256 -0.7420463404890382 0.3844609123618217
Ni 1.6000958683635065 0.401923924611871 7.611473460906426 0.5141023615117598 -1.278189226740605 1.1407743042928353
Ni 6.306089628470109 6.540874725347739 9.938068249635563 0.4581325310143594 -1.4178474366965967 -0.9360016212256976
Ni 4.087261616068303 0.659667845087904 2.0270406865112416 0.5989130275002524 1.528094026259691 1.3029042129887818
Ni 4.556452003590698 2.42624853337979 5.570562436042259 0.18574960499741558 0.06810646585993431 -0.41200951140405173
Ni 0.5825894123761262 3.5656209141438113 8.758209450804715 -0.2322965995190193 -0.049246395730637764 1.1279763811972188
Ni 7.210297106123634 1.4193081015194018 6.589715954180945 -1.5677754040097127 1.5142229247045533 -0.26319688864230156
Ni 4.462028468673607 5.224382950135096 0.20691565659527275 -0.37903177092645046 -0.014696682780226301 -1.2108402078719858
Ni 2.8914277965404556 3.588752040082002 12.333131912227076 -0.1887408264152556 1.099684219120745 -1.4617621358016761
Ni 5.508811500718278 3.6050837080952305 7.439311927331701 -1.6720524062529332 -1.7787562727700916 0.3391812145884159
Ni 6.139790079874834 5.782225670548354 7.201487454234479 -0.5813624202109988 1.194175345621795 0.8621124872457152
Ni 8.047890275959167 3.628214834033421 3.230883785769229 -0.053946629419784516 -1.8096539907902125 -1.678038191522723
Ni 3.3947636907541487 5.073331232254384 7.0690379045542 0.48280200873658147 0.357816570301416 -1.5715358994934094
Ni 0.9938695393098124 6.704895436545818 2.8280974231017533 -0.25474695810273545 0.45470705027257813 1.557532643235782
Ni 7.774735485995439 3.003266836769441 11.128244809007041 -0.5361516280023153 0.4665688347071706 -2.5694090614129235
Ni 1.9484245017346902 1.6958440933123007 9.658674447529515 0.15712165684807777 0.2270525775112606 1.0325874254722474
Ni 0.6427664677253775 5.332701835035081 4.679343405196077 0.3950708266671841 -0.19756228136162748 -0.6885835926842077
Ni 7.563813336821765 2.0842005982008738 13.09642942477407 -1.1205124687200056 -0.8223539764008547 1.6793743938356431
Ni 0.6507340614055689 4.7309034908426035 6.765769112107545 0.7456381716053546 -0.2221677386151335 0.9115856542751783
Ni 7.1210519049668335 8.616765904258841 7.931242518279435 1.250396630008369 0.4046397013025418 3.3499149914297406
Ni 1.8723150380950528 5.632368952766171 10.954062891544803 0.8279466399972838 1.7596280365810726 0.2643700830147963
Ni 8.661453349803828 9.079091988889687 6.227401187873646 2.1884970427446246 -1.7472540883967522 -0.7711931372563234
Ni 8.457608565554775 7.650325785815262 10.221935428079437 0.4444385784670346 0.9115062071874948 -0.7031874586403116
P 6.231101056395757 4.891422573844993 1.4056702786895243 1.53370263069572 0.9982531709667518 0.8121022167658596
P 8.63065199067508 6.461245106379102 12.548679360231722 0.8593310678458361 0.9759467941600676 -0.2508404239594777
P 2.6925946018518996 4.222528216368447 4.967292111108259 0.5894050880098172 0.06296091710325286 1.8035015980355715
P 2.452038302948041 0.93787127887875 5.776415561542173 1.7170680517316748 0.3785957118302964 -0.22111435764995468
P 8.908132866266817 0.5757723536745184 0.459058824671534 0.8102970452363207 -0.2904675514327965 1.2508943955803942
P 2.4560401637431144 0.5305207569202262 11.714553543395256 -0.18319187157256836 0.3516919454609169 -0.6115227458444629
P 1.835353407140555 5.538510495415051 8.44833758804619 -1.1686820864466971 0.9165892781373569 -0.053767937750075136
P 6.30258800027442 4.274469034604505 9.304305042342435 1.3510098102467574 0.26549879730260084 0.4473629512026811
Ni 1.111646525764821 7.922239257847185 12.002108547724589 -0.33920666850971254 0.022647819306502934 -0.9446754948506119
Ni 7.428880224921211 1.2768437099281187 1.9359705627233552 -0.01276295609262318 -0.13243469562435903 -0.2516966013121859
Ni 2.526786022289355 2.766101003261408 7.0668276175502545 1.1063310350133013 0.4274564420867413 0.5658093029677481
Ni 7.98947422463108 5.79670462523053 3.345572299101373 -0.6428015013530866 1.9418146068175783 0.0987910394279847
Ni 8.033263104210507 8.097098342031922 1.6430195308173314 1.2844470347248589 0.24618826989944698 0.12416937029177325
Ni 3.681313598101386 9.260278089099968 9.119629356573116 0.5909914586603305 -0.9695992546754849 0.438564893295077
Ni 8.758137194984805 1.39666794461394 8.731025514454847 -0.21742353906192877 -0.5895079321362686 0.10055867285136875
Ni 4.853460477691727 4.367688305856412 11.151605671398283 0.7218359269794343 1.295280635005253 -0.762956608279144
Ni 2.0775493573423955 4.4735708727260635 2.9865118237600674 0.49239170930754556 0.18690043077240717 -0.7011634862317473
Ni 7.885425843959172 8.613171640396601 12.43554990516766 -0.31271376442550664 -0.27489952179121047 0.4174525367964939
Ni 6.215640163648125 7.2488242798428715 0.202284799624307 -0.30140193895711315 -1.4372461529381828 -0.03134149042575893
Ni 4.7281707386793 4.566271384245276 2.954296844359727 0.5641303726034285 -1.239855364157413 0.9329435511256643
Ni 0.4745576980424539 1.9460252379709775 6.396091663022643 -0.9482112759180121 0.20694089436305008 0.19004180461486625
Ni 1.9730470619043783 4.758842407874875 0.6604200467003114 2.0686682088097346 1.8199795410859367 -1.0662544787073895
Ni 5.342132145890139 0.04187687942178005 12.866062122834336 0.3339279366092765 0.6821077551518768 0.9691403127611954
Ni 3.6638703020895265 6.533176701457215 9.13394712519549 0.05075511906568034 0.38114264662186614 0.5539570316148523
Ni 1.7302211891699801 7.436374450345317 6.408552086530637 -0.9507129592939433 -0.26541909310460093 0.45498781473779065
Ni 3.9407027280153937 6.509869567752575 2.134787082991932 -0.8776486352081014 0.6459194781567779 0.8801104664850327
Ni 5.659131396833224 2.205794174117851 3.174427905145397 0.4784578728352727 -0.0961533446948215 1.9859460499191541
Ni 6.496344760435891 8.18122079082836 5.947452498124949 -1.3287671967984729 -1.1333723554018096 -2.7848680205493137
Ni 5.775806018856256 8.916831355356107 10.650210494398866 0.4905993932938131 -1.1251723360895203 -1.301924622684332
Ni 3.2750691460015005 2.3679158541516014 3.6345103539323373 -1.0581506186533325 -0.22485711252183851 -0.3502482710358549
Ni 8.862046622156884 5.742531287430554 1.10228939708634 -1.5359574881681677 1.0374126147750327 -0.3993190604205768
Ni 8.661629357570279 5.3010852820406695 10.663525018752477 0.20496345892170506 -1.2249481080282776 2.289845301376824
P 5.547273829470929 2.7421546834575543 12.30003596763782 0.8546694007041088 -0.907219921107315 0.26536124328347205
P 0.340911295550315 3.8494658600277125 1.4871007350159446 -1.973429148399066 -1.5206715085433746 2.54561761542028
P 8.754394714056078 7.67530036151785 4.411745828868841 0.3758063220106173 -0.20254430795725115 -0.32065153121534457
P 1.1914243617999423 3.632587237494705 10.94850382519498 -1.3400029176132922 -1.2786034314598882 0.14632148090878025
P 5.316342376321888 7.729084629518304 8.420692326076889 -1.5334079822734366 0.7234197265267863 -0.4869258010969679
P 9.31127402353719 8.047399306926438 8.05045906299267 0.2577350941967819 -0.6396709261439049 0.30743811784886405
P 3.377746518808431 3.0244248230100608 1.5442476777122593 -0.05852782103256372 0.17586808421764552 0.044700428231168175
P 8.830902511061892 3.2803215882950343 5.178202217645281 -1.2795681093660027 1.4844647196055145 -0.5830832595568474
Ni 8.323592546753092 5.674888723713826 8.583688486802895 -0.031113947795985124 0.9105682687542576 -2.0906447130808257
Ni 1.1994558740900552 7.526925814400509 0.7831002389859504 -1.2687586774553246 1.06694713389904 0.6194983078507719
Ni 3.6453524323456565 7.857996423092939 11.444285280801306 -0.9112033312350952 -0.21302515288391702 0.3747776236357868
Ni 3.5723647906688427 8.23286517493145 0.7093835546133673 -0.09366117440058708 -0.2381810833242543 -2.137851709783931
Ni 3.6442315407803703 1.699818163407408 13.319407179592904 -0.1140777903837261 -1.135847299304863 0.3363568577657433
Ni 1.390350192155051 2.48694342210507 0.2972141252807759 0.06658231590592403 -1.131614492170438 -0.42331902287959994
Ni 4.9143499013167675 0.7486860888616499 7.238786279015229 0.8468367920335674 0.27280458693539467 -0.2837693134770145
Ni 8.14768667953631 6.301494899409098 6.044827405378406 0.4618310629118691 0.18765402110898002 0.011720116650405621
Ni 3.2390246081458742 6.420596575895809 4.692535650469836 0.3299185583395673 -0.5428367533319748 -0.8511657584262244
Ni 6.24861846094086 1.740170259757732 9.193114451779318 0.5117850262324928 0.29405244057057744 0.08373131688138483
Ni 6.598290311477056 4.017896028953697 5.051406222694708 -0.6530103235652882 0.44580280580441284 0.49734802487155644
Ni 8.322731035054153 1.2506000255937597 4.172512367283353 -1.8319899352832514 0.2933842108589592 0.5413956500100741
Ni 4.173014452596068 7.957579764637011 6.44750445795935 -0.4753974887423941 -1.8516077095141787 1.0387071652167401
Ni 6.23510291719083 7.25091784590696 2.9001188747764233 -1.4384635702850517 -0.6227371265030437 1.1086763953170262
Ni 1.7353995229302719 0.5326059857743258 1.4415452932753596 -0.6527251882247016 -0.6923158060331303 0.8537078081217879
Ni 6.9905004600942195 5.161261006946137 12.788766922662825 -1.532760835607741 -1.044851073330949 -0.20244120672048363
Ni -0.1399206161877482 4.087928592867482 12.908607831768625 0.6579689531221442 -0.18989190930056327 -1.3401777526282597
Ni 0.24249794247480186 1.1519986221151446 12.051948389043233 1.069248528338707 0.3329388332231299 -1.6297076227381353
Ni 5.557463752791717 2.8681021357025047 0.910386276612586 0.024163484620080965 0.2340701464796743 -0.1493839218841879
Ni 4.346798963048795 1.5317029557477029 10.945873898621553 -0.5748840115755067 0.7872915854800827 -0.274062884822528
Ni 3.8225829895941406 8.996850044124265 4.397645754062866 -0.11188386805620086 1.04394115992217 0.05502340742373104
Ni 2.9807748969304635 4.096590027690152 9.49418685257201 0.9704816572804382 -1.8460353576327238 -0.05765878816404909
Ni 7.788158394078914 3.700618871010953 7.276396359635595 0.8889427200646819 -0.06385129012800617 -0.14141118809135647
Ni 1.1182514487900233 0.24270081458455214 4.3418939045048335 0.5402887900991405 -1.5927531570009732 -0.8340571237703959
P 5.899585796503875 8.873876196775656 1.5467293872192045 0.3144834547314197 1.188519432887598 -0.21484035171578486
P 5.402363856282657 6.593899380882462 11.807793194493804 -0.5040424061725964 0.3330118525529104 1.2653241978524787
P 7.746287072797127 0.5204382909726384 10.56064570019246 0.3432121901246799 1.2753849245225906 -0.3288160693040079
P 2.5289722240199968 6.639022214060246 13.129253946860329 2.0170710534587326 -1.5156894819477509 -1.6420139509093141
P 5.868840018775059 0.7021014648656654 4.873591134390279 0.21640821042353695 1.1359280319441276 -0.08782914109984229
P 5.400890949184469 6.021605496486995 5.209291673697007 -0.37243791975901663 0.19930111842960516 -0.9509559285426847
P 2.560079280848368 8.181961876160782 2.863742701234538 0.23717295377471412 -0.03895606954822323 -0.8415791431790538
P 4.078942933211877 2.1395689360993786 8.70785455518004 -0.480473617713721 0.5054919941349294 0.10144107545632207
