# total energy = -340864.0252280992 ev
CRYSTAL
PRIMVEC
9.33529463087133 0.00000000000000 0.00000000000000
0.00000000000000 9.33529463087133 0.00000000000000
0.00000000000000 0.00000000000000 13.66314731832566
PRIMCOORD
 96 1
Ni 7.329037030890984 2.25192508855778 1.8945597459237087 0.7041171695434325 -0.21460509577652717 -0.5859502966919973
Ni 1.4251727362387856 1.4705982793202905 4.53692979320872 -1.5451880056275 -1.853526009582814 -0.7651461597312952
Ni 6.6540112202291395 6.352695919357432 8.659702979636977 0.13076424990047156 0.8208444817348637 1.5056832626646584
Ni 2.828407530381078 3.4552725566702374 0.6432335316814958 1.0118651053232317 0.9476836855493163 -0.4079800785296845
Ni 5.386548949427868 8.426802318104997 4.606147267876235 0.14617235692542568 -1.9002473248987535 -0.5555842828056302
Ni 4.9364663952584085 8.550532311529219 8.389404194771908 -1.0177873843449374 -0.9706945446221926 0.4309361731052256
Ni 6.122944986192838 4.281502132496719 1.284349818568317 -1.3180806636189042 -2.1542219236118383 0.3882718014674797
Ni 4.152833768277159 9.084455145685322 2.044294135732608 0.1361278282052301 -0.5470816446512577 0.7212965095361965
Ni 7.0855445442089255 -0.059003728945057766 8.588326251349498 1.523413075844254 -0.26166913914386547 2.219889183902661
Ni 4.903606158586213 1.6565946871205168 13.358103494911497 -0.14512720349036295 -0.12638334722395655 0.2685859208683568
Ni 7.46015124227194 6.573905058046158 11.283163454364262 -1.1487966603766797 -0.7567527934612773 -0.45491993761433264
Ni 5.978247921301073 3.478116022334117 3.6111701079140746 -0.47953336528763874 1.1649460164430325 -0.9263885236159658
Ni 1.178954343560058 8.1715286897524 5.10537174587129 1.209669327492336 1.916154740157629 -0.6082741570001783
Ni 8.527810204693958 0.5697432927171451 5.493801214513996 0.10607883133864957 -1.0066002573798665 1.479117596360988
Ni 4.6798858256745275 6.304740511463949 10.975154747329498 -0.09004594624550298 1.369701987339622 1.7322676422902488
Ni 0.20055946723449428 2.224796722714202 0.22216133872865831 -0.4206666728584174 -1.6259972637660836 0.311218925047535
Ni 5.953640084974965 4.436113280157197 11.902609722107004 0.7068052578985569 -0.6238882093883514 2.223573574732783
Ni 3.591063750600276 6.309557523430668 8.997196280849431 -0.040306412928530586 1.4268581248356396 -2.265704956685195
Ni 4.5772629331354855 6.467548047703456 2.4734254884351907 0.3714958675607215 0.3017325828236545 -1.2261328723649978
Ni 0.23233587621417662 3.2009791342410976 2.6195667233875204 0.25648373828818405 -0.18776766386870886 0.6501067767652481
Ni 5.483262600542622 1.3896612759259939 10.140473929383884 0.5500546112366528 -1.0019082512208357 0.4751640325753494
Ni 1.4370285602654012 3.536853695385665 11.869681337784893 1.2332178042362374 -0.9982338876930421 1.0713126099565873
Ni -0.08479714767382837 6.873950758864622 6.307387067457292 -0.8587008904610051 -0.055693951128194405 0.8121492679537109
Ni 2.2758514483847216 7.2270022619060175 1.6382116251731065 0.8446953202105324 -0.8142933108799073 0.9275820297034346
P 3.5117977649231165 7.131950293213892 6.804520439482298 -0.3122957030514815 0.01579968603641795 0.33004762771826385
P 1.729129925456582 9.307381978563729 1.6857861530506166 1.0992921258886486 0.5688696870606268 0.6378780959095401
P 2.2503474237857346 6.988774881327118 10.62856233455898 -0.20112043102653104 0.050853078096125326 0.044189035812388415
P 6.581363958358965 4.312177910253774 7.743793897108384 0.8165013742748197 -2.06137373203085 0.1137682295631073
P 7.885000495383178 4.567068791531498 2.2949309233025144 1.0543263598112358 0.36284539097457513 -0.8018224321064061
P 3.5586702786535387 1.4243979067945265 8.383597641587219 -1.352347298111258 -1.668286511452598 1.132158023378734
P 7.468394307323516 4.454513145634724 10.353509084200402 0.6894361704924901 -0.17992245679267724 -0.32877158921931765
P 9.2009969623375 9.111872905658682 7.669629649880473 0.39670759093965874 0.9179655896595933 0.05283745551600578
Ni 2.502540404950316 1.39604661737025 13.760975597689301 -1.1237993670013935 -2.6079375565054246 -0.011540910760063994
Ni 6.535004885826545 8.147424959329783 6.781853410884641 0.4979365503851747 0.08465151470280904 -2.457599241127767
Ni 9.371888863621928 7.16509058872136 1.3290453416192065 -1.1938608997051696 -1.2531492530528416 -1.2859832688637272
Ni 3.0807685468468238 5.038827899551196 5.59343307869231 1.3788936811412187 0.7447280010862594 0.03627877982637623
Ni 4.986708950306633 5.478884347417831 7.056701284764017 -2.266562933810116 -0.20021925936850035 0.08164255267315618
Ni 2.3569471517856737 5.6750282203495 13.347460325641618 -0.41418337912691894 0.9447755107635858 0.2414294150582229
Ni 7.2432736802354585 2.9939783137952927 5.419104855499064 2.6002728408713156 -1.345174948732535 0.43370165166550473
Ni 1.5342649878726666 8.781440821212948 11.772454245472137 1.4736385755242878 0.6460878854138421 1.6220943291672516
Ni 7.611485701559707 0.292568129916638 11.841535424839819 1.295994373242826 0.17846541263117652 -1.4265048552612787
Ni 7.117443245546678 5.920219730632222 6.3793229798858695 1.2274418209844087 -1.4879344233216698 0.6187115502834184
Ni 9.174503396520544 8.120212575835621 10.637511147875447 -2.30844106210114 -0.1112637179736987 -0.19703263411040262
Ni 3.645712564656817 8.20353007932975 13.54825410876829 -0.04783794541888536 -0.2920912030791486 -0.13954482430657902
Ni 7.490425602365101 5.686650662013387 0.14948980509275978 0.6576683911625899 0.9391087993961117 -0.7882089550880296
Ni 5.487444812482719 6.007009963683752 4.717693768436569 -0.5898905122866679 -0.5514604904452437 -0.5880526877469808
Ni 2.414723289502779 8.965103405385888 7.71089258514035 -0.03275636849541456 0.38922079564431034 -1.2525707548415523
Ni 2.098480852710946 3.585145173881477 4.169678373689462 0.46766669575703973 0.6107956378704513 -1.122610746009931
Ni 9.128134988693615 5.666234372921885 9.339581276384676 -0.6797125154468229 -1.4050916796928252 0.06989132567449899
Ni 8.129174458564403 4.799265571857488 4.421886291325258 -0.6373317364877669 0.3959601712506729 -0.35355419548063627
Ni 3.3419047401511675 3.431803626274244 7.843001938915981 -0.8839948891411032 2.4844418152419085 0.62972795599858
Ni 2.991196396031567 7.044431907190647 4.050208075149764 0.06981830634471846 0.3975241733036831 0.8162344937666781
Ni 0.8825326040700444 7.530436674631301 8.787985796193311 1.2675826548693523 0.4382257647881034 -1.0553607146130213
Ni 4.445299209954197 0.3360425964457313 6.319178477951794 0.5735061573913737 -0.3143358734099619 0.5967065067672368
Ni 3.316886150866656 9.025736143222792 9.982595428645208 -0.26656760488674736 0.14300321516882467 1.3026309047227373
Ni 6.657717332149271 9.16273159014451 2.668453793673016 0.5137444639517087 0.7156645080613997 0.18164226769726136
P 6.518976185154342 1.2354888871074465 6.354169962360427 -0.37341828139441496 -2.072521006896921 -0.9996798761109491
P 0.9212021945152802 3.9505286009694545 8.392533385491372 1.1219288894515582 -1.4503819189891924 1.576275471060924
P 6.955018456382046 2.1799499678922643 13.218042337272973 1.1234985479315234 1.0533046034149407 -0.7120724198347672
P 3.4567662037917004 0.5092207113554492 12.043653886257339 1.3681595825531663 0.21191186521508024 -0.7737878945666932
P 4.093377277548408 4.667656589867547 3.533071034050559 -0.247258105924858 -0.3276343902910809 0.9253359139817354
P 0.8253875322617577 5.132554256423021 5.102502076339179 1.0034848516793362 -0.24022382478589593 1.2368489732309214
P 6.190317806665345 8.077550279928825 10.202053266084016 -0.46677272318786056 0.16443541690067165 -0.1830059808140074
P 5.7791634305990245 7.745745907190246 1.1102587118556047 -0.624151490352067 0.5851673957793857 -1.3840613413850873
Ni 7.879670042218455 1.901944897409894 7.971858876084625 0.9409623076650827 1.6433876913283891 -1.1775745038403205
Ni 8.050337896434664 1.9226785865147076 10.296097022969155 0.14081546348888654 0.8329669760300106 -0.3815077432707688
Ni 7.131707575556654 6.752759965546886 2.5118607629882477 0.6315192435710478 -0.6991174023359961 0.4704167476983512
Ni 0.19786996888640931 4.294086109495049 0.46784761962036475 0.21386590361765748 3.626593716608561 0.4829938130324133
Ni 1.6756293526246655 5.60538692331127 7.354134036649372 0.09716096002372944 0.6696517887767112 0.049318900839786024
Ni 1.1863292262222833 0.9232260863648631 9.640033062514288 -0.650478301172054 0.1206670135654696 -0.08372900288853967
Ni 4.949955895824124 5.671546155497588 0.09025176025552244 -0.8916722031807031 2.4839561338547416 -0.7029262345591248
Ni 5.725513493054962 8.498179979921929 12.267060553273518 -1.2886124789564581 -0.6512234068681946 0.5019243313883291
Ni 2.4033809066741663 4.8140713489489935 10.185643685395839 -0.5034765063667974 -0.8048162246274075 -0.17925885506674935
Ni 8.979171694211171 3.9488669185468264 6.7282258780474 -0.8328476768433268 1.7328368845301576 -0.6813780760747039
Ni 0.11927332382555576 9.235574893199377 0.3336555616397426 1.1072568892616803 0.11550706663108494 -1.3092682075335966
Ni 8.507776662677331 3.5683136378814866 12.087321593382772 -1.8648406632646852 0.18917559995982905 0.21867695185305563
Ni 5.067365894865655 1.283827042075805 4.060646801469891 0.15075689097231457 0.004685578401127414 1.2269671953408354
Ni 0.16693466994200107 6.454656005986325 3.5166073086542284 0.7103374394215315 0.8669662157935907 0.3260336214628643
Ni 0.5649374831038367 5.897693664981652 11.727134191218584 -0.454540699898043 0.48889346634629993 0.26263818792535415
Ni 0.8080938991835644 2.0059680841253087 6.9921290526442545 0.3915152481054418 -1.0681660939078055 0.9643524044542489
Ni 5.10929070250623 3.0913361002311777 5.758893705631316 -2.2264069304165206 1.6206372850057507 0.11832473858553814
Ni 2.986435395831903 2.054698321463051 6.057009801074739 -0.31334008515559586 0.2600907389131521 -0.5299475560741325
Ni 3.1695752035123306 1.780903468804306 2.7453495480743033 -2.0748856504743554 0.16323419750371887 -0.3618732568692929
Ni 3.4271733201977073 2.5423741066208425 10.36766419126462 -0.4435047537988555 -0.2643258600404222 0.4150994631832851
Ni 5.419698580229845 2.1901441094962517 7.857949612484025 0.9740665464182191 1.0120810779887797 1.6350570599755068
Ni 5.317197046519421 4.505521194832697 9.747220914068302 -0.4369996056904861 -1.492755755969713 -2.542463128951699
Ni 9.308399525665227 8.96080916991168 3.013816748156679 -0.08358887776624958 0.03844339157786283 -0.05771638087486189
Ni 7.265641045879373 0.20874558698956447 0.35336703599580455 -1.9737289390276715 -0.6245204436557115 1.8263471351751774
P 3.76604451087971 4.486962629348516 12.351539367404584 -0.13880717480960608 -1.351881414218433 -1.2868877829558676
P 8.347807055968604 1.5158371165116122 3.669989931557302 0.6960415916241496 0.849563446936111 -0.7601389363246909
P 0.31351653079516184 1.4596666494500803 11.891884402245447 0.42347328906927717 -0.1356511456791277 -1.4140802563446808
P 3.14914024383181 9.333688838490502 4.54971914668625 -0.0997307776334347 0.1524306791303117 -0.42490333664758434
P 7.492806102464933 7.160310917932677 4.717406241365688 -0.06122593669001714 1.1905791436301045 -0.8579455003522192
P 5.187193735185053 2.053531409649408 2.081498084939908 -0.3946584217201139 -0.09673569956085275 -1.4541257023023408
P 1.8629140310671544 4.922295418193524 1.7565747577840203 -0.7750875872147233 0.9004016126339008 1.144596249142087
P 8.515926374783815 7.571670670478199 12.865328771892809 0.488737657494726 -0.09671641628714311 0.3236388959784426
