# total energy = -381173.962910522 ev
CRYSTAL
PRIMVEC
9.17129250755263 0.00000000000000 0.00000000000000

0.00000000000000 9.17129250755263 0.00000000000000

0.00000000000000 0.00000000000000 13.42311363326458

PRIMCOORD
 96 1
Ni 8.685415707134739 2.8843898143076823 6.801249797493292 1.9331643873417481 0.8810190943422311 -0.2316419966541559
Ni 6.012928604604976 1.015894892054892 3.3366234930333105 -0.6292080789393679 0.6598350597966055 -0.1586244666458494
Ni 1.4642151802972638 9.124427133552633 3.242178440636953 -0.3106306566442327 -0.7055513308867978 -0.2666398528855795
Ni 1.929373961455639 0.5533306695272017 0.8463140263609544 -2.007018811429053 1.4091594220042958 0.863413722555642
Ni 4.272061387918146 4.086434428974841 13.109764571725899 0.6192774500892173 0.22857184236926442 0.42784082200935347
Ni 3.118496225077782 4.3151297772065735 11.203467416302532 -1.039897071759783 0.7787773773614846 -1.319278026361115
Ni 7.66477008559701 1.4950307228886426 8.78185734989483 0.7785148677287173 0.7026256725995705 -0.5976058786530546
Ni 7.279713372591344 6.792277522101284 2.1760074405666807 -0.4627152652890354 -0.7973078320655043 -0.934992720345209
Ni 1.9454145519295445 7.234847409985086 0.8954959991884924 1.421395044838539 -0.014816239077226094 0.3498561778037587
Ni 1.645696715058634 5.340544470812016 9.613647717551109 1.807417645260526 -1.1783530338775576 -0.20499482638027278
Ni 9.190643864954346 3.5452639760910643 9.414233554685893 -0.7031391219008793 -0.34701588014148627 -1.0923594033245576
Ni 8.4797494742146 1.3602952656833018 11.932973110786529 0.018081282981743056 1.9141353957347553 1.376340318591746
Ni 0.9093776674225136 0.5876303861157426 8.676472779878534 -0.7489206990113682 0.3096418103684022 0.08204724431074256
Ni 7.023036411131547 1.4930772375993677 6.374811295878531 -1.5031052175248372 -1.108318240646659 0.8964716814518755
Ni 4.2413192156662705 2.5805724097170257 5.761065654545838 0.7271159444314509 -0.9319536764085691 0.14901085481548532
Ni 0.7839859229529157 6.205865083621296 2.809148531147066 0.15996941070951806 -0.716294685446231 0.22609201337020418
Ni 6.161375144004993 1.7341079741600898 12.771810699552097 -1.510614381417689 0.04997478925623006 0.6168145903710216
Ni 5.077255007504485 4.563552575472251 9.012949156840588 0.20663236198369575 0.8097982512230312 1.3873893773170556
Ni 7.119298296559854 2.304048771421591 1.527805253544759 -0.6423597858299775 1.5275960035773497 -0.7210509691842937
Ni 6.652965589969425 3.6798068361552096 7.820467448798439 1.6728021399347641 -0.42836789815741705 0.5994588727013934
Ni 0.6567314889891781 1.8169522587517342 4.5510126673218965 0.14261523570178664 1.6991816583695574 -0.7759779602394765
Ni 2.725964908735219 2.7431885959336144 1.0731833702682991 -3.910976238189542 -0.04635878977019758 0.13418587398751083
Ni 2.1072511782889105 3.657016174447002 5.7911474937421845 -1.2316023801200016 -0.8972954629047514 -0.10878311764369006
Ni 6.808822533659274 4.014054589054853 12.463965263322711 -1.6248850045385115 -0.03246583383818925 -1.5945187335418283
P 1.456731405667929 2.4809354886715678 7.746921937609591 0.20266977779152193 0.9257040959544316 0.37576904101477865
Ni 3.2378789387420612 7.075413662244452 3.0451405596423995 -0.36208460154915056 -0.32551451573460066 1.1673309717354412
P 2.1665986116546283 7.905901706374549 9.955305874740583 -0.6696415043640661 0.2465788204696463 -0.71213798296538
Ni 6.885586251364584 5.991412752545639 5.102930957813659 -1.1564107252785116 0.749516166503522 -1.2132909834053234
P 7.443200831589533 2.9338322518404567 10.7048526774599 0.2227259251114487 0.2553113152466377 -0.8213345339974049
P -0.08277733415684747 8.087933518682194 1.8881755986953022 0.17386673751690057 0.12786224576232819 -0.8853321198952883
P 3.2103375475510165 5.912163614589655 7.674705346694998 -0.2294143928752178 0.23170396024034287 -0.48046487596297255
Ni 3.6989014670109386 4.637766673879821 4.437305149418196 0.37783312263265895 0.4842027457388499 -1.944221673597174
Ni 0.41178827907444354 2.7200952815749564 2.2128677820038862 1.1682514266671815 1.2287713384291095 0.11974990106783893
Ni 2.5031025024939972 2.3144215031688673 9.850162509715405 -0.3879761246039318 0.9575963166773379 -0.7490651950090326
Ni 4.700103948580299 2.7144182515558897 1.6109613620792922 3.532661290824458 -1.4927567844109775 -1.421328710376978
Ni 3.468069207641173 0.005063470554970307 4.629726201799506 1.5722167276105183 0.043563229302931425 -0.04458987079523288
Ni 6.365418058163622 6.428122184561616 13.165215122934748 1.4797364608919097 0.25185575259786946 -1.6572976165412618
Ni 5.116856648251383 2.091944291210038 8.62131662715694 0.00454236795504379 -0.4010296153537803 0.1391630154871281
Ni 2.1421662886000354 6.206268620488564 5.513248161581062 0.49978003135181664 -0.455062633839784 0.3672198658931869
Ni 5.666895740922619 6.629615479422506 7.703672873860138 0.03558226797998388 -0.372254600103617 0.2905511122855383
Ni 3.347549253714593 3.7284880564156375 8.096620566879382 -2.707491699351679 -0.751255517792132 -0.9073495047066439
Ni 5.9721346958411505 4.764504764079305 1.201203607150602 0.14878639750950506 -0.5335661266633263 2.0211519083963254
Ni 4.870332307520353 2.9702606254038373 11.04186649215882 1.965302405526873 -0.7155503510810387 -1.3249650494435634
Ni 5.231589516649642 8.500669192265473 12.214979347701346 2.2859115135400567 0.15837326986699177 -0.1762799749440835
Ni 4.053105952255475 0.7706160128369299 10.535049866488968 1.2546060401040264 -1.3935250579011484 1.6796168488637526
Ni 1.690287538891754 4.682174071864184 13.020823211921533 -0.05121508942123438 -1.2676729005903136 2.667793866541425
Ni 5.854090990872807 3.4287151917900998 3.456921501682893 -0.47689309945131414 0.5708700053201071 0.13129723958580614
Ni 3.3289498726505107 0.4960311857628691 8.479394545197254 -1.0954472982212617 0.45017676650239247 -0.24061077581166948
Ni 6.601312870959115 3.7849098474936618 5.582578546765445 1.2513610508041673 -0.9660696442556717 -0.5547641008971801
Ni 0.8989306482064899 4.997923327916562 7.395692619631915 -0.3503706555463321 -0.06588014763257685 0.18262674309771773
Ni 3.5446036430355354 8.18274633990531 6.923453600711472 1.3736738275031761 -0.916751514746834 -0.636328492034233
Ni 4.7382014973673785 7.370986074933428 1.0490903850339086 -0.36819482821194655 -0.009641379744505976 0.8674549825045511
Ni 3.3853441498512216 4.775005893920712 1.84150380860802 -0.36725149046207073 1.3638205888581802 0.5434139659916835
Ni 4.74126470904164 4.746895882598517 6.475470816030816 -0.25123868783916087 0.617545040779143 0.6060884622027691
Ni 5.7514825710774655 7.972393576549399 3.6783623575962388 -0.3991961616894673 -1.1718859380959754 -0.734983777215302
Ni 9.130159191326326 6.475097544428593 0.22643829316276287 -1.9936801853386181 -0.683701582001558 -0.5766832695677745
P 7.664605002333128 2.1331600794260073 4.46931937993121 0.09237690837152478 0.34262957814833245 -1.1292264515542358
Ni 6.580842546237698 8.17519836622891 5.904344170657092 0.4855970549832153 1.1748393642973443 0.6627818011297554
P 7.804641466567581 6.790379064566637 11.501018076770364 -0.46026346131443313 1.0699437546335187 0.14106383205426673
Ni 3.212520315151239 8.692486773604369 12.876792649830369 -0.8458937113940076 -0.7097620265340358 -1.1207042730158379
P 0.5999079953023732 2.472415357996749 0.09228429589798536 0.6308949797234876 -0.5914593994356846 -0.04120424215245162
P 1.566300836423644 8.19156912323058 5.277457901519362 -0.42538901803475127 1.0641340899302771 -0.3269929000523401
P 1.4456524844029333 4.148854245307259 3.6254751826237848 0.48754312296599256 -0.0032005092151686817 0.49831424543956765
Ni 8.325148997588744 7.743624857978164 4.0078327842649735 0.38269996380665705 0.4380308751684779 0.36354524525507714
Ni 5.341745910121383 5.406376007931337 11.092659861067698 0.06346665309507779 0.49449872834821934 1.6821861522528254
Ni 7.505666504384141 0.0788373469255212 0.2903777926521425 0.282448537783062 -1.3910897089867784 1.0555936565594335
Ni 5.690585189289741 8.826176703471788 8.379593458017156 -0.7885907639074805 2.58628141168823 -1.193491689291209
Ni 1.6034904272593704 0.4218620266882443 11.094163035898271 1.0137859764950283 0.7485990540058914 -0.09168605295208726
Ni 7.275925628814487 5.671628127820581 9.561498831619907 -1.389579185879523 -2.079554773815251 -0.9368495710482898
Ni 3.697654171239383 0.078917137169731 2.2599687885772624 1.1458710020894525 0.8690444384788583 -0.3856323069621036
Ni 3.592468618268989 2.2812030819587563 3.438008462417434 -1.4358536434660303 -0.13392387857537583 1.1772631432474887
Ni 2.112487986270957 0.9504668918028396 6.244016743033759 -0.18554854473020302 0.7657174588537329 1.261443374740834
Ni 9.132681296746751 6.690476176040479 9.687770103034302 1.425015672310262 2.460749613831291 -0.47817710837006044
Ni 8.63208464160829 8.874802895977588 10.515090382756343 -0.9396086218506657 -1.8783016738655973 -0.8545804405347283
Ni 0.9578772960926711 3.0396873091588184 11.495595091551825 1.126333446277157 -0.8474327737463534 0.005161232485965305
Ni 3.1884365012092863 2.0143184720155647 12.424393887840859 -0.3945874592728624 -0.586641666332067 -0.7762990910243212
Ni 8.849774438914531 0.1453053717400327 5.818410077643117 0.22952083654609504 -0.256513563084855 0.6437579517290848
Ni 0.46499094650676154 8.668925723331377 12.811180306600315 -0.2058795429780712 -0.9618892876257369 0.5317175034903617
Ni 8.990159412261624 6.9671190411376065 6.285654410701873 -1.4866858956265492 0.3896625111674193 0.3142723671618781
Ni 4.568706841822357 6.954077463290899 5.408508333423151 -0.002413237427182941 -1.549988255229621 -1.1587018353055334
Ni 1.4545578093601441 7.688743844029708 7.633536332070462 -0.047511929538034306 -0.38348697848432667 1.7178812916615898
Ni 8.958665194029841 4.964723249291326 11.486453147249719 -0.5647600357676273 0.604516746840275 -0.027714692306449042
Ni 7.912514208222282 4.460403049423073 2.905540648927991 0.4706265497163121 -0.029442216520517032 0.2559867440471075
Ni 6.513506917158561 0.9449182598779038 10.606259449493878 -1.434277557228162 -1.0277491235433398 0.015649790722114983
Ni 8.404847528874186 0.9093923414904144 2.5982849268023624 -0.17248065580265132 -2.5757442596023314 1.2896470908685596
Ni 6.019366851896389 7.554687062464772 10.107389748721475 0.5750932993728354 -0.0022497152661251577 1.5411724567102039
Ni 1.8977513451297243 6.450775276883255 11.748164231128683 0.2786674734740749 2.3161494864889915 -0.8304290400995054
Ni 8.348379881333972 4.1117930525656625 0.4819688430678211 1.8546727215927479 0.7466097914900044 1.1974136500534345
P 5.529335525646401 0.3849136408436348 1.0794803796561683 -0.22191037118868878 0.624287501709299 0.19091443702780667
Ni 9.041417765697107 5.168362626582687 5.004096524856519 1.047012856868958 -1.8953907681373998 -0.9657361721756529
P 7.506115897713599 5.540286048817266 7.113632272091713 0.7309959962121475 -0.038494042310140156 0.3696405595195376
Ni 3.843037498965138 6.540204549445318 9.692145726656427 -0.5905595133292345 0.6407065664972708 -0.2246290556714325
P 5.034645182837955 5.826026836012801 2.99644191392634 0.6961110114095044 0.1501413688755027 0.11854251102329906
P 5.102687001434811 0.6633430737076677 6.314729241988536 -1.9344319412002617 -1.0503470634485137 0.45227632934389844
P 3.815514450358969 6.220924345804345 12.840536696564822 -0.0451053769790707 0.14593041611794866 -0.23480676753538268
Ni 7.951327117819519 8.394786621069798 8.05209669348106 0.7076827754075038 -0.5473629233371025 0.10998228015811382
