# total energy = -340877.0694765285 ev
CRYSTAL
PRIMVEC
9.17746303850810 0.00000000000000 0.00000000000000

0.00000000000000 9.17746303850810 0.00000000000000

0.00000000000000 0.00000000000000 13.43214482903745

PRIMCOORD
 96 1
Ni 1.3385697136838897 0.4464092459311393 9.384354396638768 -0.6712345598827989 -0.25478886708426446 -1.5278993937503815
Ni 6.683276474329657 2.4805122788790346 1.1347492695598835 -1.7924597383991128 -1.4541894656607406 -1.359647431317097
Ni 8.517566861321344 9.278965916034071 4.958248375148135 -0.6354352907960025 -1.941476506751869 -1.5282266951828132
Ni 5.140434785333634 4.8197650445940665 9.156532133077533 -0.285949608957785 0.8814906346620109 -1.9786250907777083
Ni 8.408722148085566 8.941785919045671 10.449993697518156 -1.1640638709483953 -1.0694655294455193 0.3015515771611
Ni 4.088926942248551 2.4112958516257272 8.411988407228957 1.4188509382604468 -0.2778714599353408 0.5041059124206801
Ni 5.402790925069817 0.4603397172819474 7.666356234248021 -0.1633648095443122 0.5216284946854759 0.6882598907962018
Ni 8.231165768071017 3.5428403510454816 2.7158995253340503 -0.4952967987694825 -0.5852625265963534 0.7282060921718363
Ni 0.6444845981086363 3.940977058431186 9.90933649352843 -0.2917263635405621 -0.6974613547898117 -0.14981792409781294
Ni 8.546209723885328 2.142230986309834 8.619797376848096 -0.3276248772093841 0.07235367117206248 0.3636221212395996
Ni 7.705737646471128 9.002274578821135 7.924240196179839 0.9029686020301287 0.25015419652573045 1.3512581788121372
Ni 2.846748124274219 0.22104654250035946 2.501670002478846 0.13599721616463675 -1.0126523771112175 -0.29375830636892636
Ni 3.468475366951932 2.78866395985017 2.0252990925257133 0.29099822712528595 -0.33026977103139893 -1.459708595706757
Ni 5.058021166037068 8.815448961001515 3.6274042499635604 0.2576016539427112 -0.43129612754780566 0.009939113490582883
Ni 8.45177362783169 4.577984777292505 5.207777174606945 -0.36195064707444763 -0.011054458041948705 0.09611786347119575
Ni 7.504659428343316 5.383426477774076 12.375142805418513 0.6486523037069086 -0.9862733728970562 0.1419842869860071
Ni 3.9755302072787995 6.738699174433439 2.631129133494572 -0.8835637151409557 -0.38747655925969393 0.7342733814118386
Ni 4.849344008401732 3.1051946646985615 10.551728630033548 -0.04617804121795918 -0.7294067973481567 1.5742746385808113
Ni 6.282515012476379 7.046869210330921 7.934891559938814 -0.436491555705816 0.7720832531707605 0.8158030626562143
Ni 0.7669110390946341 5.035068330640551 3.284535143554009 0.05253946465961274 -0.6454901039288432 0.5603757906570027
Ni 6.9236617672288725 4.815369039734039 7.282761217260471 -0.0893337506698268 -0.8516486115999139 -0.6165564516136285
Ni 1.2319275916097139 4.7610659901374035 12.158723539850149 0.23423803951610625 -0.4171743434344428 0.3707026822354648
Ni 4.664335528290431 1.6101033165934104 12.385338049257772 0.8064694439601142 0.48970644916589856 1.4575370419767348
Ni 4.294850860931886 8.238773885041713 6.034431663467369 1.0879705302282423 -0.5533579645782728 0.0889632547042855
P 6.607819372118481 8.719241614555422 6.048441061001467 -0.678251100409948 -0.20305055816970838 -1.114756540072835
P 2.1581722398419205 8.02270886955184 0.5192828922590214 0.6079525119947015 -0.2502359576062594 0.8030781588903781
P 3.0667319165391063 3.153192797095114 12.96034099142739 -0.2775315600974188 0.8393224859343932 0.23308309997605667
P 9.47664847278775 1.5460721560330384 10.835792223413625 -0.6692445260359635 1.3959128414070345 0.0381536282515859
P 6.10853784309943 6.272144479090508 2.554189870980901 -0.5152079358711128 -0.6328942695417036 -0.8161663595329041
P 2.665704308253801 8.159801814435149 9.87683083671479 -0.8407767018824166 -1.4190106037667627 0.29055599738154475
P 3.023138966465756 4.697539590051565 3.1230943888718383 0.1802880676622121 -0.03744477511001938 0.9250901165195166
P 6.159454408785104 8.473808716910872 9.573358744215739 -0.04961714880649519 -0.33456017087663675 0.7939183467679811
Ni 7.218552013914536 3.790613501799233 10.336492339468228 0.37451125734827756 0.48651750991495574 -1.0618195828644874
Ni 1.8518744064317991 2.5384404264291374 8.349730332553674 -1.6948827738838876 0.8095763650202122 -0.9893538115945928
Ni 8.383474946895717 6.123699012261783 8.72842274871403 -0.7108426611927242 -0.6980383103392043 0.5862122921041324
Ni 1.9924089000051084 4.429089614768285 1.1422224778219319 -0.8392458670601869 -0.15735896966986446 -0.056173976088406484
Ni 1.246446338349933 2.747530569907273 3.0633481858670972 1.3156334876299922 -0.6703459866302585 -1.3834864427182239
Ni 6.602294539288132 6.990960104678952 0.3983744036818936 1.6999231645212725 -1.5601312572008939 0.7284557462887971
Ni 1.157030314652111 5.698213464619534 7.5472401042286466 -0.04011178041922124 -1.1272557009811102 -1.4545931288570626
Ni 0.5742201045609339 0.7190946204689138 6.79004340990299 0.1606944618010007 0.7892044862320795 1.9784854798760507
Ni 8.787347568764757 1.7095686624660362 0.7709739020414702 1.1844771444974247 0.14560105780298796 1.018482610639749
Ni 7.314722650507934 1.1974019751516203 12.248638817544599 0.6276327640324482 1.2173481841938325 0.08614918229425808
Ni 3.1879570275957145 8.639241668073444 12.077338714175314 -0.7587387135430546 -1.8107983888073007 1.3790790576791474
Ni 4.569816835068234 7.802055122475299 0.5561983201274521 -2.1659217285472696 1.2943756066924805 1.118309804641732
Ni 3.256788001395742 4.428906065504819 7.231410557566698 0.6314981605251253 0.06561480978633216 0.26375353247671995
Ni 6.938354885769385 1.5192464311773743 3.3645644579181413 -0.16460973769500684 -0.31009483874542076 0.373472274560802
Ni 5.512489142380715 3.866832333453796 2.67650251142355 0.15967604783881534 0.4488665323314011 0.9123135335801383
Ni 6.476563293813415 6.173936445672629 4.758538516779467 0.048415158078594034 0.42078931447921086 0.03453017256638569
Ni 1.1105739960686793 7.05283456139359 11.802342454410493 -0.4247850659021652 1.4224743939456468 -0.7363742298049254
Ni 5.878624035680992 8.615894201760476 12.179409541842851 -0.38392483735269367 -0.7437908339839706 -2.03646899836937
Ni 5.298314684304549 2.765848786401254 6.301489417587253 -0.6507341259366018 -1.1044101638415045 1.6388260400996357
Ni 6.325603202075196 1.3495092497865073 10.023201279120023 0.6738964229856781 0.318285087865697 -0.5681554346024215
Ni 4.439249066501169 7.090214368898592 10.037761324444524 -0.3173651471545889 0.23422107023524177 0.02268510030234158
Ni 2.925068594995477 9.767482280750796 7.495029516235532 0.0028292419186789985 -2.035468582129314 0.06053816659437316
Ni 3.508232137418828 5.018383702591425 11.388954638723337 1.4135904611924557 -0.9305742795625394 -0.16622824713503628
Ni 6.469459937317253 6.298401201229424 10.495556131188504 1.680076047888358 0.6279304977785249 -0.2380782391978029
P 3.0041140853074286 4.122764248968644 9.556165684706809 -0.5359855347380963 -0.9930500294992575 -1.4207183304864888
P 2.859669992422278 8.043422403934061 4.447194914116644 0.5488863019601644 0.4744371817116539 -2.134201000405221
P 8.946099326737139 4.108300567007466 0.6402537875857279 1.545575470873906 0.3361460273065179 0.8082535324437307
P 0.3106901672848802 7.727442346876071 7.9274770874410745 2.737810147829562 2.341688768410677 1.6421638462236172
P 6.267363020777199 2.8952693720716516 8.330630196197324 0.5598376587653455 -0.21452590579915956 0.34928693556385004
P 8.744846736809032 5.675205564443978 10.703364183061325 1.1142199508430746 0.16584592409495308 1.0405858702966915
P 0.08629476847257014 3.6536857512530454 7.060916235464031 0.4613795771967473 -0.36497709260559724 0.21478455877718491
P 5.011739219253929 1.0954220043695 1.8818296462295712 -0.9863201669745917 0.17183453757822018 0.9124821979475188
Ni 8.264571734021963 7.0120132051985875 6.504623387465894 -1.869095324775981 -1.021891122100666 -2.9116558023005403
Ni 2.6927227598361054 1.1735130385114243 0.3271334280525481 0.4257206903425571 0.36268598257857537 0.3034225689315677
Ni 4.774097987843542 4.394554820847018 4.835545692520619 -2.4367550506889066 1.943777386970904 0.27673503233805247
Ni 0.923482231817032 0.2750660084849381 12.625558147819866 -1.3689599669672745 -0.015251526842431796 -1.2332962228826567
Ni 2.0593493163914283 3.916601716242803 5.185143714928862 -0.4962632764478099 -0.6120390233592491 -0.315671818612566
Ni 1.9201914422941195 5.9826046934349 9.832020955024655 -0.0324591489699699 0.7251498218440157 -0.15904407068177123
Ni 2.4338815884953093 2.227829185327548 10.960657116364779 -0.10077978772323934 0.5472672782995027 0.43109403883932856
Ni 8.831876620081786 3.0788553453910845 12.190827223776799 -0.5220568404721461 -0.14962843379482618 -0.8327489464819335
Ni 0.37529859027885515 6.360550981839262 0.49372273957496066 -0.7164525511803338 -0.6754845934084045 0.06741072534449036
Ni 6.707495799644094 0.0644340511936815 0.9853337448737365 -0.11233715354353557 0.9145537357645669 1.2180817199257474
Ni 9.40992831551759 8.589444752894918 1.40880392160312 -0.8922221621469021 1.1240665046198512 -0.02440542542755797
Ni 1.9243763655011614 0.8974457687942751 4.626540899449996 1.1373871329881573 -0.8134561596905926 0.5392099552126649
Ni 1.2619562511128724 7.902539166760166 5.9029305468955755 0.5758880273599888 -0.784282880560746 -0.19922192845223755
Ni 1.2764199330740518 7.034442925194223 2.6345807773940635 1.771735618477884 1.2801180683322018 1.087044161759231
Ni 2.968009945183521 6.071708683384829 -0.20850186808872515 -0.02604990300951643 1.7320966639300235 1.6780407626258844
Ni 3.152293405704127 6.997008052910181 7.852875324797653 0.19143122876322513 0.5866370383463768 -0.003482559231961744
Ni 9.375879927144508 2.237970282134085 5.006576896218927 -1.572872358916646 2.1868875321656596 0.7230947390871998
Ni 7.428321289667499 1.6128382006190647 6.360201320492359 -0.35334850722773337 1.170917660645435 0.22794346475664612
Ni 7.443858734819958 7.9356422764263925 3.0225818944511342 0.3631179279096714 0.0563153867622772 -0.11144729473941452
Ni 6.92676374978146 4.640593431061009 1.034564410574468 0.7008382416818446 2.755220887106842 1.1368094061078162
Ni 2.953527908295995 6.084593841680194 5.432067032592762 0.6312343653407774 0.5215457051636825 -0.1917176496553924
Ni 4.260628100758512 1.9698690504513925 4.026003501493201 0.1982801333642585 -0.08717505245561115 1.1020408922783795
Ni 4.885365551357079 4.213364165415826 0.20089742210329814 -1.4013890340302575 0.16697566682402212 -1.1511237658479594
Ni 4.092524507812499 0.47896446104591744 10.47840253477122 1.5388000998232854 1.0275696605426818 -3.59978765215931
P 8.121284001496653 8.387843419366225 13.019174036846385 0.5681328088946023 -0.5760690330225434 -1.0015704082654426
P 4.92048770292144 5.947372412312459 6.888339546967333 -1.795819141789649 -1.3683742696671337 -1.6326695335799366
P 8.6788057118137 6.663214539832743 4.297305832330753 0.9590106805263613 0.042493136167204244 0.06307558830424621
P 5.001175959141419 6.467982365746344 12.238510569186504 0.43717289804355675 -0.11225873489711634 0.2322976279602838
P 6.53952986864568 3.3384490687120936 12.327754056576667 -1.0024456117815443 -0.8433503761468637 0.3335960071911545
P 6.579855641829322 3.3597040734215424 4.72914952645949 1.8758868937765176 -0.4413468269155883 -1.1385333307774586
P -0.03762484577172955 0.95188648033851 2.900134345299838 -0.4252956869899966 0.47492054910597564 0.9026716396150003
P 3.0448344894075245 2.1788398869082752 6.179001487597994 0.5336437739787971 1.1226323432764858 -0.7650821392625791
