# total energy = -340866.01151245204 ev
CRYSTAL
PRIMVEC
9.30562072939691 0.00000000000000 0.00000000000000

0.00000000000000 9.30562072939691 0.00000000000000

0.00000000000000 0.00000000000000 13.61971656403110

PRIMCOORD
 96 1
Ni 2.2103082979835995 5.460045144562162 8.516368383041039 0.8570834094622402 1.4099888598841266 -0.2638275802477649
Ni 3.171709215355644 5.6472184032881945 3.508153008331374 3.6677105412535287 2.2120671167550805 -0.6526984487518243
Ni 5.715772912437775 0.4540519521227461 9.175984292468929 0.03667447260289813 -0.6446668366965994 -0.16196047299761784
Ni 7.533514287252617 8.889324640731063 7.874143748507902 0.09466621862633373 0.9871902282843709 -0.8840712509049936
Ni 0.3793501498084826 6.663215398464039 0.49957411898969845 -0.4100382466102938 2.441646574453253 0.8188205093262995
Ni 3.9403348902215494 7.497752786144725 0.8987573386163571 -0.25560339256575976 1.161542390078122 1.4672033614219053
Ni 8.46438346246099 6.656478128934475 7.724245084847644 0.08816878382744815 -0.8725956461652263 -1.7664604861218738
Ni 6.8135942321625915 5.825030207391656 2.7454624584736944 -2.24919975994132 -1.636835492032168 2.0841308232217073
Ni 7.901318953213959 6.2077145611676015 4.869675151916513 0.7652040095524241 -1.8897713650680936 1.302626276737047
Ni 6.101714233527736 2.9027581601851264 6.0936788298830145 1.285715102804005 0.20510949758126612 0.34576503845352063
Ni 6.500748563220039 5.52960466076864 7.081680795151761 0.47020257480501604 -1.0229722709799867 -1.168805756508755
Ni 3.948775088375299 4.874619228299189 10.84204404665961 0.6633682697608447 -0.3004593725381858 -0.9386904809117704
Ni 1.6330434112474608 2.691166952224874 7.069600238103032 1.4266840611516203 -0.16586623580992724 0.5318460586484259
Ni 7.363779762087914 0.3719959176134352 5.427035315553568 -0.30563937407722847 1.043225621912384 -0.8606870676530984
Ni 2.8983938239843456 2.930256269936316 2.777849741444266 -0.6618009252737248 0.8399403220240502 -0.12255060374142765
Ni 4.015273055306602 8.602199707948339 10.144142021174423 1.527438137843247 -0.3921842491480084 -1.4124609755737028
Ni 6.807275715573401 7.959237137678055 3.723385505748696 -0.38474579059209224 0.7741010549317379 0.6168611273382408
Ni 6.974851336689956 2.174928327332492 8.065882344846095 1.3003086843474638 -0.0888041034186019 0.8214175806295144
Ni 2.2438643669388583 8.325497070570464 3.2428274230624012 -0.05513833573504052 -1.4987754798012318 1.0987604217548947
Ni 0.6163838558637361 8.514829233344642 8.18593974341325 0.03832280683959851 -0.11405902133064871 0.9581048808826403
Ni 7.203509053375651 3.398924560802275 11.975204392303587 1.7936928394752656 0.35873034036493706 -1.7205878919594755
Ni 0.8588957809411639 4.611195711941602 13.365804740068258 -2.081075838445468 -3.186195883869803 -2.0970259340168207
Ni 8.80466210180845 2.0920338563803442 6.098568933664486 -1.3287278589201053 2.371823640122844 0.4931566124980281
Ni 1.5166673163072317 2.2106246890941037 4.7207982454307675 -0.6094926027883116 0.5920232423589546 -0.694488902425049
P 7.039683597480662 3.2699114326836654 2.281193865167926 -0.10647915210086178 -0.8240041104097681 0.5367031296304112
P 5.493331350511402 8.89452648281259 -0.026987231163933905 -0.4120743032037161 -1.2922243646774325 0.4296485646420536
P 5.184356819862081 6.357358250815275 9.50206813769982 0.27011187059458 0.8153721457663828 0.5530013525698024
P 1.916576374363871 8.385816105226032 1.2601736958317795 -1.5183102074000496 0.44077012847651187 -1.8440491804406305
P 5.680588359825509 1.5631302814468897 4.509079550464223 -1.810848525318946 -0.6082206780544235 -1.021447092584712
P 0.0786157464636207 6.815539106930104 9.532889284673393 0.6003811274053468 -0.7500075043176438 2.7691521524759537
P 8.720920819354658 7.047407262825328 3.0899463079045946 0.8682972759001885 0.11112230729982797 -0.23515977999942728
P 4.623097601069104 4.387041915770146 6.3714395163569 -0.5255026329289014 1.7789820156276523 -0.9572731290099643
Ni 2.6269395567924847 2.7094990253923332 11.439445366455175 0.7948683693860762 1.5443272002891018 0.4867273119329166
Ni 4.853430329516294 4.503687873716393 8.426069429540998 -0.7996938157991776 0.37403328927059454 1.5634500371614817
Ni 5.257899141812555 7.457412919555416 7.400232670828467 -0.21697591000154892 0.7953910746587657 0.5715811724545188
Ni 2.755394347657263 5.569832859907182 6.002617746031496 1.51547967992979 -0.15732785932161292 -0.3581091618411703
Ni 0.5454982886794092 8.358150494298695 11.159900792455298 -0.20481870581372466 -0.20021411716217777 -0.08338807460935316
Ni 3.6426108552369283 2.739807432654474 5.579507913953988 -0.2765560835580269 -1.132747320223301 -0.6632659398550255
Ni 0.6528628203428014 4.644584279720711 5.886156039379013 -0.4265131043368655 0.03281061877211769 -0.6274682134301258
Ni 0.8495827155472586 0.933837668274575 13.53610504698351 -0.08535676829994977 -2.587653609445408 -1.2865239718585455
Ni 0.15803270688648927 3.4178428880862577 2.5310609530024912 0.26460945271911196 1.726614814879846 0.14314231184985024
Ni 2.196787230819986 5.35357023025654 1.305109608582209 2.034113867873632 0.02994949517423874 1.3691995937819066
Ni 6.1370011479698725 6.370134868307114 0.27560736579827577 -0.9138937335830649 -0.11595906656683899 -0.8181260543624362
Ni 4.091634980388924 5.669365781023501 13.077121115785253 -1.5104683427581276 -3.9269605294329395 1.138608149879452
Ni 3.319380113373115 0.7535375411432054 3.9443651546321217 2.2565384596945783 1.2714295394192683 0.2853903940202052
Ni 5.515478728246709 2.5765217027715224 9.91828622694087 0.223888320850666 0.8960060546693664 0.9368624265640962
Ni 7.9822685493985945 4.8315155923034165 1.2027161396020944 1.6181988507675873 0.4198367207579544 -1.8723179454783367
Ni 0.3234280210268334 2.468315942979024 11.607049834996511 -1.321439295678492 -0.268424455589828 -0.38166020968823305
Ni 7.770174837909893 0.8347086111051939 2.104396373742258 0.06903000611546821 0.1108572265638994 0.9636738903299855
Ni 8.186973597894928 0.5751227328056061 10.312740330027578 -0.015003158277051579 0.82687166176555 -0.6835012930652937
Ni 6.341203692937758 8.993110230597397 11.41689133308666 -0.980170602433428 0.24014823435295415 1.2585025469449551
Ni 0.9204682827315855 1.3297732262081152 2.3282086536267874 1.4482044517218993 -2.2917882840358077 -0.02534207830921442
Ni 3.783544483724835 2.8889672300154947 13.599940675776127 -1.272650042089931 0.46612789051501013 0.6894829645700254
Ni 1.3191182902808352 5.056190503245116 10.895324309668549 -1.1316859688383218 -0.9231101099750102 -0.6301696715216889
Ni 5.032489086819978 2.263061862849756 2.068740026150504 1.284699517055297 0.27406159927094736 0.4641846507457102
Ni 4.226808429541471 0.7837901146799625 12.00567099512098 0.5955824204651227 0.9976075669629528 0.3179066214803557
P 8.028517485257616 0.776839746431853 12.526788557049757 1.0363000984371442 0.2164773730985756 -0.10549673358293443
P 8.090688338471727 5.378946658443171 12.638389007345548 0.015381624662392865 0.005784725002577135 0.6462951163286418
P 9.07962458807855 1.000484525140233 4.035644920574725 -0.8707827613262035 -0.09299500157149791 0.4284350039499267
P 8.55775606254337 2.814438512249919 9.576377242812221 -1.761322136454044 -0.7265243335940391 2.24253391788537
P 7.085634753470975 7.6863218880053354 6.058812529505433 -1.2945854087104414 -0.07665769786405507 1.189140611411365
P 1.492872843673123 2.7369692182808314 0.7055112316928199 1.2544057511677622 1.3658188502351316 0.4222887818428727
P 2.908276393377159 0.6774631597466068 7.7610869685417 -0.7769169271139781 -1.5472641714302386 -0.7653834725530818
P 4.735397834056365 5.520243206146069 1.6764783273471737 -0.9831664518369584 -1.1784461078119963 0.4444810016691958
Ni 5.258466784687283 3.825159220377058 4.05852558123673 0.22681860712358354 0.34337699783731834 -1.4664842238676938
Ni 5.546633947010493 9.26551367112077 2.2367520808871375 -0.9273159205262416 -0.6324317280829882 -0.5043617371852281
Ni 7.203583498342828 5.051872695148821 9.329724316435545 0.06690833178677509 -0.6074953698526248 0.7004795727908453
Ni 2.552029308570124 6.9736974396987055 10.719861244279537 -1.2258564787751598 0.08109465058948614 -1.111747320932866
Ni 7.919390468996298 3.758205278021793 4.396825845581449 -0.33355949752626424 -0.03299188154498835 -0.621346159692788
Ni 0.4254762514716623 1.3817451189189083 8.526991679857268 -0.017323578880112104 0.7788398551683039 -0.0680630142165086
Ni 3.157601894075508 8.211456686475428 5.801468375279977 0.3596317691332839 0.2738299428761155 -0.3509370695727634
Ni 6.069405117772701 1.6263898923059716 13.268341389039474 0.6829487629959334 -0.38908401295612993 0.6723756154657775
Ni 3.1326907469337364 0.952830440525735 1.1438646013620106 0.16029311259752393 -0.9995155826189431 -0.02156692753749834
Ni 4.2240167432723155 7.479290434284704 12.070187795363271 1.4854962461938221 2.856728039914409 0.5649659811308463
Ni 0.24713961034959933 4.269967899262628 8.554258079648118 -0.3360141297143439 0.4787774609582206 -1.1122965085681167
Ni 2.967441531041478 7.717523634873605 8.211422255678109 0.9899672768088758 0.9312350530749897 0.1514534028187069
Ni 7.451745796429029 7.471985521880412 1.3903276930723842 2.795062187473496 3.6773622054106796 1.1442851456595713
Ni 4.199254486064898 2.307030921588968 7.978729621771394 -0.27179851426838353 0.37397672500104623 0.183119109353104
Ni 0.4845343744956637 0.22628850560527095 5.921281036017538 2.1445417202095967 -2.5499267843185955 0.2491578940507322
Ni 5.362624599389504 0.6158459909758787 6.752587512122719 -0.6617736715802152 -0.5074282919256938 -0.46590163343681695
Ni 5.883739369632013 4.015421945240957 0.15339571599342067 -0.10570267894615344 0.47086103432462134 1.8040646696278932
Ni 7.095833713974293 7.6068053574388665 9.780999471282572 0.4938590378816914 -0.475523215686981 -0.765829816061881
Ni 8.347039582947453 2.478840600213743 0.4602522873265423 -0.05566541188310413 0.1871230883061745 -0.5667678102262754
Ni 2.5782432426375017 1.0149547656353597 9.98502334832923 -0.8279736365804772 0.5414013064370289 -2.342318431574876
Ni 0.9821710632145677 7.126207260582714 4.983059489738297 -0.4418003695132391 -0.34750361841118216 -1.3471264160319507
Ni 6.394552817541334 6.326994009827753 11.640758516134483 -0.9126773446774604 -1.1233597083608138 -1.4942907045570009
Ni 7.931134162568548 7.771459013593705 12.711023100696456 0.6110440064358316 0.5767915130108647 -0.28713257352229254
Ni 5.252678688489233 6.086127318524947 4.998599876636599 -0.10938938376912129 0.9313643795640024 0.04220722949566925
P 2.281896439545664 0.14953946669362608 11.87595715374881 -1.4118585661030136 -0.1640870324223174 0.5082428174071891
P 8.043908982221565 4.0514533093548675 6.6005373889110315 -0.42370340280221225 0.5583708444118319 0.9697288382748137
P 5.084758759399481 3.1076958492038904 11.925015456556695 -1.3609322115667917 0.35325826150677225 -0.3703920929735815
P 2.447378295960352 3.584134333519001 9.368976355941973 0.36718438466956116 -1.4960290274043462 0.40156131948753426
P 1.4073914101115572 6.959459839726008 7.016537726623088 -0.18482426496966878 -0.6181279098658065 -0.7798189312521214
P 1.6359839874509718 4.53056250686747 3.8600729794212163 -2.7522422640944924 -2.4346094651008134 0.7598681991618075
P 4.514808090688532 7.790758871334472 3.7076134088900528 -1.3947913262080818 0.6081142343835462 0.4530098650758134
P 1.9761509593476665 6.316981161742378 12.696926946161396 0.7627923147871379 -0.2684650790197764 -0.2142245725086569
