# total energy = -340852.08248900576 ev
CRYSTAL
PRIMVEC
9.49626755851277 0.00000000000000 0.00000000000000

0.00000000000000 9.49626755851277 0.00000000000000

0.00000000000000 0.00000000000000 13.89874746931225

PRIMCOORD
 96 1
Ni 5.593425050232666 4.045865805680904 7.463071101211027 -1.142075282492446 -0.5889839413119986 0.30491792253017164
Ni 6.7480192464685524 8.618707987626104 7.883856415000094 -3.972955765216132 1.3397026127640541 -1.7868691316852128
Ni 8.45406170049673 7.392844303277059 12.65611641740913 0.6885288281868722 -0.9897428195028954 1.0130822655597842
Ni 9.278204777830325 6.083831300084732 8.929486638630301 0.46004928842109805 1.3620082182397897 -0.777456601667532
Ni 7.781925378156786 8.691857736718132 3.384511545539985 1.192763552875933 -1.3440086963385758 -0.4173640908477458
Ni 5.649415043825629 2.0008445844725364 12.11523275728851 1.5315650155274267 -0.4147276816661632 -1.0738312626133828
Ni 4.221869628824048 0.3949345742099006 8.107237117050172 0.3939703945141538 0.7595146724771308 0.7948729973717666
Ni 0.7122058233517334 8.384264133856929 1.4358660446464506 -0.7061573399019129 -0.2933230186037206 1.8090968327351618
Ni 4.671945230306149 4.148843331210431 12.441143710665568 -1.6182854969441225 -0.7100188797398481 -1.4957824586111788
Ni 8.47237050437177 8.641888376764575 8.880409927828326 2.37968915891385 -0.4796835177122578 4.091573095341425
Ni 9.134830130057843 8.550591260346199 6.764311992738472 -0.4206121654713981 -0.6001458714660889 -2.215150383666095
Ni 1.97857583702079 3.043525267395488 2.881891196339331 2.0861645658222847 0.6401936314165942 2.8240675735669103
Ni 9.07653254344536 1.6207944600519184 8.972684210179661 -0.10376201028001485 0.4227916896212202 -0.3493532700254112
Ni 6.570847382414295 1.4812563043777336 4.374422419202975 0.500100647916029 0.6404502275120905 -0.6484021353693157
Ni 9.079504875194782 5.009262150661582 2.828687407651419 0.8591513477348622 1.195411017801109 -0.7533478815447865
Ni 1.684998725092967 6.930471035291753 12.307410623356947 -0.9291642865888902 0.2649143855540405 -0.7697234946893323
Ni 1.4029785707978841 0.08166315296856912 11.053882412322857 -2.1983626226847948 -1.748973127970388 1.951795115069058
Ni 0.3152447456423861 2.9244800571374516 1.7266835412184198 -3.30916223499241 1.5541601272191234 -2.470573541900248
Ni 2.0769191839761363 4.717565299712628 6.684602222009061 -3.5243049484399624 -0.3004526876699664 -1.4185064104368343
Ni 2.231091087975755 4.662221052314427 12.158791187005532 1.9068162363655228 -0.9737796113054197 -0.41386610499681625
Ni 7.431636556300677 3.4979786482273787 10.863914327717968 -1.1443846473519128 -2.104144547339473 0.12839086457228854
Ni 4.146887100091003 6.892941785854951 3.5719507740909715 -0.859832690072603 1.0396137361914095 -0.3791014478221213
Ni 5.22541619309086 3.17775500949802 0.5822209128530097 0.7722151507629347 -4.11014031682065 0.830086312048106
Ni 5.9271903665169035 7.864182047848483 11.928099308553278 -1.6300115271317992 0.5099148057929734 0.1970110368438478
P 8.09660319662524 2.3331949568888377 6.87518186624546 -0.3341552221287342 -0.00674991712932386 0.2054573678389881
P 0.03660146409520972 3.6575064471365004 9.92904287126418 2.172129142909562 0.04321381638331267 1.2880918305662976
P 3.0783575768423987 3.528708570084032 8.09864774303307 0.722509298897375 -0.9831222288625843 0.9939198336987204
P 2.7821120137273945 2.406354202248435 11.22826997072558 0.17462958382485408 0.8286837752736245 0.6641617121964175
P 3.567871177542882 7.991992313073667 7.681212712442715 -1.7491219948434262 -0.9231964990412294 2.13221199499965
P 3.6286472899911453 9.32796521989734 4.099254771586433 0.09403809812403159 -0.11043479431450012 1.077794361026189
P 6.98521701783304 8.501609512219927 5.564349378186714 0.7393302271094557 2.2709145259105923 1.1314018619389998
P 6.312995229084966 4.747098691855455 9.528411486139012 -0.32356896197245566 0.5787584069292484 -1.2514217288387737
Ni 2.4653545126611007 7.521518728851117 9.633291114062818 0.9905761140374681 0.4403479533374287 0.09277671491310474
Ni 8.511077290987258 0.8630454870610245 5.15550372161346 1.9076539017754692 -0.4387255872426573 0.7642264761305032
Ni 3.747113227927409 0.09135789253082416 11.191757771545529 1.285938788779037 0.39923832778131246 -0.9583828171343753
Ni 1.897401741832078 1.1361619408824368 4.301426509645582 -1.4860845145971247 -0.1446402365516154 1.1335628741460606
Ni 8.598518922772197 1.1791135591017332 2.3961020317798187 0.5643949391187248 -0.7874851895481277 2.123139600384737
Ni 5.722878169747466 8.840797197286658 3.6383306340323163 -3.43021774224555 0.38963397192232896 0.4015597768256375
Ni 2.726644314850784 0.5408162366208732 2.1951819017864014 1.7933318565914211 -0.991449517781357 0.614785989976767
Ni 6.02116543039003 1.3780413721589557 6.698668093533805 0.5174666499983024 -0.1315252964362122 -0.6647119282729327
Ni 8.294030599406398 5.130320569644468 0.418085524918904 0.1565225898114982 -0.825097857694579 0.35618803355905754
Ni 9.104404088763431 3.191714522825981 4.145885243862363 -0.07559788914097303 -1.4205301257350826 0.7142596572940731
Ni 2.1890511114431828 8.954163639537809 6.281830378173605 0.43884617198092163 0.3389912100647968 -0.933900772832611
Ni 7.239707492442575 3.460629827874407 2.7481856482066656 -0.9624623865203875 -0.07454065152105227 -0.645625858175759
Ni 5.056487089287398 8.134540785567555 1.3682944031250657 0.5983494416872985 -0.46666319419318986 0.740212372604093
Ni 8.613845898630244 5.351574107758856 11.23213400199983 1.718423280207989 1.7771760727671653 -0.5951558744506653
Ni 3.608695631826489 1.7310556228076668 13.055552222447231 -1.0318544039609647 -0.16871090434757396 1.483798546776425
Ni 4.601473428668874 5.874087238265233 10.267532580664515 -1.50397836415841 0.3273777941955846 0.35235503296621257
Ni 3.739791605630907 1.788555522944266 5.934529082095031 0.19868585344310943 0.37655759835434505 -0.041499919015999504
Ni 3.2736293268851555 5.863185523094825 7.966247931691285 2.2938914464217395 1.4147220036937378 1.5214315266378506
Ni 5.897932366133607 5.130111651757927 1.1000960662781776 1.3466265935773971 3.2707944338474895 0.9861250202446499
Ni 8.746214372289048 6.584199134617772 4.62002723624722 0.9410978048016824 0.3627235206847302 0.35419645705032543
Ni 1.0878544277536375 9.099124163994487 8.361166362246317 1.5773707610076317 0.37218312343573323 0.840121841907237
Ni 8.37757876148762 4.166382937412298 8.377192263397518 -2.8101733320833215 -1.6921288652878341 -2.8718330138766475
Ni 4.210996402456351 4.546660972254596 3.1186008595507198 0.06465527408654027 -0.14567741956687816 -0.13563649039110834
Ni 7.70200479028732 1.7075048792339644 0.49502333514462066 -1.5356597544220907 2.2348540327426094 -1.2944673950753385
P 1.7335056598407375 6.591606223322405 2.6850848494572555 -0.3188167919994509 0.23960753135813573 0.9895949810711214
P 4.637777659589141 6.383552497130371 13.130813941446835 0.011257060971058034 1.0340529542741803 0.029243470246149636
P 5.262840983584392 3.801270441879354 5.087219860024321 -0.28922288039241806 -0.4424112636243606 -0.28609024830070734
P 0.2760973322116483 9.020229173022585 3.57372942500684 2.093817711492168 0.9311072692478739 0.6033960029722704
P 8.84386449171178 1.8021161930342848 11.346145240818986 -0.7523963162647945 -1.8383027648751564 -0.8311571765147814
P 0.44625145453164616 7.482337128857126 10.313802194772784 -0.26189385356016187 1.1438814824632495 1.2828838040027972
P 6.815756123045656 3.9283684870367854 13.205296966505697 0.6230662277076882 -1.6047432394833137 0.1652003200911542
P 1.4741246074326326 3.5085100089625545 5.050665877266963 0.7052546255819854 -0.569238126143639 -0.7746124473505176
Ni 0.6751722790820869 2.8582435908364143 12.56357813881935 1.0223829741354198 -0.8933699025981001 0.5489577786280482
Ni 3.8317439645116163 5.504217112679699 5.532938573945288 2.4751341646877374 -0.17088425784980893 -0.3086254532887459
Ni 4.6319279587659965 7.879195646876718 6.009610372010805 0.9495022268152937 0.7185958227755818 -2.2481314665778056
Ni 4.629297492649094 3.377214613539165 9.965679471549398 -1.0009610568162182 -0.4562245153583691 -0.31374374835191776
Ni 7.221351207229685 4.6972812721830195 5.834819222236355 0.867564511499222 -2.8312674337494594 -0.667813964237024
Ni 6.353335373722501 5.507122970556131 11.896855638621085 0.5800167048163817 0.5880640006008905 0.9891635499606577
Ni 1.5606261087281375 5.623423759486426 0.7854277440772929 -3.1444643084589714 -1.2418615959541643 -0.5900069832598741
Ni 1.3594761690595254 2.4235614390853497 6.914974076244204 -0.27374509647179307 -1.6978829941627918 0.5172501631121221
Ni 7.8615990630694315 9.100805003354385 11.350315051908993 0.05319072509036646 2.1628736857495654 -1.1619370544133796
Ni 6.471070099055871 6.649428996556385 4.928148831585318 -2.389296857206943 -1.0940277921659158 -1.9344769355055844
Ni 1.737864446655386 6.304448588271929 4.85348442781587 -0.5769131261903935 0.16941024440744373 -0.4195497856451549
Ni 2.170229509119361 1.3339407055636847 9.501878914548318 1.2870114530179255 2.1403567355939717 -2.3044856769978184
Ni 4.659448142183976 2.1663455356832144 3.5740076656466426 -1.6526647457549408 -0.12936042757440946 -1.225320917986664
Ni 5.6076504590525875 6.617027731607404 8.013628609105249 -1.11992908541271 -0.8924707878225985 0.24241080513488575
Ni 7.722279321549357 7.202596078778853 1.2696718659031598 -0.20883888271671128 1.688819598408943 -0.2209040414113615
Ni 2.940490764260541 7.349417871679261 1.030806549953372 0.11782311635877127 -0.14519173817971123 1.987416206706777
Ni 7.682926788739106 6.55365913811252 7.005024332730633 -1.7235585445520252 2.409104893071806 1.3973521449567223
Ni 3.6295779242130095 4.953794451784972 0.479658374216294 -0.10221472039755299 0.04895766084562536 0.9387925537072734
Ni 6.89719611372633 6.7479717651307025 10.165918719158045 1.433963111311537 1.5134744765743031 -2.682296431032974
Ni 1.4371746303176023 1.2763363464838147 0.6934839318373972 -0.7814567239658606 -0.1679380307372914 -2.3318604694663456
Ni 6.31146633000619 1.836074845864752 8.887679320653195 0.5038781126805902 -0.2678176752437646 1.331094816490385
Ni 5.751832289568522 9.439593845183175 13.600813661917641 -0.6558004847159158 2.015648462079593 -0.348924924238741
Ni 3.457742962533114 8.373039545589139 13.126700158335494 1.0097490874214934 0.9512359216769488 -1.2860179787564048
Ni 1.992896208516412 5.138943180598065 9.744745008025363 -0.3769725744045766 -1.0707989035449623 0.4119496047003938
P 3.287569847677976 2.9221154865125114 1.3021566980067567 -0.728515395882139 -0.982435744318521 -0.36740472821048337
P 7.086067379426879 5.9370759810573155 2.870855583796186 -0.07596735666524981 -0.5606051330589893 0.334946607681778
P 1.1528373867354293 8.758920378297763 13.351762649372224 1.0197684193307082 0.8757059096594337 -1.1297812956164415
P 7.789123548974877 9.225035175705663 0.03688065436176893 1.031958533638997 -2.70017896774035 -0.5565810995012608
P 0.31935188136642884 4.937964173745713 12.900567437943616 0.4206926410003464 0.9284939999947428 0.9471841202050784
P 5.833984500316949 0.982132480896369 1.83696939426985 0.39158003990510626 0.015009328924638665 0.5930151739585787
P 9.372331781984572 5.68651696122178 6.605504960537917 3.2251720080226844 -1.291633010950337 -0.8018820816997481
P 5.766333090147976 0.03793948819582852 10.178566797934582 0.3453084105320763 0.2882008668858069 -0.07295556642211952
