# total energy = -381168.6394132082 ev
CRYSTAL
PRIMVEC
9.30872297528132 0.00000000000000 0.00000000000000
0.00000000000000 9.30872297528132 0.00000000000000
0.00000000000000 0.00000000000000 13.62425701445977
PRIMCOORD
 96 1
Ni 0.5247541218513709 0.5910927358404008 10.516277468275804 -0.9376041898261271 -1.2443511951452375 1.6380662791154756
Ni 0.8986008127307695 0.6640517135800795 5.126984878667988 0.5231469882125312 -0.9164216422112411 -0.10834114501026502
Ni 4.11897957616641 7.9466147419450195 1.7517797119051688 0.7808543144951713 -1.9097022996640658 -1.3226929655799349
Ni 3.561982830688602 5.789783638141154 8.121678308930678 0.05650436284463172 0.38880376271154976 1.5827860184859321
Ni 8.636335259015558 3.967368405740628 8.007834489192652 0.9630665957632897 1.0538334793352173 -1.2951649353629953
Ni 7.0746387385500284 6.176011861395043 1.0784993304083386 0.11603645677199372 -0.06327304902703297 0.15239751189953107
Ni 5.6305672410783085 2.39651210190806 6.727222304697087 1.4479280581320613 0.03576661607664808 1.6082617941595334
Ni 1.3464509200630397 3.6083309621769035 2.0931901577211036 -0.6969011114109676 1.535496489371349 1.1272595576358522
Ni 4.287392991488031 8.064788979591933 10.986110124816674 0.5210381693996446 -0.6008390408783717 -1.487187517853316
Ni 8.464524159823032 2.11372240789659 1.0117343769089322 -0.5080957503063637 2.155618803959365 -0.9264869968670431
Ni 3.3658945820842496 8.480646867944692 8.4356084737732 2.2415036768486427 -2.2640586793310233 1.2931579322352955
Ni 7.8861545864888 8.46802423964621 10.967104505202363 0.6777440788665424 0.7269552504838707 -0.6491402990869207
Ni 2.4862202648228546 6.356200811228153 10.504260837840327 1.274110171575225 -1.4786200878992792 0.4053714372622438
Ni 6.538298049262728 6.774013531397046 10.147033010014965 -1.2761202600267183 -1.8804164062157551 -0.5982573961941245
Ni 1.385296220866551 7.300263565023909 4.986396167068336 -2.1178657535803076 0.3728158719237257 -2.5999167430834773
Ni 5.515111150528116 3.2696237695009978 4.4704183091991245 -0.4731205197827594 -1.066477650461789 0.2822369359928881
Ni 2.1697888461279695 2.270434758490194 12.038420294122545 1.0022178120414547 1.2349913511968924 0.44499213697765944
Ni 1.503051565981436 1.7010946464019245 1.0376489306848475 0.5739895247856953 -1.328477433472196 -0.301899447418822
Ni 7.318881010891874 0.616387328668913 4.928534076182991 0.3615557256288741 -1.1910067180858264 -0.3363198338802208
Ni 4.1159356237669975 6.165446460864972 12.836162024735902 -0.1945792874739036 0.8158544847194401 0.23173892724333642
Ni 0.5917899591881561 2.4210592042849735 9.302710429839959 0.4223417465679952 1.6165854835338802 -0.4256535845500476
Ni 6.472848418313894 8.752284711881249 0.9298678821937251 -0.41075327039944737 0.16227594735550763 0.5072981941057327
Ni 1.2430775518811583 0.2218966829388202 8.255032281066038 0.4235095416238513 0.29693130478026925 -0.6951429910692802
Ni 6.055091550482604 1.8749350471940578 0.9592173547322801 -2.171626492241531 -1.2174625982845095 0.7266690867020194
P 1.9659743574884114 8.265252327975258 9.952792542913011 -1.1140679986462425 0.6431249461307763 0.40347576290142767
Ni 2.410344864187959 9.11219717540077 11.952478440506841 -0.09557098982879024 -0.2013484878769371 -0.2779537352365019
P 8.388648759188136 4.355244272953833 1.5323200526304657 1.6505510418460476 0.5932555721041589 1.9002789494676369
Ni 2.845555587520467 3.4832868870047093 9.64386209315833 -1.499292014426334 1.2576085743757761 -0.9967953554743026
P 4.592588781601598 5.4262035377856455 10.186474999958547 -0.8402853640682948 0.01420688762800134 -0.2684612223650344
P 2.09733905553278 2.527504451035069 7.639883943419639 -0.25182387091866953 -0.3684339408059461 0.4438960757000032
P 7.1585382583540165 2.657547310422812 8.605611818971946 -1.4788404314402015 -1.1958180234315408 0.39707860112583226
Ni 2.4240845392385175 8.468731702589192 6.376070280330739 0.879863383471233 2.4467666692886376 -0.45881053091799046
Ni 9.750142575512493 5.265767698018448 5.060362348629472 -1.5599132276528167 -0.5602678043242286 1.6057565112391765
Ni 2.66534802024149 1.8553774203097593 4.1088302755514885 -0.020071573938894464 0.5155447503852412 -0.6861122483255797
Ni 8.777055223608578 4.735803483940927 13.204956871679029 0.3869772510257723 0.2998407651175804 -1.3439035382192792
Ni 0.7109471979768993 2.9672671398822947 5.796821963551538 0.6654372364747314 -0.8497922751174654 -0.2843385557169232
Ni -0.04589945104288347 1.5862529315653762 3.235788423380556 1.847800934173579 1.0482858100441108 0.5955160860035614
Ni 6.686167113069049 3.63655501011274 2.372664084623489 -1.555946786805901 0.17963603590050997 -0.0784304734937617
Ni 0.1920789816366858 6.333515453438036 11.266388325380557 0.7648967627246503 0.0466917476295841 -1.2851042086928837
Ni -0.30662747170081384 2.7121895140452925 11.95004048597043 0.6687526740012095 0.20113457209391813 -0.30410802503436657
Ni 4.695161599611157 0.9123125616125265 5.024326420407437 -0.14880233834910503 0.18942036898078346 0.1015421198105606
Ni 7.332760316786444 1.6059315718478164 10.651402890385501 0.05147245684767909 0.6211566693898012 -1.0330677075427757
Ni 4.522010044316138 0.613036188412679 2.573758564421737 0.467693178119601 2.5770652924066004 0.5813634486522633
Ni 5.911039063079217 5.41389740606692 3.8522446365991807 0.5223802852498358 1.2685229072954345 0.1850960305738167
Ni 3.609671418279397 0.9843415979311003 7.322765540972226 0.5711872794502099 1.532265641138877 -0.7876741656304821
Ni 7.417534856546227 0.7790265431545841 12.78225055586374 1.6895883582541673 -2.0485063891498787 0.7434010547447197
Ni 0.8903644546787813 5.2036785160487815 9.200160883637736 -0.42983676939345966 0.06717521229491658 1.2812015312043676
Ni 4.9302813234777005 5.333563127146647 6.336014845545811 0.2439339266476315 -0.534091660149493 -1.254968822760084
Ni 8.528121354908004 5.892281986367241 3.262832125248363 -0.14206501962527146 -0.25285745438950646 -1.616121142302952
Ni 2.3509086682544775 8.89410310578048 2.9102642441237565 -1.7465691465145854 0.45052952185612083 0.43707262502026667
Ni 3.6939432870007454 3.1096719833263675 6.186911445078444 -2.130245615301899 0.7303789314534389 -0.7445441672102274
Ni 4.680174555687445 3.0328284755063373 10.79331344064178 1.2247015392351102 -0.14075735655744145 -0.30636133984491754
Ni 5.841875251679722 4.819870560757727 11.870297310956465 0.5798403271395176 1.3899201141587096 -1.3080261075963797
Ni 3.6240906301041367 0.8484556531576963 0.29166556132902294 0.6414989804915792 1.7990893279004887 0.7720665410002123
Ni 6.153447517003069 4.6518388030764 8.817169303347992 -0.6634988818014379 -0.08192074603520731 -0.8279759505733224
Ni 8.028782839283288 3.595615246649083 4.147605760932994 1.0751978039436063 -0.11205176109263283 0.6515792475457165
P 1.5316665802804998 4.446590771105008 11.904004196700418 -0.5698063399422832 0.4680978697571874 -0.48861758697709395
Ni 7.616629822658255 6.693902661827188 5.27956322540661 -0.5969309640732171 0.7436005723500355 -0.3027160297828464
P 7.620651190965735 6.089403503217265 11.932491681495287 -0.8241933436024385 0.09168631006240338 0.7941582306929291
Ni 1.6515070793325972 4.618811454106628 7.198566697842438 0.4171257495846945 -0.09922272764876461 -1.055875963686543
P 4.509945939393697 3.018790921321891 12.89980110907408 -1.9660102302271756 -1.638744793239739 0.07421360719893672
P 2.928440456524652 6.01673030327166 5.9654895070092575 -0.3352993630355064 0.02983508108356152 -0.27270199991925936
P 0.5568087092745414 0.9638158638616678 12.774580168166139 -0.3232529733939336 -1.550174403098498 1.2657831397667683
Ni 6.238277909100456 7.050426750198738 7.355845018790427 1.0420709394826504 -1.161777388907064 1.106368573119456
Ni 6.246534746342899 7.65095108411585 12.456508552490286 0.20685270552461796 0.09426049854748283 0.49181269687562396
Ni 2.2171795545848774 6.5934615413695115 1.7550768615683856 -0.30827963991355295 -0.8723434209451041 0.4808613400704428
Ni 8.341248742008295 0.7454006433001571 8.481576809365796 -2.297651427684804 0.9065354934457807 1.7581756204052623
Ni 3.519293027313356 6.8876823471439135 3.9764844381098783 0.6224563620378313 -0.40459059323216134 -0.3103270093608849
Ni 5.514794653948361 4.320252783444991 0.47402902883951065 -0.5226620781563127 1.2748866447299334 1.4761050347869094
Ni 5.067929409502507 0.8808518707125441 11.970407971749985 0.3797015432999654 0.34964971821990753 -0.18868220526317828
Ni 8.4779101034021 7.603914107130435 8.335688641799827 -0.46267875562414507 -0.17445114926546085 1.554199207987175
Ni 1.8829033140255471 8.55886806675895 0.3697946037862358 -1.3216748087280656 -0.1298625640218086 2.2609998379000413
Ni 8.984984167784956 9.316821522935584 1.5570077167236818 0.048801594883735304 -1.9485948629642051 -0.37362731208142747
Ni 6.692590131893497 2.8721226827740547 12.809363142281258 1.7374327314309561 0.7602170978607939 -2.6467725270947513
Ni 2.779640520424933 4.442299449832442 0.08092538282658136 0.13400512543527246 -1.0363682326709185 0.758203666975191
Ni 6.1461308607769585 9.415307811577124 6.771637014432001 0.49863023401808954 0.03910390797999717 2.2985196892223705
Ni 8.094865463391633 4.23723759231973 10.298439388536199 -0.4616192040113792 0.2551097407587929 0.8287501097351856
Ni 8.750748772597142 9.114859470159889 6.590066650115488 0.1925709987946232 -1.477086167753256 -1.3351892982747329
Ni 4.112724114354773 3.1907137251896236 2.4858953903924585 -0.3589596827669237 -0.7763793094429532 -0.36454848970861087
Ni 1.424765206106639 6.4468026115446095 13.180855657130653 1.0424746026789724 -0.8892707928280621 0.049952677769043004
Ni 2.8601051214662827 1.0961393603682363 10.114348222049166 1.4697605806261205 0.3279555210759255 -1.713706848568926
Ni 4.634533887142125 7.8731130656582895 6.03598167317143 -0.9591564620756062 -0.4674342680312595 -1.1285520511950307
Ni 6.995253949369021 4.262343218072682 6.194214138220154 0.17672374734972143 1.9048359727107005 -0.13781318632745296
Ni 1.3656827416446486 7.044664650702603 7.67356290299479 -0.21220574230641517 -0.9643786297064939 0.5646245386310276
Ni 5.333516583531976 1.146210981030131 9.404947202951602 -0.1388431702538641 -0.8542035168112837 -0.8583653614984572
Ni 7.9387209448970015 2.2646912764399265 6.336178679069448 0.5332393394515269 -1.4600312691534985 0.8112648084662286
Ni 7.092157755111784 1.401558559832219 2.9578401961670506 -1.7029331549921898 -0.19837989216691643 -1.2184313899556822
Ni 4.352544743302978 5.411802943406774 2.063802519418519 -0.5796811758538338 1.3146896356594842 0.2765763952730011
P 6.348139457167323 8.501954534740578 8.957581149211897 0.4482926621058021 1.4446689277648153 -0.03304381782884632
Ni 8.691200871988453 7.721176089929818 13.40253544682511 -0.4554896940748736 0.1520866655273316 -0.49001189622145935
P 5.22085310986198 8.384841491508137 3.9146437990425484 -0.3192091423418631 -0.461011138113735 0.27970028561396343
Ni 2.320497070429155 4.235468934962274 4.5220817214827305 1.6352306094388935 0.43121950867359926 -0.9395230041153948
P 8.410282231286713 5.925877167435986 7.027868921912817 0.7791902965291871 -0.4409261944384019 0.4452667307952847
P 4.3514835488885035 8.34312910404096 13.163798353226422 -0.3819052358195036 -0.39407555263345034 0.43188336750984335
P 9.18848215984476 8.599528568534588 3.589964851828155 1.146491923502903 0.19972920710595926 1.0304099582049544
Ni 7.187776957089658 7.978273708643496 3.1608001440412687 -0.26643236486046373 -0.14945796965523292 -0.6699238114911753
