# total energy = -340871.6965369465 ev
CRYSTAL
PRIMVEC
9.17491848539869 0.00000000000000 0.00000000000000

0.00000000000000 9.17491848539869 0.00000000000000

0.00000000000000 0.00000000000000 13.42842061835397

PRIMCOORD
 96 1
Ni 7.827315526322697 9.133154131766625 10.631226544184086 -0.24478624734559778 -1.0707814200434655 -0.5109270491075717
Ni 2.9894728242034256 2.5550679646057826 9.797912749140519 -0.7203470011387336 -0.9583848740169043 -0.48574206520151186
Ni 5.712221596759163 7.200347480182393 1.0534485287502913 -1.067317115643949 -0.8992214762828707 -0.15728415056787107
Ni 2.6557810434450615 0.6224576562744573 6.781379420725689 0.23081615831875088 -0.4296539639586923 -0.024120032976655235
Ni 1.4885020550759962 4.968144892670008 6.4165828317427716 -0.36971666417311166 0.23758510161146826 0.3192101707831277
Ni 1.2887457325389848 7.1858052345815695 9.946740017352218 -1.7739817341995834 -0.90434259955952 -0.6234652629183198
Ni 3.627900343375546 0.5046058299384334 11.164885670601745 0.6542215702645701 1.7867531749326389 -1.1887739721005655
Ni 1.7721813558532264 3.655351699109091 11.63277164227922 -0.8844168071698704 -0.3837150353347327 -1.0090690306353332
Ni 4.018228895171067 0.36747107768489906 0.019964622351668977 0.7303524490908777 -0.6244664504893246 0.8264625992525895
Ni 6.729389745837945 0.5814898108127512 8.124409475234291 1.1852399908053781 0.6116441019136756 0.7320216092631845
Ni 2.512826640475689 2.9180552596880807 6.151855242330251 1.3495705066970693 0.573946844473218 0.6283909823547114
Ni 8.101627235454222 5.722928726485449 13.115176046613065 -0.9296024025675732 -1.3080556752827344 1.0235232583874503
Ni 9.131016375788713 3.725163652911411 7.787946869131164 0.4699094690446294 -0.18992301964881483 -0.6545409012772017
Ni 2.313538238775045 8.00267574094009 11.75572288823981 0.6612486523146806 -0.9596040911359862 2.3467900941929836
Ni 5.918088414924029 7.877337181222191 9.584414233883686 -0.26398261776839055 -0.22870425418207066 -0.6944665338275459
Ni 4.928133073701429 3.871494425837316 9.672759522773493 0.3693700794669703 1.1564554624735182 0.04895740373530923
Ni 3.127848942911087 7.858225826278015 1.55466239137098 0.1874655592472578 0.24889846974175844 -0.9232911156375647
Ni 5.616187726283557 5.941787229048276 5.756052016749234 0.6739529872552263 0.20128858117327916 -1.0346247676172504
Ni 7.511157014550564 2.24215737393314 1.2641652087603283 -1.1544152921150375 -0.9649239606870027 0.1074865103194536
Ni 5.176608212730794 6.269854784851874 3.4403751045044397 0.5154082248073768 0.7329508059456732 -0.5111764461142163
Ni -0.004392033418999972 5.233547756073835 10.988785040072688 0.6103395241696392 -1.4236843550933482 0.12185434900535141
Ni 1.798504196628474 0.08045118913274107 8.998397518352041 -0.17719683033139805 0.27619510067418235 0.8005888168096212
Ni 7.363982149135526 4.943932283117594 3.6362816312975355 -0.4243459214822176 0.42412763482382443 0.9052815664340216
Ni 1.0702725765472838 1.925292393447276 3.556168079160448 -1.4869998273225422 1.637471325843954 1.3822255737279292
P 9.100573996669763 7.210733487766075 11.72426025819921 -0.490235067975859 1.1505735497714442 -0.48029415471306314
P 2.5369383259261418 7.210972035643438 3.4747113189754355 -1.2460609787474928 -0.29203849546434224 1.3273952561516107
P 3.8477589120396285 5.9342913207480406 6.957547028158777 0.12984328074809898 -0.28440206196500695 0.4882499192250301
P 7.4006084232292135 6.907355637269619 2.512188983649659 0.33568091474464123 -0.5635629301357326 -1.1189268694004406
P 8.697373034414962 3.684683913106465 5.073740863060554 1.026464343293645 0.5818732984091461 0.23819753838448657
P 0.022286794188620913 8.493928394697173 5.7891395248314135 0.17722048448048192 0.6491171591584691 0.4083423469651096
P 1.3092883747473427 4.869863167196167 9.442543388772645 -0.3508272834677765 0.3610103946483653 -1.0124279198052368
P 4.9894031785104564 5.875131447161844 10.144742095498769 0.011966942553889068 2.016613911316656 0.01109688124410992
Ni 7.460089418958014 0.6401129516748785 5.555807588555463 -0.30927414261633834 0.47499973908334325 0.6013221511623773
Ni 3.108269667130544 4.667235095212431 8.387418602437958 -0.3609355755463719 -1.0010636438323532 0.672446577913029
Ni 0.7135545031804711 8.559730909176112 2.349987436944381 -0.26365017412963626 0.08170734447282056 0.708788863987489
Ni 6.56490180947732 2.8949895149306832 5.458666305433787 1.1113485428325505 1.7947804161124896 0.7896472301964529
Ni 7.088725423412906 6.085604074343501 10.767780524105422 -0.8284924851984248 1.278692391629269 -0.39937099670443477
Ni 4.989852749510104 7.704545943745638 11.826436736516932 -0.584894087513341 -0.437231519195634 -0.32881632641432407
Ni 0.8630983325160975 0.5537237553794535 11.44982285268615 2.04078716612875 1.138298331948517 -4.066540834963145
Ni 0.9360343460200462 6.721352517354461 5.004140849872353 -0.21108834087252035 0.02583058790985874 -1.4002973436279755
Ni 8.468669844451702 0.7413416609259971 12.840738641100005 -2.621050182627983 1.6145453131754002 2.318100439567776
Ni 2.6026215664663988 0.9843953406963547 2.1541873392042628 2.0066470299119312 -0.3413288570590379 -0.3817270583704265
Ni 3.061211510861376 5.560083100511289 2.2457420145364475 -0.30123070348657155 1.6637487714832442 0.12489082183883006
Ni 0.5432065464632228 1.6552837210266573 1.3947701716169498 -0.46701929198102793 -0.17924240000651712 -0.47885279428084626
Ni 7.253369333385654 3.871613699775998 11.584604238380308 -0.06664119416831749 -1.5217362023624632 1.3388716322223264
Ni 7.104331959543508 8.036466965260493 12.742026611955074 -0.04192235126539877 -1.495239184513199 -0.32964473585289034
Ni 4.055561637978484 8.71533752456412 3.8694530065021846 0.5391451634130006 1.0447281745998396 -1.2961751217950643
Ni 7.09671677730459 8.976198803379678 1.6237642064922257 0.23466767085435716 0.3847928417799438 0.6162870000023257
Ni 6.38014647845914 5.68483446545414 7.9225530138846425 -1.4939479765056012 -1.4744991237523701 2.3897689117473555
Ni 5.370914633761881 2.5549211659120203 12.893298078417915 0.36692598880185195 -1.002146849594203 0.19692876154268665
Ni 0.9702017419932151 7.166180084209225 7.372955219291745 0.9043883651957909 1.4877446759083668 -0.433356352510944
Ni 0.5471701111948041 1.787833766575629 6.092474253211575 -1.0771474714708096 -0.3155116388856179 -0.23967438004032915
Ni 0.5178434021484462 6.081502885836518 2.1140498238541494 -0.3460213774387009 1.1325154067181529 0.15028997863822505
Ni 5.5522201954766475 3.5467940650718908 2.0361914666499845 1.133243800243745 -0.676613307696209 -1.2891866062923734
Ni 4.5422543573105765 2.0991295716168863 8.056703165195623 0.5024856032084378 -1.3268658660107018 -0.2242387622115493
Ni 3.373131210351123 3.4087390685068346 2.6776402864380993 -1.2492743434784679 -1.9164308766371512 0.6557912287445351
P 6.225622503437629 0.611392704732126 12.03473857801458 -1.3611101319055527 0.7613080169321276 0.11094310140948636
P 8.611578372829275 8.30564072011034 8.583875624332661 -0.33149747279091296 1.6929336205773167 0.5959464886727607
P 3.8498783181808216 3.2409389866181977 11.644884369498278 0.33724414546670306 0.20775490562391316 -0.10701008490366731
P 5.263320366152495 4.105005273021289 3.9499298854063336 -0.183013179902859 0.35964770997288387 2.546584864429556
P 6.787063282649798 3.9785748980185334 0.3358873387219462 1.192415682618211 0.8831297129273307 -0.1841238964685345
P 1.5163295824623069 2.0736783480858527 8.23155417184403 -0.0532424042639083 0.5625383455259603 -1.4457418491140197
P 1.6108404164901298 4.154467257900816 1.291847772436549 0.5887980505534376 -0.2871089193732087 -0.4387582402528057
P 6.84601213311371 2.637559655581819 7.640072874937083 -0.37825221244794854 0.7623308017696871 0.39035336658685676
Ni 8.773625780906102 1.5038333436557936 9.15505374440045 0.10455956648064574 0.6388610286480998 -0.12644762480298868
Ni 6.414781795268676 1.7532259745211733 3.5967753503306 -1.48269245819644 -0.7942711021217095 -2.31229565996054
Ni 3.33157800509804 7.37262492223078 8.75523649203687 0.45096686650385565 -1.8914125002159428 -0.34163918921060515
Ni 0.09243363251108651 3.2293143650558975 13.178678409059115 -0.8546179786408831 1.2046446205842352 0.6783624291768318
Ni 2.7304832287333376 5.6837976996794435 11.200632070024696 3.4247567191309787 0.134950005847045 -2.5710244855291595
Ni 4.896892476685146 1.098008354749993 5.6538480136764315 -0.6726566370413061 0.7219050896544729 -0.7942034821085676
Ni 8.875430675030238 3.9311680948516794 2.1897190455375846 -0.3456570521207466 -1.1312236844899226 -0.21071013159749521
Ni 4.789665205810166 3.913928423252973 6.70048600052799 0.1255647079774031 -0.08615766693469032 0.3485405443161288
Ni 3.1790633371973995 7.4930365507892835 5.812142880143962 -0.2172661875484581 0.4134567853735395 -0.2598248868462751
Ni 5.618408056526711 5.306506706873684 12.5170603662399 -0.6596183158001091 1.1401644386229781 -0.41068230795219596
Ni 3.9966219624329327 4.463946429106765 0.46512065128372626 -1.0893188167260206 -0.20048639698695797 -1.1090358355389738
Ni 1.7542168657040687 9.071425281039591 4.529889319836613 -0.31630790953466814 0.3724178651543586 0.3902973165379407
Ni 7.0505944627081565 7.606383492210478 7.032893292715935 0.19908180332994743 2.4615682530778447 -0.03578127136466741
Ni 2.7131885076244697 2.359880751412122 13.377969563235267 -0.6512606878640332 -0.23602495621319997 0.8567368247560987
Ni 9.09407815447078 7.647597225484235 0.4084600254588334 1.0836513340275982 1.061667116447023 0.28288433976889993
Ni 8.566300150721974 6.213328112835039 8.732635915640332 -0.8036129483479257 -1.8072230127512168 0.3354667418513061
Ni 1.476014991187843 5.83025692146239 12.9335291779353 -0.7930369726042923 -0.1970102655128994 2.987391502570958
Ni 5.842496262554819 1.959074442849319 10.278771137887396 0.6814402967712071 -1.8578737450285487 0.6221730264694575
Ni 7.45213476473977 3.9028818215473615 9.38023468320525 -0.2327349726080185 -0.29294455221837934 -1.0181661078405948
Ni 3.441860523786947 4.973356246298568 4.942008302737472 0.15051135062041174 0.20192981430170384 -0.7786760758969299
Ni 1.3538417783041923 4.587505054662797 3.8255822168713296 -0.7738971664510479 -1.006873308535595 0.9534599259114612
Ni 7.986931581034087 5.782923517642417 6.280647241318909 2.4541241380949734 -2.4650973492770256 -1.3607897724516564
Ni 4.9084528738189235 8.737348153710101 7.39736784206441 -0.21134853651244248 -1.745116987449091 -2.467297699362454
Ni 7.469053314195873 7.71830832128585 4.514983747468727 0.055837161574278024 -1.0142873416114788 -0.5117757702611122
P 3.0730838552193998 1.9439266526367247 4.347182748088254 0.7653952996276238 -1.0616311210027651 0.3973290265737415
P 1.3618147823591558 0.26450739137187756 13.409647803857329 2.0857246500713886 -0.3652226329575 2.072254640609412
P 4.143246332746362 0.1165333905676715 9.118058638588685 -0.8275522327723426 1.8713262709890286 2.538882610689292
P 9.023834979505533 2.5922906083928785 11.157902640237841 -0.3846288053982537 -0.36655446439504613 -0.935920117255485
P 3.6450023911988505 6.674725582248219 13.177148032676644 0.04979892579999811 -0.5618768006825613 0.7615309315762111
P 5.449240911802414 8.091966046420993 5.331391837941897 0.6902154718606758 0.42257520273503996 -0.006995971701858919
P 4.786921905220483 0.8226901570743601 2.096834007043179 1.1710899245572413 -0.15309659484908472 -0.443873449992184
P 8.29798883819798 0.8737238054689779 3.2030006991990105 0.6602585204872693 0.05087004737698981 0.019439339671534262
