# total energy = -340897.1450608327 ev
CRYSTAL
PRIMVEC
9.01159095518054 0.00000000000000 0.00000000000000
0.00000000000000 9.01159095518054 0.00000000000000
0.00000000000000 0.00000000000000 13.18937426848392
PRIMCOORD
 96 1
Ni 6.259658368140439 1.9715108188037604 11.279249723350024 0.41958578108941286 0.4630551651269573 0.5287764185841667
Ni 4.619026135710889 0.34273423548045207 6.067784473943717 0.20083915234068636 -0.13341531437007345 -0.8465724826285872
Ni 2.7672162800252638 1.6040271498287928 4.874660640797173 0.1532187222492458 -0.8986067255170073 -0.21995016213852442
Ni 3.39973985160262 4.4019999899024045 5.179269538276879 0.6986798005779451 -0.30740700750061256 -1.2243747520233106
Ni 4.86323123994475 4.578401883528658 2.5217026927796766 0.11897959856071769 -0.48039288507445654 0.030373470085534787
Ni 7.277688790672456 5.963807835943764 2.622983963914566 -0.1613601204094576 -0.07261155281913946 -0.8689004567018261
Ni 5.1685349310897735 4.5894591056732 11.452083026944297 -0.68254587113056 -0.4179071078354093 -0.3415160333691796
Ni 5.622791209705977 7.645596004423947 12.281470210649452 -0.9548640053478392 1.3370410067714908 0.676035837926184
Ni 1.9425926233173418 6.383423558794997 0.307473682255379 0.2711806781787265 1.013233446425668 -0.045682332528463265
Ni 2.7745427035000096 1.7658663124154537 0.32765694259533923 -0.4774209469303262 -1.0583311100952548 0.35850279773516325
Ni 0.5654277708624502 -0.19001840761191222 4.650454960447078 0.18037188562527 0.35358196339477815 0.3625108904532918
Ni 8.539347575614984 2.257457612502593 1.3016990860286164 0.3115259147649925 0.7079627685417679 0.8491857518817181
Ni 6.971006326105986 0.6177274403311258 4.828195075335324 -0.9104499980088384 0.3261673188272512 -0.6124059197803647
Ni 0.832766530326348 7.374923857452905 2.3381068460662284 0.6348472795030163 -0.34568867668963044 0.0952989671143262
Ni 7.7618184934200025 3.718642033551322 3.799541789344475 0.022898501864728308 -0.036863705795568774 -1.20748209003303
Ni 7.427749803835387 3.85360863180626 12.751460727133928 0.11993810581924505 -0.2889053491519992 -1.1423007682396908
Ni 7.9194402314234145 8.856159068454042 6.988152680282367 0.35425559242303506 0.21272201982120137 0.23612625767775464
Ni 6.720628282044078 0.598174991360455 0.542836613410003 0.2190057959473841 -0.688800336680704 -1.2038794602834362
Ni 1.839427929665574 6.497257976178743 9.381601508935443 -0.04451170925912979 0.3125687542072101 -1.2242706223452786
Ni 0.03413770898773811 4.891933157247412 1.1844799150690835 0.03803150085142482 -0.06121153851231393 0.915421997302133
Ni 6.348584748028248 2.1147500575873774 6.885710716227986 -0.15776263286618636 -0.15230880884046674 0.6061612244222335
Ni 3.4989033988548948 4.326717158773223 0.3245785831132075 -0.5717989448922797 0.4002577701847623 -0.01502912641898057
Ni 5.979758351995794 5.394455517205236 4.5536443396022515 -0.20529513122951096 0.9640783248572556 1.2579587586263432
Ni 5.358183863471102 3.0669688311205423 9.065412717033782 -0.24739745971619975 -0.44953270516049026 0.23299876779236645
P 0.1666071953793889 5.692378715329576 12.264456326860621 0.40489141230203174 -0.03410465499319288 0.222990491626745
P 3.9229348012911522 6.189998769788922 12.38197378148192 -0.5013540607071559 0.10730781864974423 0.8749762305822608
P 2.4160616139238993 8.747235968159764 1.3584396675370887 -0.27674300275785246 -0.9233214546548678 -0.706409565122035
P 6.380512814905276 7.782382944058832 5.788420647462967 -0.1649933462866707 -0.8599085376158611 -0.3610903559566813
P 4.679295656250984 0.9207232630236499 12.58469402659402 1.3376740123697994 -0.10551884507012149 0.07009161461076316
P 4.029190470652438 6.1268365285410855 8.195547268920434 -0.411636187225033 -0.453526913921548 0.2027433113419347
P 4.785244931518614 1.0681619032085354 3.8834532188464346 0.09272143619513709 -0.5484098765443781 -0.3138314229697176
P 0.28766079830510155 5.501585310892536 3.391568140893026 0.08663923455679917 -0.38826434526831194 0.4024509211813391
Ni 1.4403856690441625 1.1981541032370773 2.744075415522436 0.5147772760915973 -0.3255353416702071 -1.3666120355603883
Ni 1.7808796230045387 6.381197695820505 4.736198446397274 0.7689886734058369 0.2852664668478313 0.20983672785360635
Ni 6.049697309667995 5.694694694213966 9.17218114592239 -0.608641567641926 0.157645904782664 0.10696894725308674
Ni 8.482962050791512 2.1893119614373706 10.196863924923113 0.6341358552582885 1.2167570875770528 0.06791311890220561
Ni 2.237866413690666 5.2608316460077855 7.058927012439328 -0.020572424834712957 0.12306379593242031 0.35746407205800373
Ni 0.3577790866380015 9.036192633249204 9.344197098213884 0.02030605854720374 0.8348330827044719 -1.41815339797279
Ni 1.5386300340154737 1.097792014383152 11.306195281568764 -0.42927344069082196 1.2659278928747486 0.610159289838033
Ni 4.179765144501789 6.831263584626429 1.704515400956576 -0.9086869925711447 0.3841940318536803 -0.8346605616823496
Ni 5.7433662971501285 7.780066965174442 7.91296540329721 -0.9025590252965358 0.49831295988798696 -0.1022381174363207
Ni 5.413478985784803 2.9608663588060846 4.655215783967014 -0.2967497848970825 0.13754759137089215 0.2908375331777056
Ni 0.7834857438392712 7.413745791437165 6.948861242407536 0.2754595080597385 -0.309555421302183 0.008839452668500907
Ni 5.156495445527338 4.615061035675356 7.074160205848565 0.33268609378237546 -0.29013227958056487 -0.6693753951868731
Ni 8.352744560988224 6.968888602223372 9.377025423030798 -0.8457469014034983 0.2970549748423271 -0.40252034096669387
Ni 4.5558819176450305 0.39666500291828993 10.388808109529554 0.11942851317267818 -0.45038836829256623 -0.5573511448980659
Ni 8.179091202613874 6.938618668088476 4.711705843245968 -0.4570202717867871 0.214574756759224 0.2805765175713297
Ni 7.414034162348839 6.224585256007955 7.032350028292072 0.17987026339850312 -0.4530564020430326 -0.44533229392589757
Ni 2.385287030693572 5.165164596059571 2.5059810711387898 -0.3735211255208664 0.25973412690468173 0.19121114233261907
Ni 2.1712437215027274 5.170039866785078 11.348018976511744 0.4507629780231657 -0.594691276109421 0.16818177131698134
Ni 1.240139105658774 3.3129402071884138 3.8336497600819466 -0.4007858747740904 0.7446349271518208 0.07536546141519278
Ni 3.5275602582026084 2.583145522466651 2.702423841967364 0.32252355142707684 0.3360385551943761 0.07536263320171538
Ni 1.1482208775623355 3.18660671310175 8.21262783848259 -0.9008844658075904 0.7340916044183358 0.17645609551063157
Ni 3.5998512411231607 2.658698701325527 6.974778578094335 0.4277796297541149 0.362473352347137 0.3600351752192896
Ni 4.117693305763724 6.866688148807517 6.081792090978335 0.5875880894057364 -0.6542272266915249 -1.2675993670399008
Ni 0.8884824939392746 7.758502227935739 11.350644052967086 -0.010982981374064955 -1.7170374556040555 0.8342545844931826
P 0.32181292583842347 5.451417783852058 8.069074996332526 -0.05275466599421238 0.6774941676392655 -0.3601642445979862
P 8.461956032194179 1.7781851572985745 7.993552456883015 -0.6202061325510738 -1.0282085796782614 0.04367430095949898
P 1.8906227780788947 3.0841539351381804 10.456720360388141 -1.1448430750455703 1.1207063298983668 0.7004816296733742
P 3.983772052063609 6.108651137923574 3.8786653605535295 -0.6537963098016935 0.05428961458150005 -0.45624714106618847
P 6.903392358909164 4.032335515907894 10.296733079749893 0.2625895940756058 -0.7673094859312012 0.6667418142187679
P 6.233200336994249 7.719373899857823 10.066539197187044 0.8988481521038519 0.42182983992858314 0.767583308417878
P 2.450224555366409 8.376093593242917 5.696240182068724 -0.44777767014259656 0.7452026267298326 0.6410693491533281
P 6.7544217482560045 3.932243774783664 1.642340830081226 0.8398451912070826 -0.5234408653038662 0.6466237033126541
Ni 5.173716595908935 2.740235576601662 0.5212331263300429 0.6467728272960087 0.08283708720188959 0.07409353668130465
Ni 1.3695725870459454 1.0317370524275742 6.950365276943741 0.179288165642788 -0.1917032514776892 0.04722396598397029
Ni 6.794442223841915 0.6961363923746849 9.079591554297208 -0.6455993758131978 0.15398696787383803 0.3908673301087978
Ni 2.8025867746604134 1.6587455303191434 9.131452359284678 0.17093310880987334 -1.0450799015123033 -0.35702184231426254
Ni 6.498798958238007 1.8693103653879066 2.5382948341101823 -0.27339774043470333 0.24177214310962236 1.1323665398451142
Ni 4.039652927791649 6.9579755655346665 10.298658856744424 0.32449738732399597 -0.09724940597247768 -0.20350152966419793
Ni 8.269729784789755 7.207290241859773 0.41365545657054736 -1.0593379540932144 -0.06549808170280978 -0.14887458634793715
Ni 7.590994774616464 4.04962875901741 8.15091466106592 0.6961572912664075 -1.0140400014873632 -0.34067888217986486
Ni 3.0774312882597545 8.475410337542021 12.280376203503286 0.2518899482699146 -0.8578524264177807 0.7400897309832997
Ni -0.017258999063754825 4.7899219472423455 10.199844058063455 0.10020463194605969 -1.0531397957023023 0.3952695729415515
Ni 8.495361999993541 2.337453505719464 5.803654742031304 1.2707204291673857 -0.08942785304552986 -0.09941813148902233
Ni 3.8114974671107054 2.605287001528705 11.500765443789648 -0.541391536245016 0.6058501209397179 -0.9261458114775405
Ni 0.8517728768830342 3.3487702929640455 12.731518076273398 0.8476289489175595 -0.18886655335984245 -1.9517436930058323
Ni 3.2484802968380393 8.248696731419452 7.8285925803365695 -0.8523674920438093 0.5255059753630111 1.3137020749352342
Ni 5.597738986754203 7.740019454815562 3.5368494061949423 -0.3199498771626296 0.7012290493623601 1.7034499467276083
Ni 2.9111764460880685 8.225428803483668 3.456512874838655 0.9913160775272863 0.19351845030955706 0.6160080353093262
Ni 3.2133711383415955 4.218325742347345 9.17071676238654 0.8358247571937799 0.7510405735678485 -0.10946805952585663
Ni 7.156248590493279 6.138857990921541 11.463887309981896 1.084996792311899 -0.7283485312869714 -0.3711181725063286
Ni 0.49035851443972844 9.214712250758073 0.3107602094893762 0.5707064831590494 -0.034517059940263134 -0.00911404648612624
Ni 4.536128510195286 0.4816821546347038 1.7098836057092275 -0.2304639171856547 -0.8903689109882473 0.09431963392019241
Ni 5.859408554326388 5.489762103513857 0.41414478596129606 -0.08892931614255653 1.1975800004279697 0.13968520653918526
Ni 7.816500827546394 8.771666391333238 11.343020246989674 -0.7764862673344627 0.5145649029704751 0.16326325096944141
Ni 0.13050045376036923 4.791715253849325 5.686836586870819 -0.09697738325801362 0.20008273379063607 0.4248701694168037
Ni 7.928992517872652 8.591551722219169 2.6624727556320753 -0.5706468335657076 0.8272177322510592 -0.26716461504079797
P 8.604654575518405 1.5833815948710535 3.6534828237401356 -1.1115413755696468 0.0560194527884132 -0.3604776620733469
P 1.815006518083089 3.2914115163136697 1.4967829089359215 -0.5152557583899127 0.1669972640905769 0.6416805003747659
P 4.683341860605426 1.122573889605231 8.152562881057962 1.2550305292359547 -0.19112835281082566 -0.026567980296515536
P 8.286689599032647 1.7349565553202788 12.349738419352137 -0.21394097982996704 -0.8314124870586972 0.3578829047629772
P 6.200425180564175 7.597212772399459 1.4898845360331938 1.155429849422481 0.4515078266089902 -1.3954436150801
P 1.7191862710880466 3.22661817709667 6.036473701049494 0.08374648639003641 -0.4656293536120368 -0.26126059085153713
P 7.053543487981994 4.0113385089015505 5.856781675552847 -1.2756762305107643 0.4785887419861823 0.9400863328180326
P 2.3761402658388775 8.62031672065876 9.9245687904148 0.6488808747779471 -0.6550654063221041 0.664850510733326
