# total energy = -381176.71326849255 ev
CRYSTAL
PRIMVEC
9.12502302869072 0.00000000000000 0.00000000000000

0.00000000000000 9.12502302869072 0.00000000000000

0.00000000000000 0.00000000000000 13.35539357395104

PRIMCOORD
 96 1
Ni 8.885545672758651 8.3346406730447 9.743600763926919 -1.4385417318211549 -0.45577148698135056 2.2811637144424264
Ni 8.038214308350089 2.789099709846586 0.3805855372032116 -0.23728299699001715 0.9411476842030115 -0.31651873999389357
Ni 2.061899270209598 6.298099841113886 0.4577695423061625 -1.434289384302704 0.08942862437647825 -0.449788015704406
Ni 3.2258689247490806 4.6091402515282285 6.897606537107241 0.6909631486599778 2.9722163374924166 0.04172694742514104
Ni 1.5498942425656217 3.5225690401268004 5.82383317014122 -0.2433253465293551 -0.7138773342539899 -0.6758900563769391
Ni 4.229594054418559 6.487818189532098 3.8143808808064477 0.887179457516672 -0.19277822970942285 0.8374640925694157
Ni 2.9810354387979925 9.104783469838925 7.076248020384534 1.4620801812627273 0.20863370868444067 -0.41786365619198357
Ni 6.27427440666052 0.6892996575603663 9.868860863997703 1.9664874269739097 -0.3481469084221359 -1.2991205775766337
Ni 1.3022319995557277 7.84404294881995 5.7334571196191835 1.6991317789682288 -0.7571022063808961 0.2275058629985953
Ni 2.202780496760932 7.510103615516456 2.8023218678408144 -0.8046380471783303 -0.7435059557537002 -0.44607328585698014
Ni 8.14286919450316 9.00797610326835 5.293824472571356 0.03814617205241817 0.8072302333855389 0.5873620894378594
Ni 0.03608581504760059 5.421577528862996 12.485943857098265 0.7830258682251934 -1.889568247918352 -0.44225314077994154
Ni 7.857484107360665 6.309305369075868 10.77533150098086 0.5428622072532716 -0.012549040309604194 -0.7599134505774461
Ni 0.9543678815046909 0.7750228589718048 6.472291050786082 -1.6027827733228333 2.7052319567832246 -0.8077634801811895
Ni 7.1321542973915975 6.30882174286904 6.101023986835946 -0.5652580584499685 -0.6039243646719147 0.8707326248145585
Ni 7.435460929255046 5.257171993609716 8.422084853750626 0.9360967520426653 0.8166587257882904 0.5578820777008715
Ni 8.203660096199188 8.065662376843283 2.4718828932720256 -0.6180227517465099 -0.19350302369058933 0.5202758373123234
Ni 7.890699190244716 0.9434543542713599 7.9967958299955 -0.6642635278816044 -0.5283048782643869 -0.8041544226736925
Ni 4.239257453532353 2.187870209554191 2.7243403357477356 0.49689705337706686 -0.18281031986343352 0.6082479317479331
Ni 8.978620905016156 2.2774688081361942 4.529388465017703 -0.19023540868291108 -0.7953743624882172 0.40737046997014364
Ni 3.1097803850647696 2.357230632171767 11.895582258925348 0.961181720035751 -0.6972124720037992 3.768121118562807
Ni 5.028334672575041 1.1606298962055364 7.959680712379404 1.1599683607227829 0.6454348252108756 -1.0328494208843824
Ni 5.682014803751372 3.6247784201774187 0.35025852402597485 2.2655041535282985 -0.05987225087560012 -0.41541776575465234
Ni 1.4759906831486094 7.251673845637558 11.643806455650584 -0.3606195869678499 -0.022492267565245132 0.08888123651344047
P 2.854297997540691 5.239505949526332 2.6471727556857707 -0.8793692174436339 -0.6163337940798612 -1.332038411350577
Ni 4.382255685366407 8.153089220005945 8.836715850909988 0.4981697494419033 0.08920031041575605 0.35351640026416536
P 6.7372689370049805 7.87008576380651 8.701185537711183 0.02356287492160458 -0.47349641506493945 -0.8307206031979951
Ni 5.208964498313992 8.629315033367403 2.3111237171177748 0.39936534027747994 -0.33630774969536276 -1.064591746292986
P 8.903531092638998 4.527745048416764 4.634601802564318 1.6373908503150059 -0.6058868877149243 1.351121396123957
P 5.015714766083656 5.519607648484796 5.705877650798097 0.33056544789494685 0.3433407452827442 -0.5443753014636883
P 4.98394143679732 0.8592805817263259 5.239974975696727 0.9420334292420744 -0.8827630736165313 -0.0035193260071681325
Ni 0.9725084267721339 0.8761372362899815 8.750988086987165 1.137686409396131 0.6539032676932028 -0.5408246079979525
Ni 6.310017120851954 5.963567381330321 12.491726384027832 -0.09573271221763513 -1.358181645404848 1.5691733127985041
Ni 2.2974799830715575 2.8391960848557725 10.094273563986668 -3.0200159734741994 3.258393746190291 -1.288830508504535
Ni 4.169460154361995 6.349546719493083 1.019368156204679 1.5591403540425341 0.7971044578054466 0.8767636614999869
Ni 9.050234083717811 0.918059415901494 12.945168840536297 0.7577154144848628 -0.455016611093197 -0.8731162945553866
Ni 0.701323700064848 5.737887318174185 6.729769080790035 0.05406207195172625 -0.4474732515283003 0.35083705365978934
Ni 8.364689373027442 7.15533185522827 0.13217869233525736 -1.3824495168132773 1.9045852901524747 0.25629296243361666
Ni 8.548750207328041 1.5861114579411153 10.202304708564766 -0.5569487672533247 1.6825198814431601 1.4443277423753127
Ni 8.733440668199794 6.930673794622412 4.578669062991221 0.7211779816804612 -0.04235995302344963 0.08724884311634007
Ni 1.8996381153073492 5.845170210885114 4.569948278729603 -0.26166271138596225 -1.1212105232282947 0.08709791936077257
Ni 0.2164820402036303 1.258942891533218 2.109671501919178 0.2161233321932665 -0.4154876997606393 0.5344477579373312
Ni 4.975318290279345 1.0617420244433233 0.1364263904348523 -0.9676904676885464 2.26212032465773 1.913350180829298
Ni 8.832118664438289 7.779866663676123 7.603946262188947 -0.8427356253810002 -0.3307508244328755 -1.2110703216049208
Ni 5.136082941447258 2.752991994744337 10.759839037321372 0.5702974206460888 0.8845163088622122 -0.5049844583708916
Ni 1.3514706224245012 0.5209484624611901 11.152340941760375 1.266412288710335 0.1917330762743601 -0.09178375487221611
Ni 5.486775816557101 8.080180288070899 6.631246209938636 -0.1787394922281696 0.7324800369568418 0.8711023494491514
Ni 6.037279315269157 4.018906403674097 6.857767600194198 -0.21678821947077503 -0.10668149791965498 0.061034903725133594
Ni 0.615104097414703 3.1135763945372323 12.087525287894971 0.42163520741927385 -0.3308575252140689 -0.5238753817381235
Ni 6.840810570380069 1.494998105579235 12.140413007369606 -0.1567532177650655 -0.4099048063562231 -0.7069016742671052
Ni 2.3536171231547107 4.918259522896387 11.610484610000121 -0.7043069169567354 -1.1137859486294495 1.0028850133118083
Ni 1.3695381675097815 3.90848450313017 8.330507037729735 -0.305734504894196 0.18106556925818496 -0.9968706887969283
Ni 7.744315574962865 4.972234032582969 1.1356875589650794 -1.1379352921821435 1.8907679246534081 -0.5784750713608747
Ni 6.1587424933651995 3.4975664777360596 4.056193071718275 -0.2114007299066166 -1.3792045275134184 1.3719465603994243
Ni 3.2489552323580493 1.0981234902286832 9.53891555316079 0.9243550381257049 -2.294574588531693 -1.2825145935888365
Ni 7.343179573978562 5.42061940147211 3.714763007222608 -2.016697215059082 0.7710098176009237 -1.6133682621481635
P 8.820064509358666 3.947229349813049 9.718065300206389 -0.9971527388137214 -0.12350396879363246 0.7424672300765407
Ni 1.092621101498166 4.316135770372497 1.2103338952355978 0.04230827384990778 -1.910692431491477 -0.7254611824368473
P 3.316891026883257 8.043068820463914 10.772767369582393 -0.07628848745009442 1.2867278603392356 0.2833067720182992
Ni 5.1075946203582445 4.740631829648879 2.4921030312288295 0.5486880699064293 -0.289552752928011 -0.9958347913332461
P 1.9706946676200143 2.03538195403898 0.3885507695794445 -0.6167629111974797 -0.28378859675072415 0.6527604123380113
P 2.8060813772221955 6.958158363206687 7.190851006361832 -0.2436300222539675 -1.05159122026826 0.7793376207403289
P 0.9093149065806736 0.11849480818885019 4.139677905044148 0.0540247909558876 0.6755488709874365 -1.1139659258507395
Ni 2.6227505447432238 0.49817149312413556 2.008504199468933 0.6977886562222434 1.3608915881368433 0.06793265928623139
Ni 4.206261371194791 3.3854838230479296 8.604065182859587 0.2968891386884242 0.10394198750130486 0.5100613586731667
Ni 7.3242451517301 0.625968349525074 1.0971051376875127 -0.7780492409462085 -1.7694617348420432 -0.3275372025915843
Ni 2.021703544906235 7.877358406954474 9.139817169761105 -0.568246451654331 -0.14849843395544104 -1.0823223308035295
Ni 5.4522649804396615 5.245391589213203 10.208756099663399 0.8081679147084597 -1.7991052687400888 0.9701394434496713
Ni 5.7572962416067055 7.453911725296681 10.769561749083172 0.44397346590515796 1.4888661911073198 -1.6879569932983316
Ni 6.886435684231786 1.8779479361822426 5.993339593123121 -0.8286356956445085 -0.20794465303721607 0.12416422808545069
Ni 2.9976338552172472 8.811952364115829 13.177192619522376 1.1427103449732836 -0.37848515439436103 -1.7414382530459231
Ni 8.50516909857688 3.500796735796761 6.807284324219549 -0.777412635803474 0.28260486085526815 -0.07342093609431226
Ni 3.6950775956001456 4.0415820852584 4.499204714697961 -0.16359260928440214 0.49761464826938173 -1.081661557291079
Ni 5.088596322950389 6.060867499130494 8.171911404474333 0.2293657990254695 -0.26464184861894424 -2.340413758352995
Ni 8.179697786404265 3.3452515976534847 2.571500766855866 0.26888391172474985 -0.2545201868039101 1.7572153133745219
Ni 0.9940161054418336 5.823835907648051 9.624217178520238 -2.7618700169922437 -0.10699671516722864 0.3917649022224027
Ni 3.981813186112651 6.54310670249761 12.021002046894614 -0.25961174239420454 -0.07037135063471106 0.822630369990693
Ni 7.196458332854208 3.8814288106161015 11.584615170446197 1.019923456851334 -0.09718178595933585 -0.6178916254852843
Ni 6.86290225050707 2.967785905735454 8.913870655940075 -0.005019307591462323 -0.03240978378927322 0.10823598689096843
Ni 3.509027506335611 3.660420759118381 0.8068646259289185 -1.999723049098588 0.4232069227817679 0.29601676338579985
Ni 1.880749318172738 2.6130962706522003 3.0265857274629937 -0.5424197203992143 2.442152567555394 -1.2114878687583137
Ni 0.3714477394009896 6.010853249326242 2.5175983448491697 -0.1956774056340888 -0.12859501016329467 0.020339482888300453
Ni 1.0521881256027736 8.462819867899716 0.809560157655278 -1.1649956387340452 -0.9328700175752515 0.8521309505529712
Ni 6.207962866188433 7.894248824102379 4.523377812518878 0.10400035154306606 -0.29297694811821157 -1.7616694924911338
Ni 5.685181186652681 8.172908769463131 12.96159570652747 0.8703323040523463 -0.47451688590965374 1.1589592027319782
Ni 4.6432130865526915 0.5739712322728254 11.232459554186267 -1.2072216372827917 -1.4953600263617794 2.1229976754902338
Ni 4.108441127096708 2.578110933350703 6.219125506543395 0.691089646935513 -0.781323540822106 0.6179484468651487
Ni 3.162723767178303 5.587050691780406 9.54714267369053 1.1605211479024593 0.10711575724359615 -0.767793110435839
P 6.169427895029272 2.1430207226379525 1.8608065809081522 -0.04955081434493402 1.29629030721669 -0.27164321963744187
Ni 2.734951824727368 1.5148724051730431 4.670781605346454 -0.6759399357782682 -0.31565510644201766 1.0688070699259142
P 2.4135046475964756 2.139434588689207 7.6359997296743325 0.49431000937618097 0.0985724956592754 -0.29319754876944987
Ni 3.66385176768003 8.687030802389827 4.024928006200247 0.757168026621825 0.38751281181426805 1.4303375987438076
P 6.36802489060303 6.895624582161522 1.4409004080852532 0.5326076194047988 -0.1902400366686014 -0.010282098652298422
P 7.760539865448536 8.591409688779397 11.704038905953068 0.013219841124383683 -0.3220409553637035 0.23847676018780217
P 4.534461065175737 4.398370475578834 12.105462345154635 -0.6938810936377211 -0.20267749110100577 -0.6606680972208623
Ni 6.711007121471932 1.1169575372266722 3.61788264046987 0.17471185912601522 -0.4376963746471945 0.6762011598594548
