# total energy = -340891.72185719886 ev
CRYSTAL
PRIMVEC
9.04961833677655 0.00000000000000 0.00000000000000

0.00000000000000 9.04961833677655 0.00000000000000

0.00000000000000 0.00000000000000 13.24503118531075

PRIMCOORD
 96 1
Ni 6.013362693973989 2.3067567270690574 11.376209873441365 0.7451568610935618 -1.244161961952567 0.8353491031089418
Ni 4.981099895528374 0.4840007298277936 6.072489279401188 -0.8959476906276054 -0.861225970875704 0.4060342676572233
Ni 3.0139843888689204 1.4154507816009796 4.8342770800379915 -0.16776011039853045 0.8086538532059429 0.020047919789810634
Ni 3.5515679080187486 4.470131303484794 5.334820511922985 0.9291588872722514 -1.2906325947102804 -0.3004251768661407
Ni 5.038429226782399 4.382295709301436 2.6328208053033806 -0.804577369143724 0.1632766207058801 0.160101308301692
Ni 7.2102923450633725 6.1592968369577985 2.520886982833306 0.5111124256455003 -0.09073808721652114 1.0958833573174158
Ni 5.1812955491987065 4.529514898068681 11.921216794395088 -0.4399262924189778 0.09226686515622175 -1.9723978789210739
Ni 5.428051488473138 7.862715519085117 12.618090788020092 -0.9203875688375245 -0.5932964526444233 -0.4108188335300602
Ni 1.650713705770027 6.436142756724674 0.35574139613715666 1.0426208984488494 -0.02924115625330448 -0.5118619022170152
Ni 2.5846795514009266 1.5237385129010073 0.33982402269710826 0.18842509494704968 0.18382230606771569 -0.3117539716153986
Ni 0.8231858494804608 0.35450521829196324 4.727178468568552 -0.6338381215122116 -0.6548008398068077 0.1584061799874562
Ni 8.586974562324613 2.2982953340584005 1.4852713008471023 -0.04251190522028163 0.5684081740431759 -0.1565938093690658
Ni 7.018503786694537 1.0018470316982164 4.939615540768849 -0.3440598828369558 -1.322967045176928 -0.9342401584499007
Ni 0.5816850234908295 7.311838110809454 2.3666751540881625 -0.15603742264496354 0.21401554182164434 0.6638223265791278
Ni 7.436044120511349 3.938728673560933 3.7893900642128373 2.380642009745423 -0.7523664914681236 -2.0742379895880276
Ni 7.740310383403672 3.61878847195796 12.643137416293458 -0.7211242456243904 1.1334345760983124 -0.11756600604264268
Ni 8.00301174993455 8.758410529376905 6.8502107520407485 -0.15036094108547654 0.5110849148416746 0.12139746397359094
Ni 6.866262059830058 0.4796822520259907 -0.005541081219706411 0.6238208464855256 1.4494486085416456 1.011320031453039
Ni 1.7592095782884984 6.608130750486753 9.374899479477026 0.548279778724417 0.02317283857203751 -1.4537948013254836
Ni -0.012103864333426955 4.97948906348998 1.4070065828648894 -0.4494334605784647 -1.305373757575197 -0.05106288011408626
Ni 6.513435545712936 2.1726594846819767 7.238674662602757 -0.14756255240473298 -0.5585096839825414 -1.1675209762590604
Ni 3.2075466724036263 4.302360431800755 0.29434064165800256 0.40693338243272503 0.0213758945726148 0.2984294865923506
Ni 6.006457835292566 5.500593227909961 4.675747678452865 -0.861098444158904 1.6477958476984138 0.7234287253878509
Ni 5.2874385209869414 2.868692768776831 9.208978349751678 -0.8344376470382662 0.3079302269939342 -0.5179795850789789
P 0.0441784260956439 5.60027477230824 12.334620547735783 -0.04567179100550199 -1.7639004387041815 0.638923506454919
P 3.8806301247604837 6.22955807260993 12.568911542910877 -0.1426813130530317 -0.7340970037349744 1.052928708132761
P 2.26346335363271 8.329331932363742 1.4142118888703283 0.0038006046930128094 0.722089180640821 -0.363133097418323
P 6.263041659924831 7.763947986124353 5.695840550352244 1.6036590052801996 -0.70818311208269 -0.18732363435275481
P 4.675249949452238 1.1260349421637255 12.771574122500681 -0.40200509189317213 -0.32024144026111945 -0.21940277427548666
P 4.208434444573363 6.0512262964944075 8.339018643677761 -0.5696273911622577 1.2593489541056504 -1.1820477091203256
P 4.871400423790203 0.8634928489130468 3.8438805302396517 -0.43199598182830756 0.6285465340959692 -0.4508280269331461
P 0.33676163190052383 5.67868971395246 3.743072308376317 -0.945266077246759 -0.7418473371043546 -0.595949059775922
Ni 1.574244432037348 1.2009657808035572 2.545576151188039 -0.8441641302974108 -0.11232352669678075 0.31063657018150376
Ni 2.063729230490231 6.13564113500073 4.939800152979991 -0.1324794328193654 1.5534965254931954 -1.9789490497760305
Ni 6.28448020542456 5.662192259986226 9.204872537977417 -0.5338265794135646 0.608575747400997 0.41337708117553973
Ni 8.64028586310085 2.5510602198131282 10.24026288447061 -1.2986207551220796 -0.4100048222691971 0.38621183361465744
Ni 2.2508391362531732 5.512167689579085 7.127482003862707 0.7414431596874005 -1.1502344212644706 1.533968739872913
Ni 0.600210496894163 -0.11147048201858184 9.11630301975859 0.38909506869972343 0.24548841561894494 -0.347057274902383
Ni 1.288348894077255 0.9921458409950885 11.244607610790153 -0.7556544181907761 1.8765198993748264 1.7188369707066398
Ni 4.036573145465989 6.789901381515697 1.5719603084053801 -0.25127416906278666 0.29981016898996105 -0.014383265304865552
Ni 5.828044612613303 7.703804223612236 7.912369869149477 -1.4886905847614038 1.1270937214819492 0.029360455439988144
Ni 5.389672057715708 2.828204776980381 4.752978930037412 -0.9593076429414896 0.2999968310794704 0.24773864510570237
Ni 0.915848510008081 7.3669140871333685 6.642899383585089 -1.0268260975084382 1.2475805007158127 0.2932003769829273
Ni 5.369681451126892 4.669023812135304 7.102422706123871 -0.5892914452500883 -1.0501290339004368 -0.10326501603893828
Ni 7.917203270226473 7.517762172796093 9.010303031937806 0.5667852937277722 -1.3830843221837987 -0.30169504471749975
Ni 4.655304590954389 0.2986935080089397 10.732024566860906 -0.24075552891964988 -0.3155052111277147 -1.0400950467032024
Ni 8.383466748395563 7.526440756643389 4.592475806724345 -1.1432975849353213 -0.6911773215533129 0.15386715446652213
Ni 7.280544531097311 5.999209091119799 6.854727416480984 0.5094183257725291 0.979784165628287 -0.2250355470812318
Ni 2.2899515860842548 5.185223083494562 2.396344327334623 0.20135594407610483 0.6641835665732884 1.126641721546195
Ni 2.389243996900225 5.180544430888669 11.37334928913049 -1.1341578274175823 -0.6488253389496632 -0.07321524784140938
Ni 1.5022094712193454 3.4666372412754125 3.909641390764297 -0.8977317791112217 -0.2920750051292325 0.38573540819887114
Ni 3.798559137366204 2.293137051688267 2.418515891908003 -1.2559358146590434 1.5234421293099765 0.9757938135219711
Ni 1.144541411368853 3.3271464264451747 8.1873633320722 0.08690868616810193 0.18951138603269296 -1.1689682502285481
Ni 3.7849575612217996 2.746559121641182 7.107773745361521 0.11918271571045926 -0.7614548269226371 0.5429640229384586
Ni 4.184000475451677 6.800525633274534 6.083323482302108 0.36897901467613875 0.6846983986971885 -0.1737024440248944
Ni 0.8814653906447746 7.283811443265063 11.382024253130506 -0.049276991858257076 0.45995338627318205 0.6338640896541406
P 0.15481634324044985 5.7666972508814895 7.923110860983005 0.14672360144320537 -0.09126850579869443 0.6504191657993442
P 8.618331489364108 1.5229149976454244 8.106846164121697 -0.9628647641651288 0.47573584591841944 -0.07959261212266293
P 1.588968160837711 3.143973104596281 10.221482211834228 2.0994828801977454 1.0280293737879198 1.7752665144492783
P 4.03418404626298 5.989010171416044 3.750317432701806 -0.47451765724060213 0.4274592703002187 -0.0957918475903447
P 6.827683537472376 3.9843206500183577 10.307375757953322 0.5502345884579427 0.05891142962422758 1.063834042191355
P 6.262670625578909 7.759386978554972 10.374077778770062 -0.641286864480773 0.7885833077083128 -0.3786185946484318
P 2.573213685150122 8.49997153301503 5.755111929670535 0.3740877966576138 -0.3056709986461123 0.4338320065957819
P 6.845782773858809 3.9462398566613026 1.5781059041203935 1.4128414988415734 -0.008304920321269567 -0.662833223192981
Ni 5.184517213275492 2.9873061144353183 0.47292399715929667 0.3738240014732659 -0.3114575234209023 -0.04908467334179288
Ni 1.4981280934142047 1.056814412603813 7.124661237871882 0.7573534031597537 -0.10163545085531528 -0.45111367649436507
Ni 6.805792511062985 0.9184005023385681 9.361495185009233 -0.2465037442573368 -1.1520997566079834 -0.17911410195876895
Ni 2.8533174674665562 1.5409870851772776 9.413521440002034 0.5903322278097769 -0.746208699396844 -1.525670761530179
Ni 6.131007730485803 1.9259940415894767 2.4518275364772326 1.8209979550481221 -0.05914360023969168 0.13583086579010156
Ni 3.9996597528558593 6.745811641678347 10.45136242310195 0.9347816327756676 1.1489501552354084 -0.38670008610498563
Ni 8.02453174199802 7.098258071831354 0.3423099528147848 0.4769280664543077 0.32535022224259447 0.22017616210640145
Ni 7.877122511248718 3.842368339039565 8.260542164629827 -0.6897683570209282 0.5658666385682448 -0.5801727707782718
Ni 2.965749923899077 8.36787425624865 12.505203135792453 0.2959494004829742 -0.1069028699018417 0.008924041962507212
Ni 9.118938268576454 5.179585171360189 10.06835633727227 -0.9788338858998756 -1.1708248438213127 0.6854741005209485
Ni 8.799884929556416 2.3255708832927544 5.891005521268969 0.26199541213503263 0.5148947755060681 0.5394783783827032
Ni 3.405869055107964 2.720659114372197 11.468064403064332 0.658428409257066 0.07973376568621753 0.25592400912997215
Ni 1.1270123009285928 3.287979678904934 12.518898827966067 -0.5320795148154708 0.37322493443668625 0.053954856949900626
Ni 3.012246862175823 8.192899888482811 8.020356248163669 1.1299353046958023 0.23546137040024606 -0.07848986597678739
Ni 5.551506379864997 7.892280621722355 3.442754393901695 0.16493343958301274 -0.48615138482478853 1.2315054495308209
Ni 2.9359495311888155 8.284246734525137 3.439787929057959 0.35127336986625957 -0.6664155412276006 1.4376349037361693
Ni 3.341336227772138 4.362549442403838 9.190965084738083 -0.390559826170708 -0.8323905347012504 0.4333416972229247
Ni 7.023010496554758 6.248453675397366 11.666342442639522 0.3883885295510021 -1.5515383733255603 -1.1739104247251717
Ni 0.4359110587490415 -0.12514897991762847 0.45165920432887674 0.1044307542122653 1.1605998236591946 -0.9695213502496979
Ni 4.304441843985195 0.22603683842106304 1.6398804078309275 1.0680766195177929 -0.898356300069098 -1.1808518890400115
Ni 5.907219722185754 5.623360348319135 0.5670210221705416 0.10835631451891661 0.4241150364183341 -0.11764185358590064
Ni 8.127434950473084 -0.4441525460376037 11.165799915716347 -0.7927772911850025 1.3651467638687715 0.8197497060087882
Ni 0.07766653821964124 4.800949146156014 5.826184916074598 0.3800123896721649 -0.24394626794280566 -0.34141421768399266
Ni 7.944125884351291 0.005274117483006527 2.437509230571926 -0.3078065569318763 0.10593459245130143 0.4463435087992313
P 8.55359957042803 1.8340861192191709 3.722237372410075 0.6248120067542013 -0.3656054702182155 -1.5406759766897593
P 1.7525852577710639 3.23951897348026 1.6045298842827662 -0.244852581807159 -0.5078733498829124 -0.2932086045130434
P 4.728525051755702 0.8468849896048559 8.22190572471571 0.22327485563638325 0.842179238656898 0.8329404936674493
P 8.563590348913342 1.6157821795442115 12.331177168013262 -0.6356695182939955 -0.8569080602266402 0.9004828594937975
P 6.2740369460295895 7.823775011999707 1.4066355485189674 -0.017875337618524053 -0.19564706661678563 -0.029362769432833304
P 1.916374297450088 3.106552933367331 6.076767033921122 0.13896066966833487 0.22053945898309113 -0.32130999073494987
P 7.039200263502424 3.8100340532352024 5.800276764149239 -0.2475969773215155 0.551854640559869 2.657324334468669
P 2.336955302979821 8.577029031930268 10.361944955658418 2.467401314819854 -1.742628930919915 -1.6803236451227903
