# total energy = -340874.13499354536 ev
CRYSTAL
PRIMVEC
9.18805087063703 0.00000000000000 0.00000000000000
0.00000000000000 9.18805087063703 0.00000000000000
0.00000000000000 0.00000000000000 13.44764119159040
PRIMCOORD
 96 1
Ni 0.41341727134181716 6.876934554981613 9.314253424758087 -0.4627211788263063 0.7185387442854013 -0.9765985688114536
Ni 6.775590352992945 4.848286409425707 1.8151086534055334 -0.43417602019876195 0.037350929844632445 -0.28772521280096897
Ni 4.656384777264757 6.302368976816674 3.580300463604899 0.0747126583225423 0.5835077486887758 -0.4317823231556047
Ni 1.5917471347886267 5.929775134654898 4.679631464975683 -0.3988251515032938 -0.1673837008957182 -0.970233031604742
Ni 9.003426255113883 0.4149470818251456 5.0726521820115495 1.1927949203345005 -1.5367887258202115 0.10677277208188062
Ni 8.14680588885755 1.9457811140295416 0.869108765108825 -0.8392170707047805 0.5143563865040949 0.08398457054277149
Ni 8.55801710916605 6.4403275618447635 5.706035987143908 -0.08021944707338442 -0.7004538617592324 -0.8149882800644028
Ni 3.271175839801899 7.4453257629075305 10.86746954907893 -0.18596763454549264 0.6155354665482818 0.5103035565909599
Ni 2.7312400256709854 7.849002781436275 2.598662882084851 -1.583503099157615 -0.5239417161996849 -1.247750964855406
Ni 3.1237535622943606 5.071133397189362 10.976866158920984 -0.7204567872437205 -0.22504763126608984 0.3433325177526281
Ni 4.870227475096509 5.201337267214874 13.372415230269475 -0.6399912855978009 -0.8518003066864298 1.2944249718731773
Ni 1.1903211887428575 0.43329837598942145 7.082886554656713 0.5416797569093962 -0.8015864048362001 -0.5794860291238924
Ni -0.14395562588375596 7.570347572196723 -0.4997371724155363 -0.9399865740153747 -0.7476801417360478 0.6882130967186663
Ni 4.208007890859777 3.6676218622322687 2.031535031164684 1.0912155195281013 1.069670960588106 -0.11799203783646776
Ni 1.3548883693248162 4.8319959950897236 7.254585500386777 -0.23944015254233603 3.20632839295362 -1.4992081964632762
Ni 6.546633311346929 1.4371673655903199 12.501680180142335 -0.3047734265325074 0.6483779669995995 -1.0214941437725635
Ni 2.986842415074676 3.768506661673389 8.798441757203914 1.2322343572770456 0.04730855527797659 -0.7488386808205232
Ni 2.6263216718624105 4.428557865885702 0.44984605575203146 -1.5870512215201893 -0.8309651151086334 -1.0263969803908195
Ni 1.7543848246708917 3.9611433379104133 2.755677484785152 0.2708479774296561 -0.5122367690579307 -0.20350872875304954
Ni 8.237363319029834 8.053786061030419 7.23831438095779 0.8828234945408214 -1.0796987771377533 1.0610325681868178
Ni 5.962567288498737 4.205545493204931 4.086872627122826 -0.8055914122305352 0.22623650936786843 1.633812646045444
Ni 8.047593314689497 5.342180900241553 8.100589992574413 -0.10219286602068206 1.3175677285382277 -0.3725857581907906
Ni 4.111514979773198 8.982183481315351 3.8206359875485383 1.772945065404953 0.3248887092251437 1.2652097837618017
Ni 8.559119675280161 2.621543885367931 11.327647568125274 0.2411872171404298 -0.7200824346234374 -1.0029392635885115
P 5.93617920616769 2.9284431632306176 0.5947903159181067 -0.6106596265132193 -0.1613932876402382 0.8095359987005799
P 1.4007459316208664 7.202016985676173 7.035510207538475 -0.7505839456464042 -0.2500441533104274 0.7231232783322901
P 9.180029782441547 1.1346691641331248 8.830433631809928 -0.47096747799549854 -0.8384616805959948 0.26618990983235447
P 3.5613620529848595 4.34430343866575 4.094658581498638 0.2686874794432276 -0.1613362091500576 0.1898119479922473
P 5.030044433336841 7.141017515413004 12.261827947678714 -0.7333351858682855 0.2106635946302759 -1.1837148124101033
P 2.7742860443760535 0.34460428254998415 0.8355797295787214 -0.368337781547714 -0.9046261922382097 0.5731066079601097
P 9.050588520644963 2.7347590491851883 2.7676182758009698 -0.31791999121679443 -0.21425414019501163 -0.35552777426723925
P 3.3094532600634388 1.6567525952663977 7.877413153781621 -0.5852491568599146 0.16097651181779374 1.0107731578106334
Ni 2.6373748971563695 6.217140616195925 8.687190079874869 1.0546035247320225 -0.03668398568459489 0.4985978381182574
Ni 3.9908850588385474 2.183595436792248 3.7963097038508784 -0.28539270801305044 -0.15163775091537113 1.3554156526239365
Ni 3.0720156473897204 0.970120359653068 11.21365233878228 0.8498328985474137 0.3123604948511459 -0.5635464750755004
Ni 2.127281872514049 8.930197489035036 9.283054478949138 -1.5101783223215346 0.8201824226708326 1.950605208526015
Ni 0.35027974162236847 4.5144385781239675 12.386461102412682 3.0768846616367846 -0.11744259309090098 0.4542241970988887
Ni 1.791541302716419 -0.6000918213167884 12.300423274503157 0.7503705440840174 2.3686285302243144 0.8457695271113176
Ni 7.323822977132542 4.137168018028172 12.811096983965575 -1.1405128231013324 -0.588810906069244 0.6957119761988728
Ni 7.887950929417232 0.4545622823051396 3.026566953360986 0.5904008762641831 1.5518325075272115 0.06413385436543148
Ni 3.3655279350169143 8.31637136915681 7.726221018968919 1.6046020859197592 -0.5532849452484923 -2.314096717725021
Ni 8.789923515167315 4.750442854849343 3.922367925287334 0.009992592436337629 -1.1438269750762302 -0.7006988878905028
Ni 4.8785150970542395 1.0502034117413015 1.7543793118403213 0.13076682100363288 0.09054833980321826 -0.1485388002750732
Ni 0.7391015193736633 4.470822900259942 9.619689964909387 0.21688206473616195 -0.14233729945005164 0.7863893853807876
Ni 1.8208695613517611 1.553083816387148 2.5206664363675717 0.848715497113519 -0.6810068087782143 1.4546561208845141
Ni 6.970055451369205 8.06397560953499 11.378049540421648 -0.8357939039558444 0.42692319529109046 0.01597323549980475
Ni 9.367034183445657 8.91239104629215 10.735171722241704 -1.0984973979014951 0.8147625372068419 -0.6972973184081216
Ni 4.258817812618375 0.8446437418418057 6.166738643899549 0.054069528150893977 0.22675098711044173 -0.9789670690436301
Ni 1.190394693150465 2.1294410644875157 0.4239265640194813 0.8804655358316064 0.79097700475147 -1.8087898430177043
Ni 4.355384228112562 3.0911267933676374 11.468188914275665 1.7400238891969 0.2359712201571291 0.3151701963857992
Ni 2.295910171616315 6.781645278569604 13.511248517748092 0.34187624492207574 -0.40900646291166975 -0.18774169572677993
Ni 7.762570786140955 1.0187435252853456 6.97635386029606 0.2418446482187706 0.9614588849565376 -0.3666146282090202
Ni 0.6174535623936501 -0.2921175414928439 1.3389645582217737 0.3661533723018855 0.10596184614481105 0.11337716477227572
Ni 5.8005727621830365 8.651735228865453 7.625982139509649 1.3914506918706229 -0.9165980198881053 -0.49074928860811606
Ni 1.0377903549066063 2.7747454469235997 7.60511148177463 0.47156217415670393 -1.9995243028242211 -0.5422513131421499
Ni 1.7690213898357101 3.5658458218489093 5.167363530018746 -0.03799267719368941 -0.5967234760481013 0.6619562199046665
P 5.62515449342804 1.648740614837194 10.522792680926432 -0.6979251818001077 0.8984357471567816 -0.036487296292756516
P 1.1202990524458831 6.657744411496424 11.324971088883268 1.4971376870874924 -0.4173221818662167 0.2906390440136543
P 5.940699727235544 8.685326743142022 2.6875921896286314 0.9412600414111596 0.021622977586414373 0.5240818413219748
P 7.083022537810786 6.01323938949307 3.656722996194285 -0.7189416361507747 0.7285328793836356 1.6056392689350218
P 7.139804692687481 7.598784589889825 9.096481916339723 0.8000712537432544 -1.0668815707684272 0.30422449600757284
P 0.3698971492076814 7.7865791632757135 3.8009625328524246 0.7993248624955331 -0.3382905844533464 -0.38392252335984844
P 6.21151752901396 1.8774771432603898 5.604169903861229 -1.597457761565494 0.2958439852533615 0.4125422439790702
P 1.6598030281821037 1.42849384549265 4.779694852661792 1.100966171156962 -0.28681375673029313 0.02898378882685976
Ni 7.859688484692198 7.568877484044575 2.289313151033553 0.3188607578635089 -2.832202029748587 -0.4853617990439576
Ni 5.879893206042344 1.8406514350490957 8.16648393757914 -1.7308381089325742 -0.4329992262818414 -0.6386627965943645
Ni 5.747686340909532 5.14278181850465 11.338916712616577 0.960853390162055 -0.06405337883648322 -1.4583693080700433
Ni 8.030595420430291 2.946047468852584 8.319719494923326 -0.21467965776820447 0.613912329122562 1.4800277668800834
Ni 2.6534356102185805 7.759547917378102 5.363228887359924 0.6737894650941686 1.7534910704453994 -0.04216969138951447
Ni 3.642740620257173 2.2214318306081435 0.1879654711335758 -0.05249061369954831 0.7660563302503903 -1.061748620417236
Ni 1.6499626256136666 2.1102104738472365 9.815917331458033 -0.6965239305772069 -0.1704929359486612 -0.2689386762220852
Ni 7.197138130621234 0.4803862183078001 9.728211872300914 1.3640085364992702 0.9674827225531143 -1.0584730349897575
Ni 8.21299660790799 6.035391780335742 11.278657799260053 -0.3114690933851281 0.8958255632274443 -0.48936166423197014
Ni 5.465015953404425 3.7262875675539036 9.357474016431222 0.6834092475721197 0.9098283052644395 0.279655291308641
Ni 6.756323010148863 2.538906555115341 2.7822493281352174 -0.7493762984915482 -0.39528911332557726 -1.1014420823521158
Ni 3.758758139614461 5.602542700037821 5.823743189071071 -0.6872427623855971 0.003134431863923634 0.8001391308667123
Ni 4.781112568923519 9.13549529948243 9.587684308226947 -1.4421978405165035 0.3377329121776635 0.8264875389532541
Ni 4.300669384699823 3.2041122559111215 6.151785090976924 -0.3286708019753952 0.6034178573491414 0.2051938297649563
Ni 6.850436216039155 6.596625496570892 -0.2571753837264886 0.9876990495999893 -0.5952330075455039 1.706012822358778
Ni 6.884808714646552 8.516386050307425 5.0784746498991495 -0.6856309378137869 -0.3887248298444983 -0.21371729385493515
Ni 1.120207171936374 6.121033603249284 2.0968097015353173 -1.294918109459512 0.3077031985847926 -0.31706304253313783
Ni 4.93853144586566 7.519895984425212 1.1316187312174186 0.22765087321689179 0.32257497349030256 0.12690450983474916
Ni 8.098127594919568 2.555325602164638 4.819634391340354 -0.010431222635653003 -0.1360499237794431 -0.28879684859859295
Ni 5.96279698977251 6.151740069527264 6.321453477446834 1.3578306898233325 1.7633209120516278 -0.47218952332805775
Ni 7.169518849462763 8.952303939622954 0.5440685994486384 -0.37874689269618 -0.22326045745868003 -0.2046032473688089
Ni 6.455267332690962 3.9978955417141 6.89460593337552 0.03721363293581978 -1.3347563245023724 -0.6477189932593619
Ni 5.252551463215311 6.827199635184273 9.784719304454178 -0.2314455643726337 -0.9046562741451969 -1.1707729075374547
Ni 4.328325418062097 9.171604339719554 12.780235239626524 1.0519763715218204 -0.8349462112435685 0.19340969264583466
P 9.024871166033334 0.8735530253537859 12.578197349656516 -0.5827965815543641 -1.2176245777836707 0.9235747083162547
P 4.8909924702455925 8.004427851322067 5.814760031656355 -1.5364758225654827 -1.3043612571502827 -0.9091287080942536
P 8.67824275585886 4.093341014992275 6.158468479238624 0.8365757764271916 1.505070311671008 1.4216547262578292
P 2.300256119716101 2.9568434287199166 11.692240455518988 -1.6650929442159645 1.419923345389019 1.547105791475503
P 7.7838686882451915 4.390877668935972 10.13703328055708 -1.6129100915648225 -1.7038613232334139 -0.4556208203360992
P 8.538942715391936 5.405936785789998 0.751470473563794 1.3642954716120699 1.3035917259741099 -0.33092463100657843
P 4.760402702080142 5.154037180919529 7.843767430004441 -0.8994842430259542 -0.036178763913402204 0.4100148495715261
P 3.609176670133456 5.947177303155943 1.6168773729444925 -0.9972686955662955 -0.5565052519580029 0.8176367734308434
