# total energy = -381169.04354049056 ev
CRYSTAL
PRIMVEC
9.22898619071784 0.00000000000000 0.00000000000000
0.00000000000000 9.22898619071784 0.00000000000000
0.00000000000000 0.00000000000000 13.50755417033436
PRIMCOORD
 96 1
Ni 6.826588641803068 1.3697845575764103 3.5421401942109103 -0.9429153176263956 0.7842597406322945 0.2930455965726179
Ni 2.899645877028842 3.444682102229891 2.8118671455468465 1.8908856811781953 -0.07380325913439548 -1.3807811279719189
Ni 0.41910301986792337 8.92423563690477 10.010056293464475 -0.7623014911936484 0.030401752220308935 0.665418467421654
Ni 7.931981208937031 1.1576563147559809 11.06306513615864 0.6735711784357754 0.5697785720281413 -1.841696621048054
Ni 2.573798068925257 3.0053823694366586 5.269823905311444 -0.17110023051535694 -0.521004745058548 0.47256207617612805
Ni 8.700931092058866 1.0863347110789618 2.1272240493801835 0.2573954514691761 -0.30324670547533583 0.4499065435601413
Ni 5.867346296696702 5.269354149924907 11.544365984160738 -0.04131402825743853 -0.15175473610920961 -0.4971101978291374
Ni 8.028737897983339 5.63233939762429 10.378934248714037 0.37938761160397244 1.4102691101287068 0.8201310006076069
Ni 8.564646656047149 8.99150571573523 7.1740913426172845 1.2049955761657505 0.056915482240121336 -0.7996074267329584
Ni 8.121498436098985 3.864471758654953 12.124204715503872 -1.1988303278953032 0.26261170556279284 -0.03694289577293637
Ni 0.4093932037151553 0.1750286420671624 0.09666716788227214 -0.7937545674966072 -1.4644437963988972 0.318658926265348
Ni 7.392510062283762 7.769643345495162 0.4810009059576487 -0.513690727895638 2.0198732987942183 0.3995381184099184
Ni 1.8757452561252208 4.075151050676044 0.25700972455460536 0.4653236494461599 0.06728499839990348 -0.301917445140951
Ni 1.8166982038056598 4.9776812769165595 5.185374069073535 -0.12371351370127727 1.5254720152558114 -0.030447003635947562
Ni 4.325284257774678 4.046633483988416 9.61791852484183 0.932037237261311 -0.9084525079628354 0.3225081248081091
Ni 9.082401998682299 3.5396206810375377 1.5523689704678967 -0.15927161331154507 1.047062222049655 0.1536126152535548
Ni 7.522786428420511 3.823845762357562 3.3097155654165547 -0.475568981323252 0.035857633128557595 0.2091407302278463
Ni 7.101409386406364 1.864753533819407 7.001856314607192 -0.6393708784049826 -0.33196361379405415 -0.7737629548660288
Ni 6.624889153143486 0.43107947497812876 12.554784902340318 -1.3828081857042767 -1.3171838628362478 -0.4655424503251853
Ni 1.658171911574791 1.8956890948345944 1.3058729067451833 -0.012174430579004839 -0.589644714824449 0.794238192001245
Ni 5.994152564103825 2.7066308641793113 11.55790029210488 0.29785664480801605 0.4151817384844462 1.275106216939907
Ni 6.694032716128506 9.026538946526891 8.431820321083283 -1.4211119663804817 0.11447811114593832 0.7186400457499559
Ni 1.5462243116003813 7.997470093472761 4.026304796563549 -0.5898110651989842 -1.5586850116726705 0.8286241256802828
Ni 7.733115018974245 4.928269285963304 7.877807984115119 0.6121668071863651 0.7060506391207195 0.00859056988248843
P 2.7824746709880253 2.9933016267848442 11.323152727538591 1.327277499626824 1.8641055848708736 0.1378520099851884
Ni 1.6844099187246055 0.6837238891627508 8.64440263001408 0.30110111988724275 0.4069112709455379 -3.137101183225681
P 6.527412603190501 4.113137556982283 9.817411362952866 -0.13492223793290312 -1.2180837768082764 -0.6861343598127666
Ni 4.514681508118852 7.528979078015138 7.22789171640548 2.7867240999214458 -0.005306756924894086 -0.6410451807836122
P 5.167263106980396 8.746845297324544 0.5710084375545512 -0.06825610406392116 -0.5356237805233034 -0.48408421788311473
P 7.6055242877585645 6.33996266888875 12.490192152343543 -1.0930353463456595 -1.1858462569308095 -1.5719881565394795
P 1.4265151344142255 4.837705246511624 2.9527780722318657 -0.6782261607092835 1.039981918164106 -0.9397227788310267
Ni 0.8780041959905579 2.0387752935158185 10.90035257588586 -0.8885717098785083 -0.05153622020607899 -2.276774841346111
Ni 7.507337105884883 6.082926180274794 2.0536745684868563 -1.41186345119902 -2.072455443766308 0.3120177667997465
Ni 6.78476287732788 8.548339037815099 5.700701265496543 -0.7785176959421948 -0.4645528327184064 0.4945450082051225
Ni 0.9603775103822805 4.631529699650263 11.340564132494215 1.0980546539371219 -0.14588876424673583 1.3939469759299152
Ni 3.2134590874105284 6.1012826333950825 13.010597136854425 -0.15888491939608768 0.27961415365806036 0.3825251287916896
Ni 8.978889691896399 4.267058585207608 5.7086437308335585 -0.7767423492093267 -0.3624257869386533 0.9897646738797662
Ni 8.30620736156377 7.418452741882118 8.938920799401 0.09489273281484303 -0.995402588891834 -0.673492245568724
Ni 4.6393189638199575 0.5706097453600835 2.442760311444906 -0.11154396821827887 -0.9562850540650822 -1.3509907840833635
Ni 0.9474384720340429 1.6816689098876392 6.254186627365076 -1.8250114470828889 0.4404340852933318 0.2970359486789336
Ni 4.6393005058479915 8.531053147068842 4.535634074996173 -2.184334940947135 -1.198062339381027 -0.24365933283000618
Ni 2.947313589631301 6.9134795448334945 5.795172857613448 -1.4190723102426335 1.0829774478890253 0.9246581711884204
Ni 6.579030321793705 8.236223960854293 3.25636095165134 0.6543524394154795 -0.8834480154986979 -0.8933467626696485
Ni 1.9783162063408506 1.497606013441668 12.606127597161228 2.0947597636904636 -0.38061711313569935 1.4313583266988381
Ni 1.2410955770287457 6.553355282788858 9.98910649528295 -0.48792904555050165 -0.006980802193207332 0.5824093734182744
Ni 6.6148111004499945 3.4101933816112284 0.7083154452131888 -0.27474808381501065 2.486701557810363 -0.5459012511899114
Ni 4.064888418262891 2.2649500530024516 0.5359558258923248 0.0005322183543861801 -1.1665303302110166 0.9719926946083259
Ni 8.815841196533835 7.786569305788078 2.3543669294964387 1.8418010078364024 1.6837979768246356 0.6583746732009952
Ni 4.000894629456415 1.9124212464218657 4.098732032761338 1.819750455794266 -0.662511063966872 0.48236646386105964
Ni 8.633716387144304 6.690765655090505 5.974809532381949 0.42554842643075097 1.3053148793128038 1.0644580489285989
Ni 1.15877302205993 6.1015687319605565 7.70522225463767 -0.6075573334388117 -0.9319565046220467 -0.982851748810017
Ni 5.195402285242718 5.008773730693459 1.9380769045561494 -1.4487055597280343 -1.2399085859928516 2.8862635874796805
Ni 6.652326928471097 7.939142902059878 10.783134302016528 0.06899889576721666 -0.16998771417746852 -1.1166894954294897
Ni 4.66658138841389 7.903768198786843 11.980430034468313 0.8095550248639736 0.09872213386326223 1.575577416552635
Ni 2.0655854977965817 4.276758249475795 9.276934256827444 -1.0492278622424058 -0.24453993566274657 -0.5130168417570649
Ni 4.307149300317982 0.9735011284501791 11.442788995735484 1.4812850363259522 2.019380932538832 0.9324154465363361
P 5.346785342322705 0.9554492318673311 5.568569873177202 -0.002015744878448141 1.2670830895251146 1.7917506281472302
Ni 2.5747671124534772 7.802120147169518 8.583658367172236 -0.09201772525989314 0.128903542542649 -0.8693902518540512
P 1.2823214574150352 8.437618892976433 6.593118368896833 0.7465853660099723 -0.8484923253591193 -0.411802023378936
Ni 3.9609884940657016 6.244839510361442 10.550669065683849 -2.0711287545350845 -0.21554843352640296 -0.49372791162046586
P 1.5610645210611274 7.068101975993532 12.034960421047767 0.3496983120696558 -0.034689066741753156 -0.08156310558547243
P 5.2488934880004825 6.503961749807568 3.62754799919386 0.8734353684577021 -0.03648189697611781 -0.30201514706107985
P 6.6496966674659275 6.978303942378446 7.261175131454756 1.6936938957821088 -0.20992491669203847 -0.9142950827865416
Ni 2.9150859705784864 0.5970554046945163 6.069835786556434 0.22724669579993764 -0.6976924969640114 -1.6371471097353159
Ni 3.1997448142397147 1.8824085840049838 9.486949061857755 1.2545451049591037 0.59354970630581 1.7461605982222574
Ni 6.534306655719839 1.2543576298863903 1.0414301568798285 -0.2613248684305693 -1.0818603035654464 1.9042068237671332
Ni 5.959008585480366 1.9381978042725276 9.371811001429005 -0.13460856334722623 0.17177591642614287 -0.7308342738233026
Ni 2.6505647743322758 8.497173539525063 13.297700738902563 0.46612377674995203 0.28547138376978576 0.7643185216236772
Ni 3.199384883786376 2.861400959115078 7.451455595757509 0.3511808101524532 0.4845989527360042 -0.2161367019297052
Ni 8.621063447361541 3.4568735927135013 9.936237326180443 -0.5097757091119478 -0.10921480586446997 -1.464809150158116
Ni 6.0610719414669285 3.043230440953151 5.146202560967073 -0.1391110792032701 0.10255436312515886 -0.1655692733947987
Ni 5.726207414057902 4.021982862427686 7.205050898996028 -1.2250098145041484 0.03445278236123099 0.7982614542280252
Ni 0.7161757725749535 2.7790784041462624 3.437023889661155 -1.5007012360690348 1.5205043868378911 2.155406430838243
Ni 8.43533933343862 2.161834592613822 13.476769831033106 0.2979420054329708 -1.8685757048270852 -1.3635855900292386
Ni 4.620242649792991 5.115110107190174 5.194667657958468 -2.888253621326516 -0.8559667793592936 0.7399640040387128
Ni 5.836779895120838 5.955750753428349 0.1998952218998953 -0.19341894861721526 1.795962609346049 -1.1819132404249904
Ni 8.563151560317895 0.04195220158315538 4.450117367978623 1.617384582396408 0.2386369399147503 0.11505480958501475
Ni 3.0976537712952035 6.19801163548344 3.6477687074827254 0.10747853989965361 -0.5808556557779093 -1.0411656540595617
Ni 3.839341229823105 7.267401928297521 1.7054095534304399 2.5272679092684993 1.1644562212908074 -0.2438362247275026
Ni 1.7385748374591323 0.9442729298418564 3.642095649798944 1.6038729210632183 -0.3238844363303454 0.34359245628223406
Ni 8.803059050947308 7.951989650548285 11.858808611386468 0.126570266423782 0.2311833118501825 0.6037253612872313
Ni 6.731345506457981 5.466494519508862 5.219183536323845 1.8506602579992453 0.6176576550976072 -0.04376403245982785
Ni 8.94846172511028 5.300677328351382 0.17451458754790647 1.1781668860086807 1.4319070001134564 0.4598351155277629
Ni 4.2743402551482355 0.44397421419364774 7.788617217777716 1.3291670033400529 1.6357353169894542 1.5200521297918208
Ni 9.043834066259128 5.8577573802603125 3.826014574063579 -0.23111723449893748 0.25814801336448445 -0.24914658119682248
Ni 1.7204306510164538 6.683926976477064 1.5649988377857023 -1.7033139353703761 -1.7869226106309677 -0.4034351394714794
Ni 3.5470130988099613 5.626682029216679 7.854088567240079 -0.33076625105184326 -1.7105580185272993 0.017457790465131226
Ni 5.828741448329601 6.046388624767894 9.005621449796305 -0.32801439933831894 0.4474416269594164 -0.0517125978829432
P 5.300326626884026 2.821245641102823 2.3850283896279296 -0.11603671388230984 -0.5484147616403845 0.5268653176043829
Ni 8.89087285257604 1.7190924480489114 8.458741273195843 -0.5402090859011406 -0.09218458985506059 0.9574849879104542
P 8.359218657050416 2.3405815931335554 5.061064242374829 -1.0501035799791398 -1.4169943446676823 -0.7922854391502484
Ni 4.2591954891500485 4.109418275631112 12.92220375490596 0.2517984169973728 0.06676126468594953 -1.3945306163475273
P 4.543005266100836 7.996399531098727 9.455044457314347 1.0593220132536143 1.092726299745673 0.6553623687372327
P 0.3368072289584584 3.75230266301695 7.9268535843248475 0.9730010812681823 -0.03309935365713009 -0.7596303721193886
P 1.687769269622436 8.808181138167901 1.9297975812307546 -0.4041635329970717 0.7141832955301829 -0.345611800705108
Ni 2.7794106476416522 8.834714472869173 10.847160392273945 -2.057415261603734 -1.4876392606787543 -1.004268009702264
