# total energy = -381167.3121673477 ev
CRYSTAL
PRIMVEC
9.27046076270148 0.00000000000000 0.00000000000000
0.00000000000000 9.27046076270148 0.00000000000000
0.00000000000000 0.00000000000000 13.56825639874646
PRIMCOORD
 96 1
Ni 4.481405632311451 6.043209429693662 10.235607520269324 0.8564470614298217 0.5927817177915339 -1.9963446195446586
Ni 5.942068702628233 7.251150468797735 5.427044546036964 0.24886221718718435 0.0975283706654772 -2.004061271462626
Ni 2.837836370885511 3.536319238048184 2.2083424187251763 -1.2244871092314589 0.9263239889266176 -0.6385697226599261
Ni 5.608860530958873 4.138964081709261 6.597999227783297 -0.2513615865702703 -1.2281339619554268 -1.6530303566244757
Ni 0.6879395721222045 4.530177526453635 4.111289902200946 -0.6488471933265342 0.9817891118734576 -0.3153625149022633
Ni 2.8316900553910673 3.5419649486607274 9.656867486765067 -1.0504740759446811 1.1314232020952386 1.5869200952589637
Ni 5.008264459129276 3.7758123217336377 2.6757145528359945 0.49554233912138523 -2.0462631016416566 -0.05922921797496251
Ni 6.991800058130233 2.6591389689686262 12.131093209866545 0.3514566895216592 1.6366444590672848 -0.12506385708158463
Ni 3.4854707606921913 1.0278345271492453 1.5091568506356874 1.1311758619711227 0.1293663411116804 -0.07678445324990647
Ni 2.2397340530046406 6.438659475012637 9.77601052161128 -1.6590809336939298 -1.111977691776117 0.9373733047622438
Ni 5.019064545933238 2.362317355844803 4.845685607363507 0.7316236024938174 0.1501346840072834 -0.01941028620581173
Ni 0.19210990456750468 6.58852574391637 11.89610464307212 0.6604696080568109 0.39799288540998556 -0.2229195291794935
Ni 7.557798770344046 4.89845585123835 5.103062336931812 0.13002171530749218 0.250113315985466 0.3484371859690451
Ni 8.99794631096369 -0.21479286799405758 8.808675021485774 -0.377601209127511 0.04820124229557505 1.1862447779208087
Ni 1.780605212615782 -0.09642947889910003 13.566519304813006 -0.8584625491979538 0.03134457574955247 0.5256448149337206
Ni 6.6178852931937495 7.835949675465141 13.283906526920454 1.4606964135413232 -0.013187959445183738 -1.092478702511241
Ni 4.736936613139268 2.9644152423201002 11.26862701613055 -0.5647032143877629 -0.5734434224742382 1.5348465144921761
Ni 0.9565354133215445 7.089844451296499 3.938484805153245 -1.5406842042198756 -1.8551614883037084 0.04543550662497982
Ni 6.821789077960397 5.008913391383592 2.223647022420164 0.8744144445415198 -0.577777788183534 -0.2532253792518865
Ni 2.4233355286719944 5.204751875275177 5.607258595336791 -1.1196058977453363 0.12782753586965082 -1.4315213346392637
Ni 6.1466955833354024 0.874250803474363 0.1828514953905804 -0.9617597040264082 0.2027147720968444 0.5646109117842727
Ni 1.4617013619236865 4.552287575404235 -0.23778268367229388 0.0006535744235988745 -0.45736068584534134 0.6298230868155476
Ni 5.481391695289794 6.968948372317557 1.4207592989528557 0.5157699790221698 0.3086182541998943 -1.1307061214235559
Ni 0.3329328389843152 3.6032983171543 9.556801206103568 1.3460223843344947 0.16118888493891595 -2.6374553634588835
P 1.8609801075431214 5.664548188839903 2.580546783648499 0.21690751865745872 -0.48205767437138924 -1.2524874510991268
Ni 0.5726270916686064 8.77045847398307 2.232398337392645 1.1110086429946286 -0.042221627673372446 -1.2583397961148457
P 8.92413490226571 2.667204269843688 13.127301560078696 0.37928733858068225 2.1208428339307606 -0.7615383877753787
Ni 6.459536552680039 5.453914049549929 11.742498670291374 -0.5252614634523728 0.20769345625835842 -0.29243213135833507
P 1.9896819144953994 -0.053787213421963354 10.285212828835263 -0.16742046767092456 -1.0075798476843165 1.1330779640898423
P 3.663676828187952 2.856126989996427 13.448788161142966 -0.7852228758765123 -0.5441104778380759 -0.06570659816919007
P 8.892652417470641 7.973476961076107 -0.1614951349010635 0.09356912890741305 -1.201321469748273 2.5364542037534576
Ni 9.053318773178336 9.105706147023135 11.698659588328065 0.5869296298861311 -0.6045493998504233 -1.3562654022187415
Ni 4.869541284078215 5.937414931318714 3.2971274443379484 -0.5887376296291473 0.3498116977190685 2.008800328809508
Ni 7.145124208903389 2.9468199077673796 3.6918136036889857 0.2537012904470405 -0.4710854916306016 -0.8399953436317017
Ni 0.3228734619963502 1.056804717074036 6.565896549162318 -0.5435011263888511 -1.094014165319161 1.2687640767719632
Ni 7.462878522459269 9.222680821093856 4.767762749311401 0.18712205986491 0.201386283093408 -2.6672634479592516
Ni 2.1715312730761016 5.135733294798355 7.7977043895340294 0.19828399001900043 -0.48566107545193127 2.2909357062275255
Ni 8.750267410413086 1.7357361824602664 10.60026851125927 -0.6624678694337623 0.5425742436992076 0.0399657417596602
Ni 7.953462036260868 1.8976447799119363 8.244656479693699 0.35809244967062204 0.4821085822139827 1.079538083190173
Ni 3.1013214070590793 0.6979878245572383 4.29956369009937 -0.20782355407831948 0.6226113995584568 -0.6991922214379894
Ni 2.8571281997602274 3.1421485163162886 4.72122410917014 0.1104857021570936 -0.2927468343852765 -0.6059874178485305
Ni 5.2544693564165055 8.01119846597338 7.707122717292388 0.6188745582238439 -1.3736424600446084 -0.21247236570424052
Ni 8.447651759304305 7.258529755575377 5.999489936674363 0.20560597760171043 0.024635282050176927 -0.5782871237197847
Ni 7.282994501563064 0.08939876144663245 6.898359375785293 -0.3454349088076115 -0.2465417965841238 0.891552389773387
Ni 7.773012517257331 4.148308706171402 7.759509164091108 -1.0796337282277728 -0.76176078819883 -0.07360142753623454
Ni 2.148484907587132 1.9673030221822971 11.421419042455167 -0.552200711045378 0.3271253118651463 0.212745159749653
Ni 5.512911261927965 1.911429955085749 7.3415532211464 0.35651610632243763 0.2583243910413487 0.5452674742606545
Ni 1.5396659370492831 2.0931680681371394 0.40470752744982136 0.37862193708254144 1.5036065826412879 0.31487143419845776
Ni 5.295120326918972 8.04702879687236 11.358231581806407 -2.3551652056305565 -1.1955444580551797 0.17605860296189677
Ni 5.007244708443923 3.5801499765967955 9.1608255256586 1.6985147142095198 -0.35095429596394395 -1.5040454699509194
Ni 3.0901875836671837 2.7967404182657996 7.5322141526946265 2.0552406225499182 -0.6418424798739268 -1.2796172174363833
Ni 2.505277131470466 7.878946072543918 11.829308192043287 0.38454190211140227 -0.814880807952261 -0.5108414313723009
Ni 6.614575738696742 6.088912801319012 7.153483383385047 1.6124393225759908 0.4946131424388966 0.044955995885399995
Ni 0.655111943468548 2.368120664290537 4.793217580509959 -0.5933350191918426 0.24178705550795782 -0.4072815098007631
Ni 3.053022306416468 7.423849882592591 6.817207616244931 0.5797002020172275 -0.7896423451004465 -0.9248774862880781
Ni 8.576270132109599 0.805628071672674 0.39393432498210956 0.33809698038530156 -0.958366362074143 -0.17832657306046706
P 1.6979127024944596 4.714557720826167 11.265981226625097 0.13970346137163037 0.4014258223509345 -1.7475399950682873
Ni 6.425180225044429 5.48244852781825 9.321622594863234 0.31536739999826974 0.23349987579850107 0.45370894802536704
P 5.802576079332769 1.1290123360577782 2.382613175621553 0.46233397069021664 0.5371579577796427 0.26813906313892527
Ni 7.347062655985537 7.345838955163114 10.603972060339254 0.820689187103922 0.9189816896289336 -0.3275174050972424
P 7.274122670600496 3.5793712578916166 9.859834954993344 0.03137517187717177 -0.986456692552456 0.959464223124012
P 1.0447901999084268 2.9087739367429504 7.427670239478352 -1.7819192438791052 1.1304520964312208 -0.6593146685167613
P 4.285344657361244 5.963631794393054 5.706618466887164 1.8717160502282797 -0.1941365435095302 -0.8346140247151305
Ni 3.505467144585879 5.701203590747942 12.02995526393935 -0.9147748506364375 -0.7364912149987638 2.639129408727197
Ni 3.2842275981682376 8.177473450450513 8.819217389480166 -0.4016343388173148 1.0421305890759924 2.631793537187416
Ni 4.1625203225409075 1.1149675879822398 9.623529982768734 -1.1440899989296296 0.686974853436191 0.2537339434571888
Ni 7.572130902703639 8.714316563524019 2.0098117930242605 -1.7313806116996053 0.5271139432800793 0.10829512226367802
Ni 7.765531255411153 5.283096539292586 0.09139283755953563 0.22378881915832427 -0.4485464299878211 -0.4957390285132236
Ni 6.408141118138266 0.6427609085767725 11.372057547007634 0.8537245202923361 0.38241842801049625 1.1609407519383812
Ni 8.733079976134507 6.592261739609071 1.8032751973972487 1.4995871770692497 -0.259654679816998 -1.133202148372532
Ni 7.323330276399148 6.837558131740258 3.4023620068820293 -0.8056199514756255 0.6060329263744854 2.6740892126318334
Ni 5.372677001770427 8.365886295260575 3.2664496355382306 -0.26549828308196854 1.5778548997329018 0.3565832121149472
Ni 5.007077840149957 0.0491445666653761 5.476935384794802 0.18423393968383753 0.6339949588050501 0.6462349525146677
Ni 3.866171502916657 0.7157926715234951 12.388686868217007 1.180988928838508 0.5468764706189871 -0.11881607639965988
Ni 7.3134572356727805 2.3534733362645626 5.9907247160107175 0.8389193369587037 0.5226301964771128 -1.0555926281181691
Ni 8.766008652810621 5.933549149175151 9.105440084798865 0.09704088950609739 0.3547649279592858 0.8428253568813291
Ni 7.365677741223611 2.810952034635305 1.144303034061602 -0.9949719291123186 0.37118424985757364 0.2330231932723987
Ni 0.2596164728917713 5.066770337086189 6.857993935474726 -0.6846832291885371 -0.4013993399883732 -2.128767488094476
Ni 8.765953030045964 4.502533012419803 11.387986979758919 -1.2866445565968099 -0.8877697828025032 1.8057448855437934
Ni 5.366308195217361 4.155011249312402 13.349658197019837 0.20399183903705512 0.06776579469106395 1.054366469020552
Ni 9.159363573994234 1.8265310752997543 2.5189464258845793 -2.1380108610696142 -0.1772415675264044 0.2239016905871047
Ni 6.301002402950807 0.4081978559319601 9.24569473997011 0.7427415667838498 -0.5723116228626401 -1.202880843815593
Ni 0.779897907789072 -0.008459295458038876 4.4501706688191005 -1.0092058133235133 2.4674367960434798 -1.3003361951512897
Ni 9.347869123412057 4.081477954437701 1.7678898486155123 -0.06573693718649325 0.7479038277110798 0.021579268832672513
Ni 3.2009325080964794 7.778973423536256 2.092415306722134 0.4984443432595287 0.4043571370651165 0.5794934853230601
Ni 3.7402044818932785 5.523553750898737 1.0272755183644566 -0.9155549233355718 -0.7332655089726146 0.2667969472887341
Ni 1.6478058620005416 6.942305068047525 0.6810988991156435 -1.096453370888273 -1.3155720382644376 -1.1660878433569595
Ni 1.5363285711699473 1.4540439613227656 9.048276569562306 -0.34781523611433 1.094979357445908 -1.0997870632471962
P 1.8444694169011846 1.7779538608338654 2.841572366578212 1.5569741996291508 -0.8246859669681411 1.315820663940134
Ni 4.3710315263131925 5.52835584958067 7.828965310316553 -0.07943397505761159 0.839286233379819 1.4492025539691105
P 4.11161622242026 0.42340697388095583 7.439420548511848 -2.0186221999959364 1.0495196824512119 0.06469384063395955
Ni 0.8079558843735108 7.275494698795334 7.839263865192537 1.066029764291093 -0.07334457433042207 -0.08010271898986206
P 1.3285311928774086 8.143617727696805 5.974672913177189 -0.7658470424530617 -0.4104917892079447 0.3905505701993274
P 7.200913841852953 7.822451884575382 8.401736094127186 2.0928658891018603 -1.3077124330107026 1.399290499630016
P 3.8869929578194022 8.259693167072262 13.634605276935769 0.6038744852705857 -0.7812829173921576 0.2551642481458122
Ni 3.118805496082489 7.619159950219947 4.427091856717415 1.300083198600219 -0.36366223044891566 0.5181299946139141
