# total energy = -340854.89034517464 ev
CRYSTAL
PRIMVEC
9.45081878135697 0.00000000000000 0.00000000000000

0.00000000000000 9.45081878135697 0.00000000000000

0.00000000000000 0.00000000000000 13.83222858991434

PRIMCOORD
 96 1
Ni 5.466882756662861 2.2447962505248276 3.2314711690637643 0.3689106233320485 -0.52408415531482 1.7038672367706849
Ni 4.3001791935395985 2.286209737876842 5.794362128841297 2.132079068966212 -0.07097453143634873 -0.3679600864933212
Ni 8.475560326722432 8.051265823146743 0.8873704415076072 -0.44068913872693133 -0.9835680581507512 -0.14858893678671828
Ni 2.8618685530522248 9.50941373199374 0.19412832093769652 -0.0019807778754546528 0.29729922964264927 -0.5227474387812675
Ni 3.3934487500145107 3.867823141650064 11.093765037931702 0.6823694934536958 0.9108667738312829 -0.1400788424331781
Ni 9.616302490996771 2.0299602408292583 10.26022173408119 -0.4485052923372405 0.4829565320365746 0.6371931540273735
Ni 3.28609690089732 3.1435596539226336 3.9867248362471486 -0.21759426031183815 -0.6903008324856306 0.7705220793312278
Ni 2.0673760318896472 6.802746522915678 9.29990514877474 1.3434754495429249 -0.8318495745961159 -0.5868805218157506
Ni 8.15168077137019 0.5138258890345145 9.20905537411336 1.0525682394695486 0.4442490881640478 -0.3933075641191743
Ni 9.195183462489608 1.500525379701958 6.996949505320758 3.506318282054555 -4.751117620480804 2.3062024025786085
Ni 7.2755993327475625 7.845275779713492 5.4591104033999 -1.3193034802824117 -0.7633962669197241 0.14665135344437322
Ni 8.900762108889129 7.37272539607861 3.9524344309164063 0.39186980323138315 -1.0564554903390966 -0.0819045480852912
Ni 2.3094965550460254 5.335299008510855 0.48000613447285717 -0.41032543883340944 0.5385586947819112 0.3745894188843807
Ni 4.7217896646168915 7.349259013354956 6.100026176315339 -1.1003714749957565 0.9403457571270064 0.4128515476893729
Ni 1.4564089582142352 8.469417294595821 3.169115612651201 1.7470172897955976 -0.9192758238305845 -3.813869014221883
Ni 2.8453485220409696 5.756682659940397 3.6820011452294112 -0.6014098257801772 1.122192684635906 0.3111158238107674
Ni 1.0743785156696288 4.212929235704411 9.552674854393068 0.07758920853938896 1.1475530177775657 0.48484706419106827
Ni 5.714503656277221 9.563283398334791 11.02194826696229 0.6905160338202301 -1.2029870303761538 0.8617283644334192
Ni 3.9993218324341635 7.473074188571464 13.446378117851609 -1.029771296179691 -1.1623211772256756 1.3276986463246425
Ni 1.5268270080225093 3.244560552902774 7.430631507067776 -0.49931697567246913 -1.3497553690143658 -0.7757496462787544
Ni 8.66046559373342 8.61101891052353 6.999798927145641 -0.03859894331912062 0.313806226158737 -0.044928999302206486
Ni 6.55424669716628 4.395925437346823 13.9823085266414 2.9477188665716847 -0.4594525353773636 -2.9216522513916194
Ni 3.378781079459895 5.032277409933122 5.747014472454977 -0.03943558028780305 -0.12358958652890328 1.635984971106415
Ni 7.367905478563884 1.6302378657600123 11.921942166949151 1.3310102271963786 -0.9421951516309193 0.5057372773765162
P 1.3103371050620831 1.1735176033744732 8.689806605333846 0.6507996890672146 -0.3468909245278477 -1.5061694582724576
P 1.5259669835247838 1.693596154032012 3.162655978099603 1.0980597961434444 -1.1239986274963933 -1.1460198689624908
P 5.800903040433339 0.33857368819909495 2.151312532703928 -0.904226899917262 0.4816583820504414 0.32692605137014663
P 2.68973134204593 6.934462582528872 7.215567732642589 1.0304122721977995 -1.0374588946319359 -0.6466177897753832
P 7.918047083367192 5.787161550107044 2.6222581673309664 0.032457349197757 0.33972500290702784 -0.04628936998484286
P 4.572731352769342 6.676058298827647 1.9914954088980172 -0.3414139605736765 -0.6950730570632933 -0.4590103056336224
P 2.68291730179472 0.4085551101854469 11.820787219624913 -0.4489318383516978 -0.37433436545078114 -0.1574101346227741
P 4.631912379195246 2.9698819594753583 7.749824401448346 -0.4064297033234291 0.27576058423992506 1.0860815407356457
Ni 2.1436346876275296 1.57303206043328 5.500440723547739 0.21359233824129667 -2.1321425752142957 0.814010746642482
Ni 0.9163296400343167 6.160620100130364 2.503729780070807 -1.5742489275491984 -0.235169293081124 -0.23040478181294513
Ni 0.8913520714075167 3.084359725859417 0.13043547368526298 1.046828508772294 1.8008641604127242 0.7867053739593096
Ni 3.555350724416006 0.7547376524847487 7.391057149026283 0.5759206803701371 0.06483910796257221 0.4389374461431472
Ni 6.478536188910464 2.255711946072882 9.187753228862006 0.8811561341407277 -2.570632906517696 0.6702128034865039
Ni 2.9950872928317755 9.386250663264521 9.614145814179397 -0.6508174296790276 0.0068648454406333385 -0.5600196928691645
Ni 8.078342418597112 5.684591815229954 9.323309156095265 -0.08581802420708447 -0.8702705975764753 1.2536745294286924
Ni 1.7807232512246678 7.922895353337886 5.284630334448703 0.7009745101493927 -1.6855098173094198 -0.3420071140729852
Ni 4.849016585368332 2.1346658607226776 0.9935844120585761 -1.617678716598059 0.09480145865261737 -1.9830175634184495
Ni 4.270550877052021 1.770686481811651 10.434231152263303 -0.4467392015757532 0.7414619287404779 -0.2938588365025326
Ni 5.866075885887353 4.240742995009973 9.016496834154479 -0.9259141550827087 2.330979866633605 -0.03627646583353107
Ni 8.02391515395534 5.371145963674294 5.472002265128992 0.9658577853551817 2.3875821885086816 0.8436686787182309
Ni 8.107309177778747 7.147663600596897 11.939772081426172 1.1214280385557396 -1.0576952762834688 -0.8985751009481235
Ni 1.7119307422252814 3.9198120950785054 2.5630847015599874 -2.3794634160562893 -0.44144272906350424 -0.24755763944314788
Ni 5.952720991328536 4.119838671939614 2.0924707906677855 3.8641433369964036 1.257570522048989 2.576386521172021
Ni 6.155941944895483 5.4108677544868256 10.964406012491393 1.1102501675620493 2.0881502287937455 1.0894882524243494
Ni 8.467763401330963 4.176373469141748 11.309022554139341 -0.15052189214337305 -0.49583415933019126 0.7701852648170994
Ni 3.7976319114895416 7.863185081067227 3.7219072270057416 0.7367364982403505 -0.42865714726306176 -0.6588593261468976
Ni 0.269451345628603 0.26054772937247966 4.3753689616874505 -1.0030631907608853 -0.03456539667969531 2.638310512370327
Ni 4.642119263344076 7.421179743329586 8.946533368723575 -1.0383616089518632 -0.6491001898776046 -1.4096543593628432
Ni 0.8010561147193953 1.36511404999414 12.541473572490924 0.23539040795299462 -1.2025831100695161 -0.5979401220640218
Ni 3.0171738560316057 4.732847122444792 8.337403534194952 2.084142136075617 0.5407204783199203 -0.44628823008126367
Ni 4.52562847258622 4.9625681715240715 13.475440330301673 -1.252443742345385 -0.011675636565715375 -0.4787728329725303
Ni 7.270817218507463 8.052617290214597 9.798570979602646 -2.1379028747368403 -1.3584243575432735 0.3514374062479496
P 5.3443623436022705 4.167092765221237 4.888212910663573 -1.394419801801276 -0.13491812416784504 0.13837857191261976
P 8.113669578734454 1.478646734512567 5.114922928918949 0.32038156538340956 0.8118067970126277 -0.690229870038379
P 8.53920213955412 3.613671726344185 9.107609341574506 -1.4778765248650354 -1.0559533538916976 -0.9496053280520612
P 2.946198207922609 3.232539111571929 0.9684480696783497 0.03220563819826711 -0.8703361607070883 -1.855691135554933
P 0.628382097213421 7.160545066425468 10.79736846323205 -0.28759974296669827 -0.656934855430675 1.9669311993795482
P 4.2297611437313245 5.636893533471484 10.03720415067484 -1.297017415190702 -1.1908025724948201 0.28308231471231887
P 8.333108137115651 2.896316787054528 13.529081286831241 -0.9887974248704907 0.6504867858124861 -0.9780646118340186
P 1.1300249359180676 5.3183253382040965 5.123429610791506 -0.5026352414124247 -0.3537331442606617 -0.4515013988510869
Ni 6.279615357832146 6.8703482287643665 13.341364401269994 0.23108072483404718 -0.7270023016717222 0.8816071056352172
Ni 0.6128818095351831 0.27066105041661254 0.9954084200592467 0.41824726478364743 0.6632255735353934 0.577519906536457
Ni 9.365543919588513 7.594460503393296 8.954043934309755 0.17121901548140833 1.0964065768107376 -1.552987704177577
Ni 3.296351039139432 7.643812678416623 11.176814106874152 -2.641218944266374 0.2390290331468464 0.00948917043735785
Ni 5.7678724292294845 6.251262901863172 4.231596492714383 0.21999309956131793 -0.7635952703044075 -1.1349178455120583
Ni 7.14760689568496 2.0442687802749338 1.217598111751302 -0.10017172182559522 -0.6782027636705159 0.23783861238317106
Ni 1.566104610358194 8.741591421079312 7.282792350826891 -0.44395881061713866 1.8104235219663853 2.5539251068447113
Ni 8.814343823095697 1.6298881854697282 2.824651229183619 -0.6348411088554293 -0.09391648494450278 -0.5718989608052537
Ni 3.961282287342457 4.423767549108355 2.3041039179207266 -0.5336229480431907 2.0262861442990974 -1.2251715368929932
Ni 8.62164163069324 3.828536088495723 2.0801185706839695 0.031104948934920627 -0.09080107924397267 0.38143858059573016
Ni 5.658053916442994 5.2667049667032515 6.878033634495689 0.7416192802539485 0.14688583805268252 -0.5226595070531516
Ni 6.383716125331561 0.5056036768035121 4.905890666960228 -2.674842031637458 -0.5920304414478063 -0.2794107793980027
Ni 5.892179047016122 3.3410250589278787 11.70043293420035 -0.2640476666783711 0.4648233127709737 -0.32506200157821435
Ni 0.5140016742615221 5.630618189883684 7.2086932071519785 0.263685655353262 0.298044592449106 0.34178137121542423
Ni 0.571278360728177 2.8184987462383515 4.627350469029838 -1.8452054055322609 2.9977926432996242 0.735539649718772
Ni 1.4075198733050684 5.419061614261859 12.032973219769246 -0.243325089419039 1.9038319569262179 0.3077368800362055
Ni 5.583817735897566 9.189059332000308 0.07850133500502844 -0.27347513063985807 1.2403947816006509 -0.16659308667362277
Ni 0.7888258102962457 8.099086965547743 12.755334257701161 0.3289690499421044 0.9827573893239978 -0.36664419589537506
Ni 7.285758962803111 3.6126510379293015 4.44609321802019 0.05329125522397273 -1.7778250192050737 -2.640907326563226
Ni 8.769036598457278 5.387259609483327 0.4114773033139824 0.5304733466706154 1.032814453881389 -0.715838828855735
Ni 6.783466852856775 0.795852493967223 7.294052056174037 -0.6548018682480722 0.04073475871520081 -0.4036827367059112
Ni 7.475446344054201 8.959120914091931 3.0431730581551544 0.7646584214615992 -0.14654028178780568 0.1121954857593487
Ni 8.322201892386254 3.1577736851817457 6.392301248998965 -1.9622808450917302 5.143142718343129 1.0039995865322255
Ni 3.618746815962631 0.7405784359738432 2.7029416963637405 -0.6338946857817599 -0.370948993918316 0.5748459592487197
P 1.25794176643142 7.278907119277276 0.7765274599787706 0.19642122577864882 0.7596959352500013 0.539821877765051
P 4.843979299024512 1.7611317041501071 12.535886248501305 0.028688626183944143 -1.011987489833709 0.9559513248747471
P 1.3711058690222502 3.4400885400834724 11.574048081391188 -0.5150055900523195 -2.3996010673464285 0.715913133737096
P 7.536942821050904 6.771568272168462 7.6742310833438685 -0.5819218922588946 0.3073111053526965 -2.1255785488435333
P 5.547658903718468 -0.17478911072125963 8.880567599584294 0.5889042371139988 2.0948448672051017 -0.7169942826164167
P 3.699144930271984 0.009493347340277989 5.0377806216367 0.1672389477877378 1.211966608166945 1.3498972939088687
P 7.467082369543354 8.9129725665931 12.913505993979005 0.8740107813451979 0.614993992222515 -0.30077767510955294
P 5.2098582924854595 7.310246033941648 11.496476706941943 2.8804526372248582 0.3514068101203303 1.123726347671613
