# total energy = -340893.9657152595 ev
CRYSTAL
PRIMVEC
9.04565166184412 0.00000000000000 0.00000000000000

0.00000000000000 9.04565166184412 0.00000000000000

0.00000000000000 0.00000000000000 13.23922555559371

PRIMCOORD
 96 1
Ni 6.423615623059399 2.0033856617240438 11.527591906790787 0.7052114310488758 -0.10890421660258663 0.5923957952070249
Ni 4.474567189780897 0.17843180741605133 5.908957854664832 0.9184895804838634 0.8544454576187608 0.31983186352752657
Ni 2.9307187145876346 1.6409444981888412 4.636734011269208 -0.6701896635580522 0.09006651507079326 0.6662057392096397
Ni 3.5630368900543727 4.100520455395747 4.841227245166773 -0.3595173550426067 0.5537953092260075 0.4054701676236372
Ni 5.2050578207694365 4.332776602818376 2.795078266066952 0.39154687267432564 0.8610115408720527 0.23524334085216903
Ni 7.383793436450002 6.100884869525183 2.4827518208660244 -0.7278844471663594 -0.051436975624053353 0.009306622112906551
Ni 5.086396964643481 4.4895377429817245 11.649671114611362 0.21725461758423228 -0.009252371836203421 -0.6712726122095858
Ni 5.417268804510473 8.120606977823664 12.392351665535513 0.48588681830949215 -1.093256718327846 1.0444378970529302
Ni 1.98929253671686 6.564176001420522 0.42225462938725833 -0.6527856091489919 -1.5757987885348217 -0.34689735228575097
Ni 2.466387332771996 1.5546670743643736 0.36513948137194385 1.4020575208521917 0.7439080762881254 -0.1043363947262461
Ni 0.5423247980139323 8.988166365701716 4.7698416773752506 0.8971720499530097 0.7053834378503657 0.13127538520893522
Ni 8.68881862124553 2.337532027427108 1.1349587958689782 0.057240469679707875 0.610716962113716 1.144854645009796
Ni 7.047810803496322 0.619019258659574 4.759130721456761 -1.2320957748166523 0.45649628096251704 -0.2732187916546779
Ni 0.8604947340714972 7.410640930045202 2.4461983432318584 -0.1775328735145781 -0.4606455272442002 0.5883527354859028
Ni 7.693986917031742 3.6191651574931254 3.825738891231288 -0.3009563667792623 0.6219282574485031 0.4585865878326425
Ni 7.672485403461731 3.84719698567419 12.63923644053299 0.3199753310839264 0.5727667081221879 0.07763883083040177
Ni 7.903212835784093 8.745706723408674 6.944900235728845 0.2943889979743898 0.25263325419384236 0.0038134602088192382
Ni 7.072197879888728 0.6382738324017381 0.3292816143366565 -0.8535278309004978 0.06506099416539117 0.07052793081723338
Ni 1.8456837738066851 6.411114532712847 9.201605748913853 0.9823984633226823 0.730108965621504 -0.6270738062051846
Ni 0.2896110052021854 5.004407179620943 1.4552291322003992 -0.22914519837423114 -0.8253639668717722 -0.48390732598561825
Ni 6.412236193496474 1.829238779414477 6.995474473158348 -0.7461094548148183 0.46555556295130784 0.7160571155141281
Ni 3.6948591690849835 4.311790691382774 0.5239440342048195 -1.3943151579026116 0.06973166016818313 -0.03532952853922948
Ni 6.24881745384321 5.699583587228195 4.7844042716942905 -1.2142885714319023 -0.21105697341395266 -0.10351544148684753
Ni 5.285392251570977 2.7963998357483058 9.665548167715816 -0.6006912024465977 0.42131639062727444 -0.8734965607129408
P 0.25514526392980275 5.730356893566089 12.430480895657643 -0.19501714634227058 -0.008026984069534563 0.35587075942895485
P 3.926554486115798 6.2067280375027565 12.552546535000998 0.5628324797276113 -0.040636542574439695 1.0732687052416934
P 2.4743022778177504 8.468077588158039 1.4183843845885498 0.07838136542338114 0.27681987874237485 -0.33515255304499697
P 6.203571105135936 7.8951441146631645 5.823048588855637 0.42761430782084414 -1.2848915784614452 -0.25418902871673643
P 4.646868759188367 1.1225743944265292 12.500661582671917 -0.1385328381022969 1.147989333984036 2.2074638136551146
P 3.990814794235846 6.032743976919845 8.18313866194572 -0.12616686033777624 0.34931933146368227 -0.1335911778263054
P 4.781766559722471 1.0340898316407312 3.635292649518355 0.5144507459901141 -0.06382275088291589 1.073847460563299
P 0.11272419505906542 5.672573271906339 3.624834067276182 1.101327925371755 -0.42396951197940536 0.8869120627878984
Ni 1.5867881827729167 0.9149676472892517 2.668379444035102 -0.9197638192105965 1.544173962540689 0.2222883233533978
Ni 2.0066873245145587 6.318704157184355 4.747387656704305 -0.9538872432568667 0.8693306022607092 -0.5009959060367888
Ni 6.088148592240128 5.786566571868169 9.132708639844715 -0.4515160541391062 -0.26359129586724284 0.4173759179222876
Ni 8.61477996387467 2.4790241078907607 10.183002851548263 0.4513633306113259 0.5012015942896917 0.14547738774093008
Ni 2.227962051039419 5.243990304743069 6.839555483147867 -0.324039473850971 -1.0553527441932211 1.2580310066251752
Ni 0.5546621620686808 0.18832594100581884 9.280643937858185 0.020106540941887956 -0.45379225176779264 -0.10179280236878598
Ni 1.5763495009640014 0.9044973057001532 11.38839470810783 -0.21736543213048373 1.4238669034177995 -0.3687820681739842
Ni 4.033320310544419 6.887847502708747 1.6919465949333887 1.0749062408451167 -0.0762640619700622 -0.2961484038676577
Ni 5.637114318101357 7.9326654770057825 8.003005367486118 -0.9518486155602833 0.589154662561908 -0.018345078166090985
Ni 5.546386433748306 2.6798466164173913 4.894475377174019 -0.19760727566695 0.4475640114698938 -0.027393561521604437
Ni 0.8200009706522676 7.384254764675525 6.924922009868212 -0.031125774870527045 0.07440026928844606 -0.5026475827075988
Ni 4.876528804635988 4.068571214365341 7.586937059146622 0.893423638654171 0.43858134835530915 -0.8010313036636786
Ni 8.094953510223938 7.381170197520552 9.187850026706906 -0.17127095176526633 -0.2420138268067832 -0.2524100824394427
Ni 4.581414425072845 0.3879001496280903 10.52425729018499 -0.0692503496563904 0.1588440388558232 -1.457246764429826
Ni 7.994139724469724 7.42258118999994 4.555895737680185 0.11747010389472673 -1.4230541777085168 0.20289140688402477
Ni 7.3483435282965015 6.285144790190354 6.895213376709615 -0.1219728768610867 -0.26611071985498685 0.8741619622110817
Ni 2.466188328439417 5.038328372674177 2.720674164376265 0.21708672454780034 0.3153869403822956 -0.9493883269452489
Ni 2.405220637458403 5.195297562821586 11.365199848580602 -0.7751372095057361 0.5061293706086122 0.7251680766764608
Ni 1.1125970408431376 3.3494781042426878 3.72578263323746 -0.486844040016439 -0.1499382517257611 0.9990612686903437
Ni 3.759716490202768 2.5984538443925898 2.3951211675800197 -0.777864378628912 0.3175980891010014 0.1759752992194711
Ni 0.9366410282373985 3.0753405904636657 8.132246922149239 -0.46863780142105743 0.7720133191647737 0.07335717273591238
Ni 3.2537208376662763 2.513234761791383 7.029313350783106 1.2199948777880603 -0.14389230264199734 -0.3361408851001953
Ni 3.97681212574347 6.742854755122002 6.0572631198238716 1.2071907840448566 0.2767568867149234 -0.22276603432076475
Ni 0.7854302998227071 7.5505862041056275 11.178129444000326 0.28924653454150184 -0.4510853943595909 0.4744991452978408
P 0.1459452546876814 5.590818673822303 7.961116764608539 0.5423184189346595 0.05575231516995559 0.229974636254062
P 8.31562217809958 1.4713204416197057 8.070684931865932 1.1893995214997066 1.3861249087823353 -0.747034794842565
P 1.7965025667052352 3.2486552728369933 10.293802131972202 -2.1121301366481107 0.16427549428403965 0.5025676213992829
P 4.06374083647456 6.100061715240424 3.8204299983771697 0.7143527312285116 -0.3601953549462377 0.026003366042297152
P 6.976702937205261 4.130307785722228 10.559751522030746 -0.5175283564741733 0.17032684268444215 -0.8411806221890544
P 6.1888357388736095 7.862887321482408 10.254640793016103 0.662873075291981 -0.41985600403166395 -0.27105855077856544
P 2.479413070904438 8.503970733234102 5.611710510482503 -1.4134547069455399 -0.3625371157055369 0.9027022357426195
P 7.153310236717623 3.996585919880636 1.7849259419400274 -0.6240273060693768 0.13635974171037804 -1.835574053090084
Ni 5.597729551553682 2.920361443642047 0.47807082184992106 -0.325011350845937 -0.5582646578512708 -0.3079477104954309
Ni 1.38275446797058 0.937527502082523 7.0494634440218755 -0.5718007446644927 -0.3349196110985845 -0.8925803168172692
Ni 6.761434523263693 0.9182874013827282 9.363084196324472 -0.6613728365973707 -1.1199429693697809 -0.3280079715804157
Ni 2.646956627632975 1.614567378470646 9.150290672628067 0.6688637456577771 -0.678087064028258 0.4975789099354398
Ni 6.42561471203667 1.890324063864742 2.506966125315145 0.8535242313560719 0.035774843606764195 0.3793981531269337
Ni 4.142510369569911 6.786409567002355 10.422990317291585 0.017412024828860336 0.6892410237625485 -0.3097186863529247
Ni 8.15716045545783 7.448885944506289 0.15238847223749982 0.17476430963050546 -0.9215227108832323 0.2252592330562637
Ni 7.623801707191729 4.019760878974606 8.372406255270697 -0.07895806386245756 -0.40277436595902893 -0.5699305242249734
Ni 2.850755155496809 8.336508587368893 12.474686089879471 1.6348488006194426 0.11701527574549525 -0.6544262300762085
Ni 0.08622043622013802 5.301683469888011 10.23319264878983 -1.0146269843390847 -1.6327186416503168 0.25677684404857065
Ni 8.582731220677973 2.203348833359992 5.763855654695168 0.6521672588387026 0.5664196828582374 0.528564816793993
Ni 3.450780355176868 2.731406829858308 11.501722248120668 0.5526077166758097 -0.36075765520761094 0.5799238879922594
Ni 1.1001049961480664 3.5574195404847573 12.584399892125706 0.14441500791468675 -0.3578877898589837 0.027792853842552135
Ni 2.914689820163546 8.222840930860373 7.888870050796038 1.1086987639145294 0.12158644005594543 -0.0013480293874621944
Ni 5.702324419626896 7.889635312911319 3.5049918490668253 -0.46908645892270184 0.15164546422485498 -0.05014833871961686
Ni 3.2396096213561307 8.419873311416522 3.5408307202340032 0.2675662213545908 -0.8727982490943357 0.49666642542349954
Ni 3.3375016616820257 4.3070055417493975 9.389272261926717 0.8820146254862811 0.19093217763961956 -0.7411955624529687
Ni 7.066200612956916 6.252001523164473 11.495606483154457 0.34208219028529474 -0.6478406064388907 0.03550847731925497
Ni 0.5818570086807462 9.245108096015617 0.5168576708347118 -0.5291194037458823 -1.0253875652896984 -0.802545940535992
Ni 4.504671117909208 0.4929138313648685 1.5559135651384364 0.641072948697754 -1.237923694352339 -1.4640856417285302
Ni 5.8588232358973 5.472094498135981 0.4804887244907556 0.46565583597459803 1.3028589615731434 0.3370438565304389
Ni 7.84623427710614 8.90727110450836 11.33745050353276 0.19121294210483197 -0.06612928752890547 -0.10207305261336615
Ni -0.1159580154634738 4.820753317604988 5.738899606824616 0.18192483193468667 -0.29667188047129556 -0.018326823333645857
Ni 8.016283479294875 8.844340507156 2.4781846714333366 -0.3614539099436872 0.12915782464530012 -0.08898150953673062
P 8.630383712679157 1.5997867839509163 3.5313644459592806 -0.14473048227257654 -0.0707197351130653 0.10808583446634934
P 1.7290491436124429 3.1637799249920593 1.6673216179070365 0.8634708010458227 0.3334985623813418 -1.2136730493350905
P 4.5684158238948465 1.011593296407826 8.236043059196692 1.167688612185176 0.5516777486623724 -0.6753611804566627
P 8.809885620665394 1.677570341034854 12.212179474774544 -1.5820020891320563 -0.13258793337277164 1.4535400050022
P 6.338459860018558 7.705067840095799 1.3687373264358353 -0.3818558706388069 0.1950711395086576 -0.7127524766209273
P 1.586254489335546 3.2332143457591607 5.972227663947726 0.12141134793066187 0.0780995725169042 -0.9135057541160267
P 6.643605867073977 4.158937272659158 6.324126120681984 0.31895228913605067 -0.6328035096001102 -0.9266471765939912
P 2.6495617752594636 8.566991787101273 10.048876645085478 -1.8822694002640936 -1.2853893440334703 0.3281380694003768
