# total energy = -340861.11230279075 ev
CRYSTAL
PRIMVEC
9.32821039468735 0.00000000000000 0.00000000000000

0.00000000000000 9.32821039468735 0.00000000000000

0.00000000000000 0.00000000000000 13.65277882258192

PRIMCOORD
 96 1
Ni 8.848301972696103 5.499577044435688 0.12147288883029828 0.8088844811595101 1.5198790945490663 -1.5464301055647174
Ni 1.231127882210545 8.581496498438941 10.627145990387767 -0.44494894244454986 -2.3775258327139444 -0.9779931351661352
Ni 7.060886262455146 8.479399235459267 7.6653253798208505 1.540302909621057 -1.9111660286937857 1.4515666833259129
Ni 5.223452687975082 1.0191816133972806 2.0700754109175126 -0.3666650218309814 -0.24513206072079075 -0.20792099888813223
Ni 5.019752557167668 4.840585619748701 9.843462511456659 -0.5431087760464388 0.18520658800975198 -1.0070561139703624
Ni 7.651091463550346 0.7947122221034125 9.412826610521952 -0.3154640734771341 -2.431984368773141 1.8543222802318646
Ni 7.613657355159534 5.51977261998169 6.24758011853379 -0.18558633994667395 0.3430777214293447 0.8838447367164842
Ni 0.8209002400192769 2.8300391164082632 1.0628684212285011 -1.6987779951732358 -1.2157132196935707 1.7708442170118663
Ni 0.7354473028810493 8.865064766809805 13.65125012906697 -0.9435318681644718 0.2760812008041374 -0.785084293416119
Ni 7.4045935033641515 1.233282698816146 7.235440399824461 -0.4804749032653015 1.9446505336044768 -0.700777306536922
Ni 7.746332491875834 6.675341997839987 4.024730075921238 -2.0932366421777173 1.4224810788138662 1.0122065478230502
Ni 7.352560745675652 9.096796169910862 0.0938977660258931 -0.6279600654648798 -0.3254137284906783 1.6311960343582035
Ni 5.274515311780539 2.414663234889587 0.20203970935374713 0.7336131221200205 0.1080475250292462 -1.427637169093509
Ni 7.045914484740903 8.97937265722122 5.153282157957877 -0.34473685429932244 0.6865565349518499 -1.8962988817739665
Ni 3.0288139521171598 8.778153830383893 8.862291489853765 -0.8156341411785178 0.2400333060416447 0.06061067170352142
Ni 5.210421178026922 4.946330213000193 6.073370192128746 0.3132434116767315 0.4634472583590535 -0.23469338188597
Ni 0.5704079401338694 4.59390109535423 8.570982672481483 0.34450468368385834 -0.302847156044072 -1.6293016455489684
Ni 7.726426090852661 3.1990071511179963 5.610513719603534 -0.272271340139744 0.06405209328490259 -0.10633182788972009
Ni 0.21680253515471856 6.363518580125547 2.8251697905722293 2.3484597685859234 -0.39743521313430263 -1.7996585701403975
Ni 7.78960605998572 2.8260746269823738 12.90911170085606 -0.15017042234122524 -0.6319463038061375 0.09268184120645327
Ni 3.5262314442257163 2.999019648055298 1.668069653385019 -0.7255177467063957 0.07970008423480467 -0.27485092794146215
Ni 6.320282324857315 8.465612140467584 2.9203016788358758 0.5592136520281015 -1.24684747920453 0.15197842208424148
Ni 1.4775512167134277 8.662073579993844 6.94092267806981 0.5131135152359292 0.7245139880322297 1.0930368890075564
Ni 2.8038455015661503 7.932850059100922 0.19782335824668337 0.49176076059176593 -0.4576375936558118 -0.3768895277724671
P 2.5773845373489235 6.547806705061722 1.831820790274045 -0.6775268206494138 -0.0038828799941739577 1.1406308367364355
P 5.235831223194271 3.320880220175049 3.0399956779402513 -1.5363341547812959 -0.34999990247047463 -1.4155434711537684
P 0.2544689159848352 3.9056843874406257 6.401406039542472 -0.2432988641667939 0.6496493775128553 1.203790757224372
P 6.130369289041584 1.0670260046099578 11.886641893287896 0.9740500913579869 0.2745817334404755 0.43877623797493465
P 7.003265906728746 5.981481722625999 11.569145990820788 0.25948447278772085 0.46758313490429787 -0.7426153256186308
P 5.2654949323103395 7.962233921904574 8.949696821431614 -1.0677341485767096 0.7386059473489215 -0.6314711639419318
P 4.422010162058071 4.512540444124562 13.520387463634084 -1.0984799143999986 -1.1696817313558048 0.012585035753862196
P 8.770691262052805 9.240413297442618 6.121919796048711 1.6831372033121852 -1.2229760719035712 0.3483986194216258
Ni 1.662053890489122 4.868868753723518 0.9551919556002987 0.7209573810292229 1.3878686309463195 -2.1150964183652863
Ni 0.14814317522455928 1.623994792000582 4.381913782415145 -3.0092867599821527 -1.167368766951912 0.5140601954199147
Ni 0.3299229443804485 1.6369330198446028 6.829871265913873 1.333642265502587 1.4054292655379022 0.2149424245112879
Ni 6.259835521375517 6.173605544309814 8.150436163930404 -0.12413877416415395 -0.036168222390440936 -0.3185298568866514
Ni 3.4276882294137216 4.536150144682036 11.60837111561106 -0.4935227375881952 1.0793565633069864 0.17720917162657224
Ni 1.8975818752286189 3.0107918495975867 5.4582306845973045 0.6668937664155998 -0.3481332815753811 -1.3394563010812028
Ni 7.493873805235185 4.568994773549229 9.590107383795239 0.962687100936684 0.4949206463769863 0.7755719830503094
Ni 0.9650593365760776 1.2684780367076316 11.265972622623117 -1.2336736608267334 2.0339814560608263 -0.418232352385312
Ni 6.474001904267279 4.7548686942557605 13.29821654338619 0.6746168460914704 0.17404671473819058 0.18512354137764245
Ni 6.046014282269067 8.057344355284268 10.916857818137197 0.14973796278949694 -0.03547736697100342 0.8485697155642742
Ni 6.856831659652006 4.609992258318135 3.2714789506443 -1.3399944329728601 0.7003003669005037 0.5436787896172959
Ni 1.992729621449969 4.320099463286674 3.1260633441447525 0.29796720224395135 -0.20618627558521263 1.701099701327877
Ni 3.0013050596066932 4.104813695145249 7.168063668826207 0.44522970690976227 0.8092927723415224 1.228765939112471
Ni 1.982356651469759 0.5475193102413863 4.926632763890291 1.682443262568954 -1.0358187879253515 0.884668003948728
Ni 2.0391281400484975 2.8890120626446727 12.795329921511987 0.46365963148017564 0.017174454896757518 0.19752114371104693
Ni 8.289206353331119 0.1725523034145011 11.748884747538126 -1.075162836940613 2.3409747730627877 -1.5275129569452401
Ni 4.572446211402356 6.6277214836772425 12.533292095597348 1.3167133509577322 -1.766651004866125 1.0092646915859071
Ni 4.664151847980993 0.9766636303309166 8.230359337935298 1.6758638095792235 -0.3842187144440286 0.45763836498676025
Ni 1.836025014707571 3.3394060460569706 10.379156449356397 -0.8827838995521375 1.0680367674187927 -0.6290016193555167
Ni 6.657730336578624 6.384693617765004 1.6836468319551203 1.2779136044817154 -0.29824411005442186 -0.4836754124804702
Ni 8.692744735834609 3.426615485216128 3.4006205612558302 1.528118194629407 0.5730592996619421 -1.2403384744414188
Ni 0.14471972200267344 0.4028434308276581 2.0595494582865155 -0.2747647959855591 0.2111194512207719 0.49869219760427663
Ni 0.6754986258353505 7.768850791814886 5.021068767657064 -0.43258347890066146 0.9934765755137148 -1.6295289310684258
Ni 4.350154957240124 9.143549160505117 4.6285927098833675 0.3259035236429032 -0.5236516957630917 -0.4280308265329725
P 8.603539059646886 6.509878201518976 8.0738981974847 -0.9658829821661625 -0.28765373613308526 0.5856237665905141
P 2.613932465750419 0.769058710644262 12.339627253553163 0.6991158596740992 -1.0593402680860593 2.220358667339912
P 5.483625804627991 7.791620953435114 0.7173785593094067 1.0160140944945986 -2.4524305524426344 3.2091260103034154
P 3.394190625817558 4.657323597958049 5.022447477156232 -1.9521193311776959 -0.5945156697635051 -0.2454771027650353
P 7.5943759442340895 0.7292729604081167 3.0721071094689156 0.8680846456687501 0.5619955856486127 1.551420102580141
P 1.752416264768163 1.8352787578744623 3.0832347316716064 0.419040192998588 0.4443843281903314 -1.9550331623903814
P 3.8244076901046817 2.599007329088246 9.93968673315977 0.9310008255769966 0.582024736385346 -0.1173855146007204
P 8.669256302012515 7.456523650738098 1.2522945244606298 -0.021420117546988915 1.1596981377805318 -1.2972734970655657
Ni 5.616748695444157 2.2768295978144235 6.3060819901443 -2.4934509607190543 -0.11327997707277909 1.7924425120079324
Ni 2.357639884629674 0.8995305240608088 1.0383296309138068 1.0327779442164988 0.42961719718348595 -0.27869729827074585
Ni 4.040616951077079 0.5936696984429067 10.730196596471737 1.4862490651994467 -0.17451491262386074 0.6078627804943725
Ni 3.682553594341146 7.030989348078731 7.537029837893857 0.24948493837284777 -1.2385003927914153 -0.2508720485283615
Ni 2.425969025911183 1.831687396865127 8.401496551830016 0.47359643097791343 1.1106083222324163 -1.0715458090133159
Ni 7.370517550722329 1.953737701920043 1.4377057659306338 0.373378429295415 1.2857235874444373 -0.17934832945676207
Ni 1.675253308224731 6.13521995845679 6.401241863039187 1.2052603997913631 -0.6968170363375935 0.2040939118325582
Ni 9.048438727125424 2.3952792136495904 9.090894211182015 0.3001428697390315 2.7563071781924857 0.4847138810473136
Ni 5.361276996839831 3.1321425388714634 11.45806752685465 0.6479496212129293 -0.8851819674706691 0.7087176444299214
Ni 3.578655986751597 6.810022699795266 4.923615087821408 -1.040212546117673 0.3332301392113035 0.5413511699253838
Ni 3.364881388697217 7.5140320679395325 10.853235691830523 -0.07607842832181737 -0.6347791452692422 -0.44417452617237047
Ni 6.049335125176401 1.9158371830085388 4.305158468666798 2.446577436095967 -1.4505035321687212 -2.3015978139270623
Ni 1.3951364777069937 6.954572648368408 8.54046823057567 -1.0660079099142223 1.5588397920829797 0.8855066977999395
Ni 4.570888400263243 5.1783974316761485 1.9525250345662415 -0.5410279822580102 0.6908687891739584 0.39904292394105473
Ni 4.8758649115339106 8.935110298807464 13.04789215128823 -1.7607395244776967 4.717300414821044 -3.92465604966948
Ni 0.11547484953418768 5.643828490275586 4.949023267346673 0.4821620611597374 -3.3783015129922336 -0.43843273859258686
Ni 2.240244356571273 8.536795714135733 2.9263230386580212 -1.84734327781087 0.21136833400678434 0.11428707818105478
Ni 0.5504101226486409 5.8727800866733135 10.531494520804067 -0.6516358118152648 0.07659701982944872 0.5768683889953872
Ni 5.375801020454208 8.215019095909708 6.367164977576324 -2.3752414075551416 -1.5009537183994732 0.5737419275512635
Ni 4.2223025053077885 7.740147888371446 2.5271297365653056 0.9241208106277118 -1.1592119421727325 -0.25474233011704517
Ni 6.259378439065237 2.5182343551146507 9.261758108511607 -0.7267729592697354 0.017883822258956295 0.7863091669621556
Ni 8.822602753005926 7.472931972856075 12.226117857953176 -0.1728840618886571 -2.438697519127258 0.18479264040078497
Ni 3.786292622353659 1.7685447405737234 3.820511296614814 -1.417299791723243 1.894168979915157 -0.14241134722109666
Ni 8.241930982953688 7.910322430951455 9.905418619383418 0.6763736808815771 -1.3241438390938487 -0.7673796770475042
P 0.7654776106663819 0.6376270243761291 8.82336766625986 -0.10600015558191421 -2.6655670340934354 1.0938331596566064
P 3.5544586089380497 0.9681749588543059 6.43765359956864 -0.21196174461640915 -0.11068084888703518 -0.8862685156666285
P 8.140785197436227 4.141604157017505 1.3839547518839022 -0.8329651762577976 -2.099306245410565 0.9897549036877535
P 5.524520679082345 6.661937359475273 4.2537553651812345 1.6058688684473246 0.6152531594211726 -0.6474238306164463
P 5.998235188529287 3.7640914815686775 7.690213978026065 0.5854651295254627 2.7487087970199373 0.20163439454847207
P 2.7581745833799025 5.51454882214993 9.032800915187632 1.1400250848316367 -1.3876472589641329 0.6437831485400655
P 9.09354995268684 3.074111741886854 11.271133921445106 -0.022554745372064384 0.7688413491946953 -0.9225706925317724
P 1.6903836655160085 5.754647629992217 12.292238079008682 0.12416448519576681 0.30353004104370956 1.276705443106227
