# total energy = -340859.5050658041 ev
CRYSTAL
PRIMVEC
9.35576038665926 0.00000000000000 0.00000000000000

0.00000000000000 9.35576038665926 0.00000000000000

0.00000000000000 0.00000000000000 13.69310102062660

PRIMCOORD
 96 1
Ni 2.6157209262080876 1.2220213610883377 9.139090381702937 -1.3672517260269161 2.0064873644056154 0.8812736335551984
Ni 0.704263287130692 2.3732944617469456 11.447638303340925 0.995612390909795 0.46158115168459213 -1.818274899690004
Ni 6.001355446114105 5.294490322005695 6.14838028581619 0.15682109488852347 -2.3460449884968435 -0.18226961686861512
Ni 4.882574901455557 2.6597117117860547 7.339447177920421 1.8353691361681295 1.9634550679054892 0.4476254608354484
Ni 1.9653833066641344 5.744277860807557 0.535417071783765 -0.36960842073002154 0.84211136153344 1.1798342464087743
Ni 5.670049257495011 6.544419916479629 10.238194826585003 0.722837114550439 0.34612190757230715 0.8407394208865779
Ni 7.43643553964971 0.2300693760750555 9.097476894852186 1.2609726057520025 -0.026208797184883895 0.5587459683630634
Ni 3.4147215791067618 7.637846350352066 2.7283642818777443 0.08114684398366025 -0.022978463173044295 -0.694696390450165
Ni 3.1058598597776608 1.9165088141376985 12.214779785221172 0.07947254160503088 -0.46511641853136027 0.8371653303820744
Ni 0.6307709821645908 6.813491586667282 4.869718215462099 0.22463316943649053 1.1778809793371456 -0.14984877733574836
Ni 4.297512422485291 4.269267381723938 0.10176634858481119 -2.2312904837610668 1.0881067986957906 -0.030536478025960313
Ni 0.5113484424817917 7.285209027935064 7.372598379455294 -0.12496949759556543 0.9682789932021648 -0.9360574141642977
Ni 2.164268062048318 2.47236260902153 0.8305454703663975 0.11613570135401936 0.42368489085945094 0.18925556126814505
Ni 9.020328358707038 9.141345119968419 5.192150465306053 -0.25390954980310465 -1.5523850375965718 -0.9305143728588814
Ni 8.533819460187287 4.201634589519956 9.936755032011112 0.8617815862688578 -0.29042564245126756 0.03224446185600253
Ni 0.9290765969918593 7.719877657869637 12.105659808932344 1.1645467241220846 0.9518650706205154 -0.3880519721471897
Ni 6.9815771786906256 7.185102391251897 8.208534638985881 -1.9201816019288351 2.3440834938950985 5.5286022471727945
Ni 9.487863775059179 8.80590368523587 2.408465571960312 0.44892412504221396 -0.5842569681499744 0.9086160301238932
Ni 5.622671686638604 0.6231245191588758 7.802205542993083 -0.40297388356434466 -1.9025119525632137 -1.603680088326122
Ni 4.23604507640974 8.0501079340384 11.693606858703772 0.051406636606750176 0.7339831038649295 0.06973731659513796
Ni 8.237559950167737 0.9631100467360048 0.08347770808123597 0.2818065333236888 -0.0755886331695924 0.17289254652908934
Ni 3.8198260060582694 9.042071145964206 4.589269940582228 1.2302561505047522 2.3975228446611614 -1.0337354230337616
Ni 6.2333221704059225 -0.13186850779304385 0.5141289744838698 -0.021839464472594647 -1.2224515668586688 0.2710904324577654
Ni 4.0185423577545745 2.413954596609099 5.265161884185658 -0.3294434184753617 -2.247034376858885 -0.19298828883769992
P 1.669105085123711 8.980248280992022 4.125813635780916 0.19246172691026855 -1.3017965817469 -0.2467243449085751
P 5.218147316834233 1.191100572841808 12.1189973810123 0.10164110728227012 -0.2755181292118158 1.2975689168187976
P 8.374097917995227 5.715013042158497 8.031866072337012 1.85463672614849 -2.4284066787242113 0.6963298122885297
P 3.2943222980342695 1.2645620037984646 7.225917831737316 0.38477304428560183 -0.5766074220245166 -2.257702655206008
P 0.1573002713907871 2.2257728311656204 1.5665322699891717 -0.6718899340786106 -1.1671828761933511 0.05755902936139119
P 2.141168689527688 5.89285669231834 3.374227041204356 1.642834132817764 -0.1824655349295051 2.3421988752778757
P 1.7903650961564705 3.813033723980514 12.826615643835943 2.9530389932330174 0.5269666190689375 -2.657000375470347
P 4.900771855506843 7.841549322361655 8.657065699160965 -1.0982899098763794 0.8764021643955099 -0.29016544681134543
Ni 8.18780601616016 1.0413429155158778 3.255535186411739 -1.2009332331709188 0.48087753802035893 -0.1581236157500309
Ni 6.222740805350908 4.404214870277022 11.58706065211135 0.04710698079013177 0.41343570232761695 -1.4276675081108123
Ni 5.526457046297512 7.579868702919769 6.43071842430447 -1.7488178333394464 1.5658941278265999 -0.4957667964273655
Ni 1.561336080642085 9.44501439225461 6.450381426016341 1.8025562034031666 -0.1764326984718639 -0.35752217898944877
Ni 1.784901332060866 4.874397966833026 5.572996341018702 0.8059238558692893 0.09343157488828427 -0.20414044879977747
Ni 0.3812491089875129 3.9912609603183022 7.412664423529654 -1.8299909025753516 1.4353147402434248 1.5429904837555493
Ni 9.462790337086199 1.4964351704859047 7.515034218662697 -0.9792851145046811 0.45342612667762555 0.6210548537046142
Ni 1.6297454009623948 3.6260869189148095 3.1146056246348026 1.5552057948748184 0.7644756160268318 -0.5219722511781397
Ni 7.730683561175157 7.069380990398244 3.884897191054415 -0.6674797208260569 -0.13615739589158488 -0.23468206903206035
Ni 4.366763761244992 1.141879917179178 0.7265178344837994 -0.9793144250807199 1.1185247488660155 -0.8263947221291316
Ni 3.173726545992585 7.597691426553548 5.993059693334016 -1.660914901578875 -2.5004358766773196 1.7234341031590188
Ni 6.455278231029422 4.6898181691580545 8.963463111190782 0.16655683411904865 -0.923263861944055 -0.8581625014590317
Ni 3.062776582962148 3.582863305692732 8.088980183080912 -1.8466303109042457 -0.3415869958164311 0.12799208647197313
Ni 4.884296361376091 6.458814708474865 4.262484455406621 0.9195753573488743 0.9425419934473768 -0.3824683074118252
Ni 7.644152132887062 6.845778315937712 6.366004629357044 3.7760005213108836 0.15114641310124938 -5.722291932952894
Ni 0.3183316200441206 5.434302805986372 12.169880555304704 -0.4855122085788929 0.8913055638699037 -1.6974464208460054
Ni 8.191763502825298 1.9744771058095585 5.452948836538667 0.2494263172207704 -1.3600523800649997 -2.069142063122359
Ni 6.277752676724461 2.9491508724465345 4.026812849981483 0.49951777882936554 1.0439684136156795 0.7455278712797353
Ni 8.726800730735293 3.3706091686431052 3.200598161121687 -1.1814980072644425 0.5569490243636408 0.5434808146738769
Ni 0.38941388112147546 5.909837397512728 2.541069442523758 -2.9755801117583274 -0.12323194607916842 -1.6552893278619814
Ni 5.813566622609009 6.505883539236828 12.70803325144045 0.5385262988820789 -0.20958938772949062 0.7182811197486404
Ni 5.410436261109853 1.1424225512845632 2.833883225974109 -0.3736429958107113 -1.1309254365232135 0.7410140425697819
Ni 7.191380106505579 1.8247007369627528 11.0351054026019 -1.8115779472858027 0.9740025259495032 -0.466141774472081
Ni 3.7569365843961897 2.939607996800102 10.32559821174589 0.6959382332770659 -0.3964764487654591 -0.889450770049352
P 4.3536750523926795 6.46911540071675 0.5523444491436579 -0.8052255442506842 0.9066031134589225 -0.056859175080889175
P 2.658186722834713 9.118058632239036 10.697022836697796 -1.003830407944213 -0.9191413551352493 0.6175229292919557
P 7.832090648559161 9.332988516773838 6.951795922065404 -0.11209238452258116 -0.37897083578152796 0.7568006159800772
P 0.8110078358443922 7.804378886142755 0.7154490343099811 0.7278893322623657 -0.665742426419976 -1.4364737935485326
P 7.710774502963775 7.04137919940827 10.93017587141311 -0.08932398047781391 -0.5156455376291637 -0.5945220975214084
P 3.984047669020852 3.098880462491152 1.971258724218997 0.5418183393697894 -1.054188805792107 0.5899853859933194
P 7.650645030630812 4.870814710585394 4.390761286767639 -1.199225506451193 0.8535609981312783 -0.1877326968657154
P 1.0458056132446507 2.867521862627784 9.034611798167244 -0.0642122730118507 -1.277253345189897 1.467976492142504
Ni 3.78225327214055 5.278286144927634 2.2098745874538723 0.6412660385451666 0.22769201086747237 -0.9087674681000929
Ni 7.164678766216444 2.988660248774854 6.931392879702914 -0.7973739094167493 1.8398091742173541 2.7176758389735323
Ni 0.516292961873105 0.06296707447371198 9.767440093066257 -0.019282759489011952 0.0385799171557271 0.6795579921468297
Ni 5.817093744294015 2.9596480356576107 13.24350177990662 2.160146002405757 -2.7311867289757736 -0.0659102295395639
Ni 3.02592424259813 5.975673883712675 12.266718289290946 0.1298075424141571 -0.5472024864998382 0.5704102920748693
Ni 3.85521884779401 4.314146964543485 4.1899108861154994 0.08375471392015253 -0.6616368888920346 0.5094442939144581
Ni 8.235286500381383 3.317122286220893 12.45084901046491 -2.1013459015484135 0.22839006537576154 -0.4929573520030285
Ni 7.043624581913313 2.2271481279499596 1.5418433537701803 -0.4187159768899499 1.0082565620363666 0.1508769614899466
Ni 8.021993873923172 7.617123340982608 12.977102114899969 0.3949201600219328 0.7933120806425498 -1.2762999801376922
Ni 6.443040896376938 8.791065449181712 11.28471709107918 1.0919074033888034 -0.04524010278472209 0.8527696125782347
Ni 1.4471864475419616 1.7419677474123563 4.530581255356667 1.2996556241444972 -1.8543983848854384 -1.825472702990024
Ni 7.962949669800979 7.185991188493477 1.4347769668974242 -0.6299148751984054 0.20641047578087676 1.5330166603722888
Ni 0.1773964448109219 4.082517047627424 0.24133558279410874 -0.588072999461955 -0.5790970212155898 6.04158849280224
Ni 1.6883498843440172 4.4889593483215195 10.209438961303752 0.6411598519846056 0.7209905482600034 1.0203741712355072
Ni 3.168973819690244 6.666699705400096 10.12773229867337 -1.7777882524298674 1.6080705040843335 -1.1178444349695393
Ni 1.9201294934270803 5.595727096578088 8.046873647655092 0.5328053372379018 1.5714317698153775 0.16396387658089182
Ni 3.1113797584358913 8.279464401168104 13.682297235770255 -0.8184029621729066 -0.3269911002801272 1.3009170073554241
Ni 2.485919105895727 8.402399093319207 8.401799389075151 0.7409785613461561 -1.346280523091888 0.04856582472384539
Ni 6.297390417883149 5.399471309876892 1.9392994465638849 0.2392547760044073 0.1445685027734155 -0.1269217362259298
Ni 0.104459872014819 6.970715140822479 9.690169932035422 0.2544569376661424 -0.7973062894036076 0.6479822742230775
Ni 4.342551053232279 5.6200614294764915 8.478891790657672 0.06435085547224402 -0.5089596409685557 -2.230289039079746
Ni 1.1388486507973699 0.7125375216617753 13.146376824074942 0.5998756485238379 -1.0806971364952809 0.5573462598020595
Ni 2.3408299730281983 0.3414908694315516 1.940613930905379 -0.2146472618683723 -0.05428678636802264 0.5759551331524984
Ni 4.779988988256405 0.6614906215617105 10.060622493477853 0.23681454199403085 0.020673983409583752 -0.2853492563696247
P 6.19733056000217 8.205254509376433 2.6418786968157946 -0.005364092525390762 -0.17654325590779918 -0.3427635326230355
P 6.4336009340953195 2.422243800356883 9.061560130531936 -0.03237378834501521 0.009781761977112186 -0.8084553640418916
P 4.143582096004156 4.863189765828686 10.790245504850919 1.2141533314056188 0.8962914471202693 -0.27894026751948736
P 6.015407798291498 0.36437505946211474 4.950535145274858 -0.25684729227518993 0.60430257394694 -0.39451572549466246
P 3.8854847328099016 5.456569515828049 6.057061514912134 -0.38189032342116813 0.45775766417344393 1.0599102816569166
P 8.752660052585039 0.6315699641059687 11.707792998255425 0.8273336890036331 -1.5103115054652891 -0.5103205258718244
P 0.6253399632305181 3.0616726032305017 5.684965146360803 -0.8931120209510232 0.8063889684311661 -0.41529666679575566
P 7.90091162233873 5.467010544476498 -0.02134984531878382 -1.3779230896978334 0.059515381756813625 -0.2032935274184499
