# total energy = -340891.79792131623 ev
CRYSTAL
PRIMVEC
9.11525944714278 0.00000000000000 0.00000000000000

0.00000000000000 9.11525944714278 0.00000000000000

0.00000000000000 0.00000000000000 13.34110358543683

PRIMCOORD
 96 1
Ni 6.248054590584737 2.246054620246003 11.42589477277875 0.640125240072504 -0.7158563123572317 0.9303187119083075
Ni 4.884457353034918 0.2630928220039218 6.0677337935501985 -0.1702232272270423 -0.6256794969608191 0.2955341673224265
Ni 2.9263355483223465 1.5676514356165347 5.106307272127526 0.4718527088139294 -0.4965370989344868 -1.3512229546988277
Ni 3.526311040636706 4.358643611612669 5.010798495127471 0.20471149081189907 0.2085879430481698 0.01420868740021424
Ni 5.121764017578331 4.318691429439596 3.0679201387945554 0.30616079379833727 0.4477594153101515 -1.404900646727942
Ni 7.2248002170405075 6.316300538093247 2.644113442834872 0.7331418389105567 -1.145218456107118 -0.46263478976008715
Ni 5.160886711141378 4.506055587451805 11.61213684235256 -0.5147993875787843 -0.2118748413295577 0.071986774750947
Ni 5.745730872767327 7.947849942460237 12.41240284210638 0.18837727242824978 0.8307373153685434 -0.40833926164131606
Ni 1.8616914749820355 6.460321637416667 0.2501227193313082 0.15873759518494598 1.4011926017487353 0.6539459480056803
Ni 2.484473346442421 1.441888200973165 0.3762687948716134 1.3376804401277027 0.1972079833460023 -0.7507330696297587
Ni 0.537381917191322 0.2993624393588517 4.727993924561088 1.54254414024675 -0.510333895608263 -0.08846806023542182
Ni 8.614330367727995 2.261942517468834 1.2491114018990408 0.1941645685339882 1.5012851335969628 0.8522998720306676
Ni 7.043032828331119 0.6939437904672215 4.775395096757395 -0.3236648641203716 -0.03531667302342305 0.01035151843765314
Ni 0.777522515898005 7.530361944351881 2.524777377630296 -0.23025925737401637 -0.1499343950710192 0.333489049299645
Ni 7.547243404854855 4.174606523300019 4.010629386460853 1.5689383139695625 -1.176248071719413 -0.8771668104756764
Ni 7.71931215750854 3.9728767163932703 12.644030700011914 0.18756300405707052 0.042383864282849584 -0.13603295449857863
Ni 8.459143075577282 8.873832689034225 6.609703420823133 -0.7812788036270997 -0.054225337002467906 1.6652104436304354
Ni 6.940951037741056 0.7361310342576428 0.5000603988957641 -1.0262216311552197 -0.2571044025913185 -1.1546410349725986
Ni 1.8210829941285012 6.440459487073267 9.390883020020429 0.04603765898535297 0.2683198116911637 -0.19893884999417996
Ni 0.28456290411445256 4.785720862663317 1.280789663068578 -0.8131257729343673 0.28717756782761505 0.5085652337436144
Ni 6.271772495675847 1.997499725540241 7.225888579018939 0.5452723593566609 -0.09104456271334642 0.07284500898618422
Ni 3.5404852690827773 4.715642748005187 0.5141863164667455 0.07878374306812239 -0.8923784852191083 0.47871035516571103
Ni 6.032460474053247 5.534530311291147 4.949095480852781 -1.2294987035134373 1.6667744456834455 -0.6987751885052288
Ni 5.174504908760947 2.7434105216627 9.361959390256938 0.036938267787246064 0.2575214355240791 0.13027882562362078
P 0.10247830437617465 5.823347306991311 12.547801817515241 0.6610509344815777 -0.6415010373741081 -0.0955067122497581
P 4.308208881071119 6.288553688324861 12.533486302547683 -1.142649409828361 0.04582605719517915 0.5846462331685932
P 2.2357908381043465 8.502030371293529 1.3270851542934972 1.3183879104466778 0.2470123084626391 -0.619370781133972
P 6.586586211329834 7.782371522389516 5.892244995550556 -1.0039317094087676 1.882420066909345 -1.5209337610658258
P 4.841734131988787 1.2199863249016867 12.820693543428826 -0.051175237322234446 -1.9583784247135303 -0.26546665851308476
P 4.0888137013486245 6.193919064706143 8.09287372032325 -0.982423917243979 0.2306107271761641 -0.08531665909063373
P 4.874849869573723 1.0059326872173897 3.9604134221461242 -0.11250144703554174 -0.8451997706507766 -1.0896363479664395
P 0.16966597026244065 5.657148781423972 3.485830173415484 0.08550409251109145 -0.6696677296163112 0.5731775704073613
Ni 1.5975312560964192 1.2269959594193902 2.4325099868909636 -1.357519586340817 -0.6180086106791227 1.8579418792623228
Ni 2.029649245623387 6.4267319063402875 4.7817985665216165 -1.7618710669789786 0.41569544489607113 0.3276130501348422
Ni 5.934744892740142 5.732085329369406 9.140496869690992 1.1387896697626387 -0.43704048623075054 0.9048977007320416
Ni 8.44732969932898 2.4332364730691958 10.2148960936956 0.12897527632084885 -0.22620668457119752 0.15049515267049565
Ni 2.387286450177464 4.99351231710488 7.434690004207656 -0.7795332816909025 0.05738008058136569 -1.3435325280331056
Ni 0.7266092342352856 -0.16374196314533362 9.043653618707332 -0.12856801358010114 0.4799002617087541 -0.25721470291693765
Ni 1.2481524766048115 0.9375591260765683 11.446680298904523 0.36320920207189705 0.8835721997813879 0.20798656201874502
Ni 4.229598883566994 6.953785323047852 1.4713231967918483 -1.414226809224874 0.10649843537457142 0.20326524528367573
Ni 5.6332303406249435 7.762618755159525 7.989226839685476 -0.4557136371602217 1.8651445676583491 0.01049215778057548
Ni 5.3172863327990525 2.7684136783363797 5.035959345789651 0.47548310647766495 0.5665739490479145 0.5392040416753939
Ni 0.9542582813905245 7.241180338273685 7.15920954461003 -0.2503434297184011 -0.4031939699949508 -1.1520488487653902
Ni 5.178442700843714 4.594783522946374 7.03172170287856 -0.2988526901726982 -0.23163094091056236 0.2391447327891043
Ni 8.26854300046002 7.215128926763156 9.052139013730127 -0.38933495262467144 0.0005934106096247844 -0.2910509347400923
Ni 4.517814272143402 0.43461648214244564 10.6942156312369 0.6132685248909762 -0.07308874956587413 -0.6012905265934936
Ni 8.411543190724947 7.3317313256584224 4.7235247128523365 -0.13023974485556922 -0.5575316363399881 -0.3481060278818714
Ni 7.09541822439515 6.141023214112863 6.904381528350194 2.4524842884987055 -1.8715754108853573 1.9735147661343369
Ni 2.323643708691633 5.228403437893819 2.808742320724773 0.30730493470510944 -0.21960589142522824 -1.2962926212095351
Ni 2.5433852682732607 5.185607294772081 11.596407550644173 -0.5613754355661106 0.5282981933961676 0.28187466755746293
Ni 1.0677250310346982 3.2504924049134534 3.898603759335859 -0.2674291815560943 0.1517598783155322 -0.35198145167687767
Ni 3.6632313528479155 2.432124411416192 2.734686306842292 0.1839907133247799 0.5304118973050607 0.11312776776563097
Ni 1.0397502997800412 3.159476539296722 8.532623005062469 0.09300734286667209 0.7671832447659819 -0.0435899687758088
Ni 3.7008135675637672 2.8469689842838006 7.398068537837924 -0.4716616758490457 -1.0436722225314992 -0.19300782922172569
Ni 4.019154888625232 6.963411037027949 5.8007250560861925 1.4909410713584774 -0.08711900240669512 0.9939640566730945
Ni 0.5596404692443512 7.69882105426303 11.180005179936416 0.3078883180124052 -1.04619318918114 0.7684543981689217
P 0.06491705475705943 5.474324022618285 8.065431320220524 1.4643082992622976 0.42021364448139886 0.18139415624219726
P 8.593164735283121 1.4480318858430377 8.056678848095817 -0.33576010472200885 0.0907645695790824 1.414718918369944
P 1.8251119388057766 3.456752495767274 10.609832939922553 0.5847655323552767 -1.472151192345484 -1.555047157809767
P 4.158572781925975 6.150339009271632 3.714830102021339 -0.01910586759151548 0.484356754818211 -0.13143710759778007
P 6.827812437437113 4.140287571467571 10.356431461766775 1.0425285958453594 -0.5407904123259074 -0.13285404254996475
P 6.4418905828070505 7.7165775796732845 10.189721570144245 -0.8410330408675968 1.1226318290558537 -0.137331361595028
P 2.3977325375081375 8.470774146636566 5.627984508810981 -0.5860192022567198 0.940984933372902 1.0862471197792325
P 6.902539334415177 3.997715798396835 1.4415062716021747 0.397397932138464 0.6256316744420193 0.47995039822039914
Ni 5.151069576712813 2.9121704351357267 0.658074333002184 0.045960268780198266 0.6189046401308309 0.2047228036658087
Ni 1.636535451286604 1.328257376658876 7.093451151405657 -0.4726572069930957 -0.9503504337482022 -0.03903731640811987
Ni 6.716660963693456 0.7187737572113354 9.377809003390075 0.12378010527315456 -0.39651167287876876 -0.9504717898174146
Ni 2.6303630739532657 1.4921223958067964 9.458922051139403 0.581550882072721 0.21200288226698974 -0.43915470436027587
Ni 6.43264770972389 2.2587339461421343 2.7586867849763785 0.6863847852606759 -0.7764980944090046 -0.28504432353469616
Ni 4.055798231617648 6.741509160956471 10.422229962112732 0.4118308197343424 1.71466689848935 -0.12408863765250887
Ni 8.174619367078469 7.435125713609407 0.28332231730319196 -0.6006575209951849 -0.7227453261675811 -0.02256425845376114
Ni 7.777832123182993 3.9080854522166324 8.27109709615815 -0.9960049983625232 -0.630020033317702 -0.20608960210634827
Ni 3.2044968057244674 8.448888408695076 12.37864994788583 -0.07634093795458466 -0.6993827401822407 1.7191547590573748
Ni 0.15431040419153974 4.883573172868185 10.430928654206676 0.1585661026040882 -0.5005477627557766 -0.37965037834705584
Ni 8.53627640105037 2.22445145534749 6.0637048488729235 0.7287421671809644 0.883498152010343 -0.7904126476075678
Ni 3.5075427214274075 2.5724902916998227 11.834839949729767 -0.24860999196706218 0.9611164140154544 -0.8159678703688528
Ni 1.0543438301608512 3.308055268345568 12.622804906854666 0.21812570733527595 0.23984921505529663 0.6334905083648058
Ni 2.948221286263836 8.190051501328757 7.911567563742076 1.2417968041545002 0.6775283633113105 0.170148665235365
Ni 5.748757138905009 8.009779015169308 3.5842075225647214 -0.6779459104647033 -0.04241343196920438 0.5675306565342291
Ni 3.1821461895509846 8.240231004605683 3.526600905887243 0.0789925166448188 0.5355600171649034 -0.3975092609053476
Ni 3.644052846963328 4.512427153807949 9.494169847909895 -0.5874847310586528 -0.6749333488906247 -0.0012120180302301708
Ni 7.557151691877928 6.213334567336452 11.240573344409475 -1.571110639030533 -0.14496702376341483 0.8671996719606355
Ni 0.32476757897431413 9.273135744538136 13.69757785649676 0.9087877798150671 0.004222779832095954 -0.014442657787891255
Ni 4.760863550140851 0.44398970343575406 1.6533093517280568 -0.4040259789779429 -0.49856647065968973 -0.0495299884093276
Ni 6.196608066244144 5.807350026655069 0.2095197076334445 0.12851247775181737 -0.8454915908595826 0.7224596766063621
Ni 7.837072194354063 9.195200276233372 11.391474641566397 -0.24750647449023822 -0.6216153541937746 0.2351286696511757
Ni 0.2934010596779961 4.961481295394596 5.732365167834547 -0.3645353770824883 -0.6359076024467306 0.5749722004139388
Ni 7.976298667206337 8.955678603643403 2.4881823455129712 -0.3430478966326737 -0.4532533485451871 0.10766751598200812
P 8.644273995024033 1.6135194211732091 3.4802005891786396 -0.6664379098251039 1.6004926917370759 -0.262859817017857
P 1.9961506671415152 3.393319405248813 1.6296023849482877 -0.27854123230885575 -0.9680339670708942 -0.8608809288314594
P 4.574392687554824 0.862598878456563 8.299193971889446 0.27235361544090514 0.2548482595672901 -0.12155687236959065
P 8.561161059351189 1.7706573788464024 12.42919953069646 -0.7967321620676924 0.42762767755728287 0.3136265060477631
P 6.187994146063091 7.741598966865866 1.3191594362009835 1.6937422325215412 1.2687843884869374 0.38227444623346424
P 1.9443395324228872 3.3055394567371335 5.9801899302582955 -1.0432850143954098 -0.20468012335333138 0.8826386322235251
P 7.043497706563112 3.8265403411693337 6.140256620793047 -0.33299179794825234 0.5975248889034742 -0.4426637459547989
P 2.4985290765156307 8.521208877178116 10.370293036813681 -0.491183033711425 -0.4788142277334269 -1.044863157515807
