# total energy = -381177.56178842235 ev
CRYSTAL
PRIMVEC
9.18440122377875 0.00000000000000 0.00000000000000
0.00000000000000 9.18440122377875 0.00000000000000
0.00000000000000 0.00000000000000 13.44229956450469
PRIMCOORD
 96 1
Ni 8.43297943025191 2.1871549367081027 7.29041787645396 -0.5167691097106455 0.3149804489724962 -0.4714716713254267
Ni 1.6250879511087337 3.4804012874918127 11.435148946441405 -1.0898718610160132 0.7782790975688274 0.4607648264308839
Ni 0.7641091173031688 3.5718779236003413 4.287031427103381 -1.0404040933031888 0.7060940907641453 -1.5142890020557984
Ni 6.172661553459416 0.029351509405184197 8.845826530859425 0.9534514412710291 0.13202151934634035 -0.15114538465998487
Ni 8.434513225254934 9.056967648847634 8.61732046549266 0.8715119261827441 -0.11512782891479528 -0.14104326322897645
Ni 7.3116926234300434 6.8481834472765195 8.257887087035384 -0.30755278904985744 -0.25872548313450927 -0.09889362644412002
Ni 4.700319378969249 3.6857369454715685 2.9554640806872183 0.7416262222324841 0.454074816005218 1.2346457949320155
Ni 5.943942409984448 4.975327904571423 11.275790400947523 0.5533525652616341 -0.5915303618829361 0.5275659432158334
Ni 6.813484779483546 4.675594970896542 4.50405790939062 -1.0058371539615967 -0.6454793052955657 2.477953379304087
Ni 0.2776325090295048 8.293854120636247 3.710679942293209 -0.8044081905557116 0.6610630186664357 -0.6174576232716592
Ni 6.2867685541634675 2.4572589920610852 10.523035040427223 -0.5048083378043435 -0.5604817201072476 0.24725450638043225
Ni 0.015206613092860465 5.939772691832513 3.959160243423911 0.2040607446017776 -0.1944227072913813 0.014705681641290803
Ni 4.761386462652543 7.186362284440387 8.108126240811924 0.28853151075234823 1.7201587748418568 -1.25142198594909
Ni 1.650345054451952 7.359304559332314 5.312181432639863 -0.06121488094642361 -0.11545590167817534 -0.4774854816196745
Ni 5.886870540829991 0.12378460426505133 11.212961749111056 0.39967464398778263 -0.11567058879214275 0.37840339331383216
Ni 3.318333343639294 8.250053711238499 0.16931535485184027 0.14433967459206107 0.9187883426712047 1.332966065371169
Ni 8.65127427834704 3.3831568474198153 9.272027750834587 1.1432875576329924 -0.17756526941441034 0.9108994268414311
Ni 3.6780679704564463 3.5414775555763223 7.5306854860175685 0.255153963733167 -0.17444549283850602 -0.3182940867267615
Ni 7.199156155333879 0.26728444417975794 6.576980937538138 -0.4852404429747449 -0.18093984231359805 -0.8926049994076176
Ni 2.5895970291783326 6.854107386060656 11.129995379169008 0.894111408749815 1.5140925697742762 -1.9069658745695095
Ni 2.59193905148834 5.734556431068562 6.712989979821306 -0.6306224427883913 -1.0513204831053764 1.631477313044048
Ni 3.8994946993661355 0.22192727877594604 9.567274104515592 0.42606418972490495 -0.6131924202374021 0.5362441877161216
Ni 6.509949503705359 2.9920115684449153 1.6367751016557321 0.015609167292166666 -1.7922504506017845 0.7932241489144338
Ni 6.525379297747761 4.205748557904175 9.051224642767446 -1.143408913702205 0.2992134159462266 -0.26462513644839586
P 3.162180154169696 9.127595694196486 5.250710235303079 -0.18494459259761697 0.253366532815441 1.2517955672384247
Ni 6.998063690715785 7.056944886909737 4.288792995256555 1.02339110368496 0.4845958674122106 -0.16671315719125482
P 6.870694414656239 7.497979833288405 2.1081158167258964 1.623122770431766 0.6869275451380235 0.6971111705392445
Ni 5.109410977919657 6.120631920572386 3.289061738524686 0.0485686529373228 -0.19499400641381903 -1.901334387315345
P 0.49604124369971014 4.380490975434382 13.201064076711074 0.16182446164038583 -0.4231598715939164 -0.6138609070593364
P 7.758274948143003 3.135251489805217 3.4060232511265824 0.7369203321163825 -1.5611113617259758 0.6529825556511464
P 4.546967431870444 4.248694817988861 5.0673032536659655 0.7245073031640102 -0.86368548815979 1.5914444654918787
Ni 4.881839884596654 8.522316100877175 2.1544915322245313 0.7372815721105431 -2.0027181271711703 -1.1509813267328242
Ni 4.1584029696371605 1.7470567992534383 11.90030672261315 -1.7007659721375419 -0.7908397078426573 -1.3589205804534017
Ni 0.5254845971170515 0.40543528882643176 6.753438082775319 0.8466311037806644 -1.8958265701232382 0.10281533009602938
Ni 7.990373951265355 4.6977385622276335 7.345665723526976 0.7161540461033086 -0.07152011952717359 -0.791370897755779
Ni 1.970568387239095 4.713113249862741 9.49573404812602 0.05556591019076237 0.8990325002005162 -0.35880078859155623
Ni 7.306723862372341 5.169706571900831 2.372780869678932 -0.29258665465832834 1.3851697439579176 -0.5327012075598696
Ni 6.9994872729042195 0.388280664235718 2.7884172729356593 0.2001272138753263 0.698239627716733 0.3922402991969245
Ni 4.8298561737157035 1.378440856460689 0.6593316313540409 0.3441151615549235 0.39035773746223096 0.29616871558263186
Ni 3.6192602494722186 2.9128879519715247 9.925430851203885 -0.22149899468288303 -0.10848666944919383 -0.9400405671817617
Ni 6.176096519514093 7.262142778871257 10.098930619249606 -0.23031685008482913 -1.247249085518323 1.6408908930484645
Ni 8.701145576948376 7.900045365308791 10.624336230516201 -0.1879306718091344 -0.6963416393630718 0.2700635338551478
Ni 8.539380718335975 7.101241253973135 6.1213951443134125 0.17615013423443857 0.20577721307225208 0.1847882695254108
Ni 8.86371866286776 6.191691632778379 0.8066641218960657 0.24162790422227415 0.5231621577211829 -0.06614908502324737
Ni 5.4912891960679 5.121910947974246 7.1045641703329805 0.21766085188371545 0.5608198201729567 -1.004555973256328
Ni 2.824240111437437 5.174078346879512 4.1450543609102395 -1.424756248001288 -0.5773612694714056 -0.7008914635172833
Ni 4.28029834257214 6.417793221906868 5.278441616333811 1.4233709376179873 2.3596540946398457 2.524247120164304
Ni 1.6529901620020782 8.794918313360833 9.596619184839927 -0.8525379561834027 -1.968608587081971 -0.6000584539586052
Ni 2.484270316036505 8.280564292077107 7.319089740169181 0.5793667299372086 -0.7431105200874943 -0.004074941400322015
Ni 0.2541470766807982 1.5166293571523473 2.3696489888643733 -0.8938221596441703 -0.6691100573406283 0.01676050728779049
Ni 5.6480026340116565 6.469712641979308 0.8355720247225309 -0.4961226371048875 -0.809532142045838 -0.6274232191248033
Ni 2.1445209462647505 1.2215988368999122 3.5091392788957876 0.3219052011167875 -1.480623234372237 0.9601530216609205
Ni 1.7850067450767755 1.2789095004859783 11.133920792248606 0.5930563116091592 -0.5808055192662643 0.2653270476114269
Ni 1.5667945565925863 7.954995637782417 1.665716068326574 -0.2483431114589207 0.13457771010929082 0.7808538002745391
Ni 0.7875504645260398 5.838826938070581 11.59487027578331 -1.13959982436876 -1.2670887459520694 1.28848418090871
Ni 0.9180323341575911 7.9092756885305855 12.81586110532274 -0.3820782710622581 0.7477421053222348 -0.6025591088932719
P 3.5620138766946625 6.175820987477622 1.8318086167918195 -0.7137973729456739 0.4425668153656184 -0.18084162617283694
Ni 5.9786410777774215 8.584788397946474 0.009721688686835055 1.3145885913052455 0.6082918976119911 -0.11836356224327359
P 6.291287279561599 7.394159361945954 6.459186399745977 -0.8351287595680197 0.34900668531926987 -1.1605656279871497
Ni 3.909074029834127 1.9577102255370933 5.375911992675714 -0.08947876088812332 0.8904108199697761 0.16453697547554244
P 2.695089061542043 1.0988952366579507 1.1092286064657524 -1.118439645351377 -0.012663711510597545 1.0585918199558093
P 0.7193296507358252 1.5346767055412285 9.114980919126701 -0.1744696612082221 0.486628324461207 -0.5867357687077701
P 5.10342274832701 1.8666744406869193 8.738663855914574 -0.2152980080784937 1.6185253808690707 -1.2583097142078585
Ni 6.0921878300073145 2.8045395708297267 6.724013098160409 -0.31631665128541653 -0.3070115718344067 1.0105656697855177
Ni 7.26352962345483 6.627620052081108 12.333135406505576 0.3759744721573654 1.2315301321211694 -0.12176847415976448
Ni 4.77187504884089 4.409137122826199 0.6922586281525033 -0.6877117316022155 -0.5418065122952475 -0.40081441401918066
Ni 3.690788366140212 4.459311506667654 11.646905419311068 0.3325871063106659 0.6101796015530072 0.7401666069678221
Ni 4.357548341197524 5.464314609697343 9.465273981494098 0.20441709949993184 -1.571560582083758 0.8839761200880261
Ni 8.82112141002927 1.1479950455571666 4.797731893583494 -0.9540546220726667 0.9332304862384637 -1.1795784216442264
Ni 5.477530963046758 8.805553849968632 4.572035336548619 -1.2607892860966028 0.19787647016793664 1.0215561073587502
Ni 6.070237111101754 1.9806069377678726 4.509851429677494 2.088474444902384 0.814240603265101 -0.3538871533400228
Ni 8.367751812817897 1.1662444507727938 10.783076665808267 0.3540007960997516 -0.23394416242477128 -0.20666912875890214
Ni 7.26532976609311 4.445369585622197 0.06596328797139164 0.041502747229476916 0.5314470234377944 -1.2038982293365137
Ni 3.158240046048154 8.021913185040122 3.5066392848848698 -0.4478782002762029 -1.1884338151523275 -0.17264006419865105
Ni 8.188169215847008 3.3337355844780494 11.570902662370779 1.1589052095655914 2.3304389065284705 -0.002921544522169162
Ni 0.6499754818355914 1.9869992810140107 13.127776228770148 0.30778136012089574 -0.0999241245911634 0.6795070843042362
Ni 4.658594644246254 0.3358184460514284 7.079037964034142 0.300861750182927 -0.15011411518199308 -1.1132377894354633
Ni 0.45368554061319416 6.675718761247811 8.290646009291597 1.3148202477000777 -0.05367357826405595 0.2946247681342797
Ni 2.5549810209963004 5.984096612099556 13.295778214248141 -0.09432400479556659 -1.1142400054477326 0.9709477982835795
Ni 2.587539723306012 3.1986238581936557 2.4882499170832744 -1.145496135248537 0.28895599988427656 -0.5989755053070717
Ni 1.5445866744529857 5.432683531910419 2.129219733839368 0.04247565266570749 -0.33984121676991796 -0.20712395690813362
Ni 8.238316046484815 5.613708079872175 10.345718235236252 -1.5446092503058948 -0.8691930482415805 -1.9222120020953024
Ni 1.162230867441526 3.6335328089614407 7.537876872169473 0.14345778620774002 0.4806204277042303 -0.08378865248188151
Ni 8.535027312159727 8.845983584120212 1.1395086588338454 -0.24961220797933137 -0.713083891818417 -0.5147255969180554
Ni 9.01862277377202 3.605621413666881 1.6525024702975237 0.7134438462609971 0.7997596360401065 -0.1849998713155846
Ni 7.470986878115417 1.8590146500730125 13.1163508336578 -1.1560782816397575 -1.5890875352239278 0.832819651818869
Ni 4.463003635956372 1.2861927306500407 2.9443344232940136 -0.6746330440413866 1.5034993676394621 0.7434640467721713
Ni 4.62794629738941 6.984645280539624 12.118434414606154 1.9622255663737629 -1.5572490505570922 -0.2570720066914863
P 5.558831282608273 3.0318075789126118 12.595179231351647 1.5235344319134665 1.8664607153666115 0.5283005073890128
Ni 2.6439962375790165 1.3351639579322367 7.913373768353037 -1.2286751791708774 1.7102461437138352 -0.06384511948041909
P 0.47938625053513134 5.121075167463616 5.987939365568212 0.8338722614530993 0.13345953734444757 -0.3583765565699441
Ni 2.8657352361300408 3.055980922912375 0.10045163297652562 -0.5189512049636288 0.010815088337632986 -0.10192392863001157
P 8.058467101878671 8.943714797456643 12.41049561794555 -0.3456855913658369 -0.36939347650573806 0.5282519135392645
P 3.6744952383835323 8.797352179682997 11.663116805896928 -0.42735359796028977 1.0105026777580661 -1.5659388650216064
P 2.773514663523039 6.779217778547711 8.924718700422178 -1.6103143058131877 0.17727756297066244 -0.4461432198629671
Ni 1.5599613620880939 2.1947779897171467 5.747537663746854 0.9794913169782165 -0.6041575637286434 0.9719520711783776
