# total energy = -381170.7082492805 ev
CRYSTAL
PRIMVEC
9.19060745621772 0.00000000000000 0.00000000000000
0.00000000000000 9.19060745621772 0.00000000000000
0.00000000000000 0.00000000000000 13.45138301301358
PRIMCOORD
 96 1
Ni 4.812928095774665 6.695614832289484 6.31091806373146 -0.5091216204677167 0.37699082923702165 -0.5907798568701568
Ni 3.910474782755808 1.3508079047139046 11.078290156715987 -1.5526506325531324 -0.652465763915728 -1.177747539083075
Ni 5.586547474175999 2.3904402238749447 12.009892400183762 3.868195395578589 1.8089664778048848 -1.5320278140964583
Ni 2.2190905393971962 7.353873706530515 6.812291431430329 1.1526288896385763 0.43393562205318165 -0.7130229566734945
Ni 5.681210730457956 3.1015267094857513 4.804000339740462 -0.2849551062549996 -0.8801647167617357 -1.6379413235018374
Ni 7.166219884514496 4.467113110908528 2.1184984222776184 1.1282172935634311 -0.4907744854190967 0.3197416178065654
Ni 4.4158111403681515 2.763293975729578 8.979012970767311 -0.8893664378656618 1.7998665723861456 0.9907293517858811
Ni 0.919768417371789 3.134622086754812 2.9010997812968515 0.2990756048167817 1.6554772755030716 -0.8519975102989005
Ni 3.055592053670487 1.3500818467288296 5.224153552610152 0.9656004179287371 -0.05959997105081994 1.2691697968508142
Ni 1.8090240181556074 3.88138651031577 13.47734381785185 -0.5737234156085023 0.09555582032013867 0.14102732238937646
Ni 9.255493094301727 2.1413747631719313 4.751539433606185 -1.0078081616450385 -0.218719632165533 1.7187438967722013
Ni 4.642166610170901 7.441864581835706 8.878800425733601 0.6372337774573219 0.5339885589127256 -0.3425861265049068
Ni 8.710866890028669 4.377688500848 7.011439027068311 -0.2327920510981991 0.7617517893377656 -0.11217723092690357
Ni 5.778906887183899 7.773957989844661 3.4268071202246277 0.5777963001262952 -0.4724247792673154 1.0274642453130691
Ni 6.888213201089941 3.293766644597372 8.213521765555855 0.36174830125565444 1.0909383546073148 1.2582456937391426
Ni 8.602978349689455 5.311628834839865 12.790610603745503 1.3505963768584224 -0.07700993899715125 -0.15990050514479556
Ni 1.8074432336817727 1.5520638256908268 1.3315149816471974 2.832554527991999 -0.48193837518470545 0.2204870084786009
Ni 7.829239493391842 0.8933592069906042 13.009760637341937 -2.051214789219977 -0.01766964936562118 -0.8692853508450705
Ni 6.077491340590522 6.321961497590529 11.494569528564044 0.07047728008495605 -0.5161008799990273 -0.8342463569630665
Ni 3.0299318777928925 8.193150784240423 4.222711883464068 1.0395150058300162 -0.28107196915050947 1.76700067489606
Ni 0.03880366352893703 2.420695703455547 0.544022381366483 -2.409581061377276 -0.4624054473581004 -0.21428473632263098
Ni 3.020741270386877 6.558711544369482 10.302642411260146 -1.221686149447554 -0.5418918729202021 0.631955559777518
Ni 0.05485873560650508 1.9583805791107614 6.9946248108190066 1.0955118329106102 -0.2548472311260256 0.6735493240589044
Ni 7.87823462147331 8.935990818439013 4.443986785492773 -0.48159821823646737 -0.09279728373839503 -0.5261392380716358
P 6.469332887345982 8.40491156948242 6.041204065369351 -0.35600779922745135 -0.9713031247404692 0.14330943355533385
Ni 6.58187187503264 4.464751124805183 12.928689370352735 -0.9660609025049234 -0.37816916581583904 0.8026945502987143
P 7.318508249232169 2.7336266950229606 6.258349627490533 0.4691358241033985 -0.5423009354331628 -1.3033528704904263
Ni 7.111269242833931 6.436935996239779 5.090527635291133 -0.368423656393301 1.6626020594733106 2.4792119343015364
P 4.461185169131649 5.200753347093697 7.972203986896113 -1.9429880583003891 0.4589748244099967 0.5573231198736079
P 6.222611031531503 7.7351276735542465 12.876699942378387 -0.005350979899268204 2.5361294734241873 1.8206038049334965
P 4.064454219236188 2.103095883325878 1.9054288945410045 -0.23378192581529417 -1.2152254814238748 0.7081157491798644
Ni 5.499687043581749 5.3897214259687765 3.9308172731882824 -0.696568153551581 -0.22157458511582487 -0.7194553425623997
Ni 7.308858111455852 0.689852506259949 7.499508990546974 -2.268122307877436 -0.23154172363086573 -0.4642748964666714
Ni 2.1023238723037725 8.347488654409638 8.948169292312723 1.9257799219522185 1.4050945079063026 0.06371167922634834
Ni 2.2180060477232866 8.176258447828166 2.036485118029301 0.6729798247086797 -0.1860421965371699 -1.1969390244098612
Ni 2.8966772610130773 5.648924126640624 4.377066296726613 0.7390823727647078 1.6011056427307264 1.9643235865533715
Ni 2.336059399853552 4.466975251797439 9.068183001002692 1.7032015781622278 -0.03140653933573946 0.37234176050078455
Ni 0.15263301249539843 3.336888974546396 9.122996702632907 -1.3692353321158484 1.1400554238489398 -0.15062525049045672
Ni 4.263090817102396 8.96544671517529 6.857501867381999 0.1996052799335853 0.3728258992260547 0.8299107057021899
Ni 6.111855021681613 1.5000082253431564 2.912627560166217 -1.1560888231627189 0.3330599321820264 -0.31862575903456736
Ni 3.880145778315958 2.50305273642085 13.21813560281556 -3.4511796892091984 0.7568021586419741 1.0607273782415731
Ni 6.145961365765336 6.54268312505339 1.196470953605431 0.6487600329293666 -2.7558801179573957 0.5285331922251091
Ni 7.1969257038579935 7.955114052424627 9.865728287664107 0.019623944878514592 -0.14232675792709037 -0.47809046219352497
Ni 5.151749028404823 0.631510530446564 -0.020168787952500485 0.4727240556752891 -1.8598884614657325 1.558882472395457
Ni 8.277502179012831 5.7048214008840095 10.15684353443186 -0.8407710454554618 -0.8019245049019091 0.16602024488928827
Ni 4.3134737269021715 8.245831345891702 11.331565834671697 -0.7463863626252887 -1.4314508864126445 0.3805500073431898
Ni 0.5032482516096963 9.117128499804167 0.006126458896849772 0.7193748670334514 -1.1707243136877064 1.1776580646930621
Ni 2.0066496492071537 3.33927853247196 4.969572808402789 -0.19427795418340088 1.246035524826196 0.43352733087116946
Ni 8.411106038874074 7.536638125406535 12.229849369110443 -1.080742130800603 0.560948375331021 0.2202514954290271
Ni 9.120336021788866 6.717626337026891 1.0958319643880827 -0.5701115298875278 0.1618296038467084 1.0699537819358476
Ni 6.211058438022142 0.19301286519446706 11.408494894903008 1.0463220014495207 -0.07084006274101348 -0.12603059187022814
Ni 6.800112038495877 1.733523178315192 9.770707516754054 0.826867290890176 -0.12580690589519625 1.4948121242781096
Ni 8.300414363276026 1.6127402157853394 2.9028083152136297 0.491113099705438 -1.1660456772651142 -2.4557416190937387
Ni 0.39473842620983657 7.621384716297402 10.167147124394743 0.1066205627747325 0.5378264446015769 2.085717450982537
Ni 7.231169907052806 6.839548934875089 7.751883988976894 0.13095219754156154 0.23391510895904874 -0.9141351601699096
Ni 9.154028788539318 6.662271308620461 6.164217588316644 0.20166550489672364 -0.2450821813194618 -0.05494961676300214
P 5.02054391707655 0.7986803266760568 9.023537787406491 -0.1566550016243044 -2.2723188624572863 -0.46923943956079833
Ni 3.3191051492157566 5.286051374428924 12.686039872679862 1.1065372374868363 0.7864019837862779 0.45804948438224985
P 8.826172250544536 1.1612056739278098 8.98532232275154 0.2331589475193146 0.12730971569296784 0.21175348526034501
Ni 7.680930661680974 4.226328387478335 4.672055384516002 1.745640206942413 0.19994389421992662 -0.9330186273379737
P 0.25710080875809266 8.662450770213779 2.4308936014332616 -2.588973356698096 1.1684406598598522 -0.1650545385419093
P 3.931190411848967 5.643216759441489 1.609081434977005 0.6073948397190184 -0.13832560718749726 -0.18147874553620358
P 0.7870974041622557 5.273919772652984 4.601381451685227 -1.2366671962374185 -3.0883350695655714 1.454064252936786
Ni 1.0085588755213024 7.057200899464342 3.7372649193390823 -0.859052874483785 1.748000222534157 -0.2967922080992437
Ni 0.7955564392187522 8.782792583588144 5.500485707365332 0.7883331393707198 1.494327471332207 0.15929141080588696
Ni 0.8573963602108665 6.273389137449738 8.538682698398453 -0.5459259337802599 -1.138240225017072 -0.4691633349072243
Ni 1.3975697151957103 1.8629177399844807 12.060724730685692 0.4153000092298654 0.3628189086120138 1.5415776625684223
Ni 8.412190530547985 3.1250914268747745 11.862572477829781 -0.4203311438958697 -0.5819632870197913 -1.075119128186871
Ni 3.7227474358805406 3.8744659829390407 3.3498651931429486 0.10912687413635398 -1.7722840347821864 -0.8769762917314251
Ni 7.2885101066589355 8.479658779515542 1.4491042081034595 0.770008630029919 1.4767696649541018 0.17558963374527822
Ni 9.255401188227665 8.49756208274246 7.822114015469959 -0.19089875329852285 0.2255723934213083 -0.026019049771580996
Ni 2.7354004822523215 0.16813940531082736 13.106233524222139 2.1564359005440217 0.11245053919294827 1.5519749466423465
Ni 4.073764304538481 4.1226675265458885 6.130561583995817 -2.878945456551713 0.1461877835443934 -0.6784220787701736
Ni 5.1925277534653125 2.1784221016255785 6.889865672301542 -0.08064984974258368 -1.2330313992570443 -0.24731698418725148
Ni 6.097067334365335 4.753942777442859 6.628868046003299 2.512038236802938 0.561979901919329 -0.1689901261508896
Ni 6.006567423238303 5.479339038784831 9.3644220113993 1.0459119104952954 -0.06330904447129096 -1.616128855612436
Ni 1.077451668636793 4.821181261225266 11.070421158654959 0.5835401445886079 -0.036681671691749726 0.36864759947864895
Ni 4.485080748387289 4.635163367327518 10.858951715667732 0.022003500854284683 -0.7957636275068359 -0.3414101039189346
Ni 4.349997200733676 9.121503228929429 2.5732763294887313 -1.2798992674531764 2.5113610082302555 -0.9708233568905732
Ni 5.2732488583123445 0.6653898665273581 4.8168056130392625 0.26990541101072874 -1.0663591226060538 0.5343163745657895
Ni 1.7588892547557942 5.086633574933205 6.854354084345439 0.8757077094316466 -1.1758462082953038 -1.5505412995196135
Ni 2.3181377154118223 2.694493088688148 7.4582137533502655 0.5199323379299756 -0.08812456085307403 -0.4992580974100756
Ni 8.949243674318486 0.5734323250657318 10.97669166808545 -0.18658624196609802 -0.32261893935436053 0.26614054465165776
Ni 1.976228738693243 5.429921142762687 2.2334545397120578 -1.4022284992124172 -0.3705972670058521 -0.9486254806372952
Ni 1.7189009219322218 1.9734439846492204 9.865324819998982 1.3873191862007526 -1.0907732897843603 -1.444464267953177
Ni 1.8659506404284658 6.8891965960823836 0.031663480635203765 0.8323720227584891 0.4110633454406985 -1.4118683362950266
Ni 7.75892215612842 6.580943623684632 3.0461330805282163 0.881730518586959 -0.1723482439898451 -1.0353346492000814
Ni 4.23026196744811 7.583142598880972 0.8575185952893666 -1.2362573623935098 0.7218986618965696 -1.6079028681582177
P 2.1831460738322708 0.5568910698563856 7.080781240885956 -0.6432216196096405 -0.7482378140117307 -0.01225799143174663
Ni 1.6880388622628226 0.92878440323709 3.5270196652583365 -0.7921129181281261 -0.5330207956828175 -0.4123077593707609
P 9.230310830009245 4.346045239549089 1.231497277490496 -0.48204404752463437 2.217030374297627 0.9944970463584291
Ni 6.666379510130949 2.343485410637613 0.8067248653385419 0.8221068933870551 0.12901332864763587 0.3109852117701741
P 2.8202481698246546 3.403134872728954 11.200832201503353 -0.8461590492402523 -0.27905750982364197 0.3543643500867574
P 2.0754045832115535 8.490172834388025 11.444786765427882 -0.9475227344914198 -1.3009725431837078 -2.2302921244035394
P 6.613248608716776 3.9503344470756967 10.828161342736099 0.8592197390789525 -0.12569891956242224 -0.7525752650448201
Ni 5.061754600685123 3.869815535591597 1.3014047136636102 -0.061957929760035224 1.4760790666449806 -0.151809500606545
