# total energy = -340869.7686199237 ev
CRYSTAL
PRIMVEC
9.21756770143307 0.00000000000000 0.00000000000000

0.00000000000000 9.21756770143307 0.00000000000000

0.00000000000000 0.00000000000000 13.49084205706986

PRIMCOORD
 96 1
Ni 5.91394515423813 4.52156707591185 7.3909976501890196 -0.42171568294822215 -0.1750409603306598 0.6322756621210981
Ni 0.9803251629670463 1.8652300682377685 7.517893135276731 -2.4452283782672404 -0.45979243521528557 0.4892199964477833
Ni 8.058863870010633 5.255294658300287 4.740075041604083 0.254915879580432 0.2344506697475446 -0.21812365045274693
Ni 4.9620469691242 6.209017921758872 9.404263694340091 -1.1257701175745194 -1.8989481464713556 -1.147647377263585
Ni 9.185453392437228 3.0811562538785053 3.5446920484215947 -0.28043125024271703 1.4031962624423255 -1.1048799043890716
Ni 7.267904411652674 0.8043544272996404 9.696070677731988 -1.3926830216158272 -0.04394580945333077 -0.9746159911637859
Ni 5.0095174412200345 6.512589286419879 6.737960652796103 0.04175934332497324 0.9090307490638085 -0.08868403290096985
Ni 8.638519813354048 0.6826180146841696 3.8024613206856697 -0.11971107741010352 0.22840754887725823 -0.7285925289769775
Ni 3.059780715084284 0.8903451135485786 5.724797905976356 0.19384498041104037 -0.15398902475636705 0.7909764905308379
Ni 1.8370519647043775 2.9453907036844216 9.54962749746493 -0.4427087402601214 -1.6035458767411028 0.40249360149381647
Ni 5.699111310910441 2.703982613550463 11.559412066410061 -1.7076858391858267 -1.1028520753257651 1.0360324465980544
Ni 0.29392978916348395 6.769547412752996 6.479705614730193 -0.14026576163300358 1.8737911875897533 0.7632070337270533
Ni 5.724809888813972 4.512552294997341 5.039139937564574 -1.9958543101718014 2.9090988402066413 -0.24846523885908176
Ni 3.1670086766164847 8.023744938227113 9.151660868602173 1.924298709421002 -0.28607996388806217 0.569686012314335
Ni 6.27195547194729 6.729948743214415 2.688198451139414 -1.0931947547416592 0.7416447341752452 0.9874596798956735
Ni 1.5617600968181315 6.412514157187944 1.163681935389868 -1.0190572521962966 -1.4105359906368482 1.730716495753045
Ni 2.239997923475128 0.5498352692998353 10.48470454383562 0.9726971768745185 0.34128926207035415 -1.2451590357585138
Ni 4.935491157452725 4.87549401126403 2.3917375179686453 -0.6357854750465696 -0.13650089527393267 -0.17745779730226857
Ni 0.7292100526070453 3.6310671072309977 1.1012467426246002 0.5467674558449487 -0.14319296258212758 1.0100933581347895
Ni 2.2498422854553906 7.8227097932931065 13.091108145405324 0.22988773296721055 1.6809849328558726 -1.595044267027995
Ni 5.458440626168263 -0.008647921732099243 2.2584883636740103 -1.2041113737885842 0.6165482240835124 0.6830184398916044
Ni 3.9649366159267627 0.4305424338013753 12.371101833844431 0.30921886389837067 0.5375269110832872 0.9972283292466634
Ni 6.983072361510275 2.983053684069582 4.555237006100523 2.2718115838035646 -1.9387107710812739 0.03104607067252718
Ni 8.68207281930605 4.705411457649987 7.381972729950374 0.8497994742063171 0.09935796767504824 0.04236818055356574
P 2.9894045880062863 4.3069452366342995 1.1740406376308967 -0.7149569404714139 -0.352366088709806 1.0622055054489965
P 5.7738750000695305 1.3210801945085564 7.955818840563303 -0.00793622412794117 0.3544998472233572 0.6537713701010289
P 6.55326641134394 4.571258981750422 10.31052385975676 -0.5289491967166052 0.13672689524180967 0.7426374371058178
P 3.3983972709896326 2.432285596949145 11.41425012801122 0.7816516135854861 -0.7994181935402878 -0.7572186773541024
P 2.7292018779493374 6.348415193507472 11.47630832226994 0.0775329013801568 -0.24966645825603453 -0.6774964816321106
P 0.1793545046589361 3.01667015236735 5.664521467495524 -0.5126244914146526 -0.09696067108746527 1.0566727485562255
P 0.5245745258476737 6.256165778995803 8.7401499462059 -0.23646667173630886 -0.17731638662839785 -0.6720197747882555
P 0.8846486568970785 8.60175093700642 4.544740962105275 -0.12163580523664211 -0.12739199099412898 0.2619439900718069
Ni 2.7024801500647118 4.713467611555182 3.3159544264318956 -0.2880882525673426 -1.7495901927290967 -1.0538874725016043
Ni 4.640648829116914 3.6247162032942932 13.532798305216932 0.5453713468283704 0.39809932908086276 -1.111349571273815
Ni 3.4444298025714954 5.076962381865706 5.462118435559766 1.5766367110550847 0.18937331779293193 0.7897220492984464
Ni 1.6892021836524995 8.965301012721328 7.756410596274912 0.09278751354638215 -0.9775277654939425 -0.9948649712208093
Ni 1.6627016773854078 1.5924177259813823 4.040034902782372 1.015716617858838 -0.34641218511921634 0.6855800299711935
Ni 7.173442780965664 8.53878573411581 1.0665831586705048 1.3166210483542422 -0.4176692807929903 -1.3920515586794155
Ni 6.616240831801948 8.377708743848881 7.487214305708467 -0.3753926315119664 0.18073903915670164 0.593929458242732
Ni 7.14178965452351 3.7442772700040132 13.481290538601105 0.4501286868732764 0.17259404145206406 -0.8239490888021165
Ni 1.5576214090567666 1.5111279991050415 12.414434539935641 -0.3733861426048989 0.3069809757067874 1.0061906806462735
Ni 4.756725655350474 0.661428670751373 10.125740207900845 0.5455680362202088 -0.04826423432302656 -0.3758387179104495
Ni 4.533190428399782 7.525894905534283 11.239948693799455 -0.05175270709225926 0.8714705314218474 0.9543302443315563
Ni 5.694788271801132 2.8091919278226665 1.8201976427185071 1.84431220429403 -2.1109196612797776 0.036152538661157085
Ni 2.553127905527082 5.021481843701663 9.753177194784906 -0.7137258962777902 2.134554784200214 -0.02955843038340716
Ni 6.829830303531007 0.8973486212570085 5.942108509663685 -2.4507320816942895 1.541838886649609 -0.7284205221754875
Ni 2.479746851477581 7.67716440409054 5.505234528817139 1.2985701043898021 0.024389741698274126 2.1857899282261064
Ni 4.8044818720356215 2.491019936404417 6.290940895515405 1.9074160747330506 0.5290885505079468 1.6352694330966289
Ni 4.30436431776307 4.579121566740275 11.296178620192897 0.033207597100220226 0.26493598282059533 -0.4901589633222848
Ni 2.7235422915674263 6.294621470177127 7.532827437973755 -2.0243485609567524 1.3535976255785913 0.03896763951244902
Ni 4.8012741585813785 8.392733378706398 5.2445377571476985 1.3337615646892709 1.6726445313109775 -0.6341517960978885
Ni 2.066108514526021 3.885619448473433 12.305806429915798 0.4383581766009096 1.3130873241693708 0.15969276000936367
Ni 7.959940936703354 6.806178025589666 10.954496301371224 0.8833233169953755 -0.49083362079180626 0.029522692049465286
Ni 8.865861895639803 0.326993203417417 6.395158399535664 1.517825297343831 -1.3569349174819407 -0.664570774709378
Ni 1.221659512561826 7.523655036656752 10.293255668994753 -0.9511356486536586 -0.05074612020461583 1.3720555751734629
Ni 1.6779106635908692 6.667647205176406 3.7290572227176755 -1.3805366160612804 0.9486668753981919 -1.5085628982052988
P 0.20236892693638803 5.30665494383776 2.878122740332776 0.021981389367097627 0.15381161863823833 -0.19600136463241083
P 7.294395700352369 6.638952917868769 6.332614439475108 -0.21817430118502423 -1.535720432456697 0.20935978821718781
P 3.5928602903694 2.9307716417923837 4.77536634189793 -1.9040787828297017 0.9402930495121999 -1.6199446298141005
P 6.915811772212548 6.034870420922643 0.8105716765090849 0.29960473784737435 -0.5044090454833958 -0.6525292701638116
P 4.499776746584753 6.637754634107127 4.176076979998374 -0.4905369154869939 -1.6830091623747532 -0.9083866877219064
P 6.585242152644998 1.152610715189032 3.662965420965919 -1.3458825163225208 -0.529518438956514 -0.3267116213664954
P 3.3801372699756818 9.020606417104823 1.0781272400788195 0.40008473494200775 0.6147844473148703 0.28942625465247573
P 6.414514369313148 1.0703807964381715 -0.03782613132809173 -0.7091452188856432 0.8777653632916238 -0.44557012096831644
Ni 3.149218771539794 1.9815096809540675 0.7915696613196557 -1.6430853295966217 -0.33613908532798237 -0.8312533357730136
Ni 7.203676402028641 6.134447801515127 8.702725700816329 1.0301081106938195 0.12383872642523189 -0.37452822662914204
Ni 0.2627310887940144 8.880812789958142 1.1669348149243572 1.6619520845941378 -0.029874418961929196 0.6130579515420668
Ni 1.2607604334609575 4.954700567908593 5.504910992201496 -1.7793116310529293 -0.34577583708679804 -1.4435741520387395
Ni 8.042991218952569 1.8243685919657624 1.2775354843672113 0.3832810331211076 0.11487200415024733 1.0609875738814953
Ni 2.2341632033126695 3.483171238342134 7.000087069168857 1.6912094387973584 0.447328755530636 -0.42255309124785295
Ni 3.33591138160368 8.982685344832541 3.433311572776933 -1.1140906243540618 -0.10115902543952901 0.11554923272293002
Ni 5.1228474323692135 7.7574401985531845 0.26586229643886 0.11040779773130663 0.0642004459373088 -0.9814211870110775
Ni 7.141891047764879 8.10544945563633 4.772627802624208 0.4299164735914596 -0.311226895467335 -0.39371816929403164
Ni 7.777414667103023 2.410255610869719 11.170133916575951 2.694155387254089 1.0907257243758763 -0.20837891236115724
Ni 7.430972396477411 4.318614676959217 2.2636280792547163 0.5609028668050662 1.0485287792928524 0.7523441228706205
Ni 0.04628509292854736 5.37374039935494 12.999046769268558 -1.1917163425583412 1.158176816039999 0.13762292469351783
Ni 3.6218034519967626 5.779755808068975 13.310846656345086 0.7924798145492415 0.890062692601738 0.22414671671837527
Ni 3.8059796661612 7.120220546813947 2.021602412105143 -0.8048198241718333 -1.3366185745220918 1.1302276391252406
Ni 0.2487286821608531 4.803357328813157 10.655984459454565 -0.6195690131877072 -0.561928222745787 -0.9006224703954553
Ni 8.579149461748365 0.5804993507602644 12.739563951225334 0.7257512028734404 0.7786850747579943 -0.9955689392663692
Ni 7.405246165871688 2.83524999085469 7.309108781431858 0.3619030816659638 -2.0718260377124254 -0.41080032158729896
Ni 3.4288889839397334 1.4064993915788653 8.134154804024844 0.09012719310539961 -0.09276540205919508 0.23360092015273964
Ni 6.0508168125198845 5.935412868706324 12.326770865204102 0.5736897341570895 -0.5453659475117317 -0.1680107929567558
Ni 8.760071874621573 8.615485112428322 8.719346818347047 1.0288588116677506 -1.8685901030047882 0.00040674852011542855
Ni 5.037087185305206 3.152076217432941 9.267385583761158 -0.2792662834003384 -0.02629595758205149 -0.48473599253450067
Ni 8.347023461983438 7.498813692521165 2.727146360419751 2.5307000748785 -1.0338755481560518 1.1629282146820552
Ni 3.9403625812456964 2.031220021927433 2.8784868342449674 -0.5519981081162687 -0.18962811411621536 1.8720320388068017
Ni 6.859796615139464 8.613512553005311 11.950146591892937 -2.3474783785092606 -0.17743774269761056 -0.624641028393976
P 6.214954035162702 7.884863850252758 9.749534412149513 1.0709691105742394 1.1238469324098774 1.1039879887024213
P 3.679698992818885 4.576909350564935 8.019900290865719 2.904207316442295 -1.1884502702125597 -0.2136851550654191
P 8.73022539138928 2.822640358655253 9.080941848016998 0.9705482488523156 0.5282048623514128 0.009533393411731969
P 1.098872297263069 1.5181978732987313 2.0160847762611493 -0.49063101786269697 0.8295836613800746 -0.8075256531387706
P 9.245773153484828 3.21175996633013 12.563994179739709 -0.713003673399785 -0.18427173490030846 -0.28754035048367255
P 9.355001327142231 0.4675168619019612 10.615093486966888 -0.5618624025048582 -0.35301374959613396 0.20577361352782625
P 4.053664919692684 8.575158255065357 7.210895600814167 -1.1775323377484752 -0.32225872780146436 0.8115286036505766
P 9.28098426094232 7.651889834287283 12.83148982912136 -0.8885753094229342 -0.7190143983702392 -0.22229912198667523
