# total energy = -381174.25598148 ev
CRYSTAL
PRIMVEC
9.20011097174507 0.00000000000000 0.00000000000000
0.00000000000000 9.20011097174507 0.00000000000000
0.00000000000000 0.00000000000000 13.46529236861675
PRIMCOORD
 96 1
Ni 9.243903427381701 1.7384621556804345 0.3153678414906934 0.7666929353931248 -0.5198287224725757 -1.0522154841158202
Ni 6.473225629220955 8.938956551506871 7.43138681903792 -0.4348447641310124 -0.030572987690850574 -0.8114422145843573
Ni 2.592177246488645 1.8305000651190335 1.479135869722956 0.12075340263168881 -0.28768047560596255 2.2426529599617373
Ni 0.6559881473783346 7.081601362672197 5.755388816309641 0.5708581782455653 0.9342275600444103 -0.7248862837699839
Ni 7.278474535810599 4.768757883314174 10.489543242508613 0.6632703107303997 0.6613221858650933 0.6075784164847342
Ni 0.3038815030326676 7.7629707760000715 2.7914222082169386 0.5478606889091274 -0.8193072191547309 0.044257684266794745
Ni 8.560123584998156 8.839429751796079 4.525495910998312 -1.1782609883843838 0.19901109799301211 0.9796900632525837
Ni 2.2834031244796233 0.3730184964202307 9.358109004032645 0.015050723685535368 0.6910654785657969 1.6011974311135844
Ni 4.554910505566193 2.6056094084019152 0.39459643652391824 0.36426309725770817 0.45572726400697644 1.2085349567775767
Ni 5.35679217156662 0.17862751320251366 1.9827103798847225 -0.5041653049037059 0.33085058323553346 -1.0586974922957382
Ni 7.213365350974836 1.8211987529996387 8.376677973717573 0.677169437309995 0.9345816009497194 -0.10613436716693335
Ni 3.710229923661292 8.47337573932677 10.96280798731198 -0.9228735684841719 -1.662100951467176 0.38781877309046114
Ni 1.311374607503842 9.371048960012793 11.638994978170164 0.3473534659865631 -0.5643185773548346 -0.2585192806609741
Ni 0.2342762240003198 3.900396215953959 11.783490999946622 -0.1563107309110082 -1.857804325243194 -0.7518612696969309
Ni 7.150418192200457 1.2987796556824263 5.617706396665353 0.784230687166572 0.289220823509889 2.0816180841021827
Ni 1.651061102135184 3.7411330961727125 0.7491254700694238 -0.4110525468074211 2.2577108827361245 1.1109518216147642
Ni 6.061750669240814 2.570032579553548 10.423159842313272 0.3573380880031007 0.3222214468056257 -0.7353673858069658
Ni 6.962211523529384 7.040154863069949 8.90160870131035 0.468231052900942 -1.5958153408660645 0.30429751533735333
Ni 6.86732157971194 4.510032364598432 8.11616487345406 0.6177576710105812 0.1948993898174837 0.06649309862622742
Ni 3.925659720483986 8.10882134493408 8.238886992764671 0.4147204825773116 -0.07854643024633569 0.033238964558787915
Ni 4.034046226990996 4.648043228201833 5.670423032119488 -1.60440745341045 -0.08269850474149629 1.005485427049133
Ni 2.069417745068151 6.4317331290642095 1.6228508020840466 0.2732373035974391 -1.021963112989182 -0.994882454722306
Ni 0.5005513537201908 4.829671817579763 5.450508181233287 0.8644223663258145 -0.18686237844562012 0.4912624807991088
Ni 1.3411185660419258 4.308871939780863 8.110913450152626 0.10699362984343509 -2.047092539521487 -0.21553660645186104
P 7.636975257231418 2.351851949571904 12.184864238159113 0.0158639636154501 0.1498148387740194 -0.6609097809180231
Ni 5.643311225309752 3.8140899756057483 4.263771156129334 -0.06849804487139817 -1.0347090998009407 -1.4769532417198177
P 6.653492602185759 8.328262390108955 0.6653823806178141 0.6620914599309501 -0.49233385948641667 -0.6689190243757448
Ni 3.879732766873681 3.6143463678667023 8.024775571833876 -0.8727036324980002 0.3742369206409684 -0.5366997871963015
P 0.5859789834774988 5.830469081338282 13.559953293686354 0.24007855745728332 -0.7213242774503384 -0.12313604393125245
P 1.7171178983935944 0.19136782677614136 0.25275188670869586 -2.2716269785965846 -0.22672861851293852 -0.5451998542475126
P 4.139341496235775 1.208977373192406 10.625408640250253 -0.009305850781958168 2.8537471029092143 -0.781497604506125
Ni 3.703164238490476 2.282161109508191 5.015080732526298 0.6282760540434018 -0.8002057224385897 0.1717509767254784
Ni 5.162789433028863 6.15972265020959 7.518574430010302 -0.2834756934959956 -0.3129071113832353 -0.5971443656356038
Ni 2.5961240940645305 8.577254191493026 1.9194099368518023 -0.4711533687540595 0.22949666817637895 -0.3231874102633208
Ni 6.279986499887855 4.13131899953141 12.846764376801467 -0.983219416562081 -0.4991758221089146 -0.4269118824371809
Ni 2.7035077884834955 6.018602149122159 7.2176930831419615 -0.8163458225335619 -0.10958504471969514 1.31108572035831
Ni 0.6635579986264433 4.9143220379660635 2.7213762438725047 -1.079850215113953 -1.0037730723437166 -0.24679762134867173
Ni 5.824452208810008 8.64302578431355 4.653564214752622 -0.07503610310023205 -0.013088714863158105 0.7684310011301541
Ni 8.991194781194233 8.44004373753788 9.248420681833354 1.107656181582628 -0.4784241913838599 0.09619628211761497
Ni 2.0707701613703775 7.16657358693998 12.375451895530977 -0.0819603410238911 1.325420391813427 0.7658383007023133
Ni 4.114353995032732 6.97315045538889 2.7582705286016798 0.7985422186932376 2.1116933062210084 0.6250796585932912
Ni 8.121167893761209 5.9472920895401336 1.7726249274835482 -0.5344449297238537 0.726714081007342 -1.9346548558443457
Ni 0.5274763982786678 5.414909272118763 10.075875896101124 -1.466956535518422 0.22149796624161852 0.056899798510837485
Ni 2.2477250944113623 5.002302698497983 12.117511146274962 -0.897392650604248 -1.8162861513947492 -0.4505135810165209
Ni 6.87580408196128 -0.096653605076878 9.757826222283224 -1.7664422312894286 1.3373179145819614 1.3044926405218242
Ni 6.752752598680466 7.494060734518585 2.831306528988451 -0.1714846104379692 0.8545130776319024 -0.47849463961047917
Ni 3.8358390377721667 4.883152062238557 0.34392406571165174 0.5960603885428056 0.016637351446364895 1.2087388452582666
Ni 2.2378349751944 2.327471655688229 12.638173022410372 -0.4095188837717141 -0.5083068378759052 -1.6766397685132997
Ni 6.7311599383993395 1.4713645360461483 3.4749876880165242 -0.9079313453520429 1.0717404415226253 -0.43433157194001976
Ni 6.863420732690552 2.1178103283995218 0.7312662147913142 -0.43763286839911075 -0.050484896123429185 0.2714979523088292
Ni 8.058864742749794 9.68596875610268 1.9678043602053525 0.6549173107800139 -1.646892104937222 0.13068403148183944
Ni 2.8570392391743527 1.1762893791664821 7.274529528256893 -0.015926441422269344 1.385686021472704 -1.3882846354378153
Ni 3.6742390898224473 0.526956592012846 13.273021154963835 1.6230119558855147 -1.25838401908922 -1.0412908667835161
Ni 8.240723334900212 3.237371823759686 4.500841453809831 0.10963338145912732 -0.6490040306193725 -0.08244602241105801
Ni 7.128153923823667 6.333715147540936 12.9885804062729 0.5496486340474857 -0.5812392643695731 1.0959584335297252
Ni 2.267652534619679 9.06229323822557 5.046535911691689 -0.9244547969283626 -1.7158226093603481 2.543599042328355
P 8.738145730903483 8.836182112648556 6.777364735358809 -0.6661381191964978 0.3530451170547017 -0.018135276148130056
Ni 2.8656229426435864 5.144941217883832 9.80096922233534 -0.25010174602124025 -0.5642828390208927 0.02606712940069704
P 1.7180471095944438 6.218078953645119 3.9611123478352095 0.9851179191363744 0.8062298171454825 0.41964543068275467
Ni 5.755350175843863 1.0094269677822492 12.12288309102918 0.2116017901738291 -0.016084564266688427 0.6486777576282055
P 5.092804189416365 7.028663924556473 10.020829792567234 -0.25924741707625026 -0.5478388345322566 -0.9653016557413957
P 4.602116274591528 2.184492732199098 2.828842739289565 -0.10566848327410834 0.038770950120610645 -0.17552612749719448
P 6.948282555627541 4.9243041582920215 5.645431850872086 0.26988792750923196 -1.0680704488702057 1.7957499791146103
Ni 4.7886945236333895 1.4310772504172373 8.44373482203076 1.0637150001149875 -0.3422433984535074 0.7864930008381874
Ni 5.446428852060449 6.167340342034376 4.653833778001978 1.3255049811074333 0.4467584848494629 -0.9172006864691107
Ni 3.7501676050760215 0.10048453125542983 3.6211130494332844 1.973505767273272 1.5310574797633891 -0.027182216841746733
Ni 1.0660444502577728 0.8701179685309292 3.4507371156965325 -0.3507632629990604 0.2580235719714782 -2.762052051096062
Ni 5.717381318161626 5.4004650980065465 1.9828447015038553 0.19835263847340676 0.037518051550116026 -0.44753495800417115
Ni 7.971491289537242 5.882486508364055 4.050023139579068 0.23386214423392623 0.29502123224175 0.6352810246063253
Ni 9.151451512952624 1.5270252069881236 10.31348440026924 -1.3744263893984845 -0.5479653328077917 0.7223216083666012
Ni 9.030470054624198 5.967017127308661 7.709553092095395 0.034148363746934744 0.46946723930088824 0.5486626159851326
Ni 4.2780515682675375 7.401921623860091 0.2920621205600798 -0.23125350296648559 -0.5856795595291139 0.8703862972187333
Ni 7.380273762913567 6.974153267476936 6.4224189367895566 -0.46510973366314096 -0.08994644455316121 -0.9398047970218719
Ni 3.550175594342689 4.883428065565542 2.919786755542213 -0.34982866699993304 -2.0490769169413676 0.548493694507436
Ni 5.808867220946255 3.1027834014108997 6.538597937228443 0.12378190504536749 -0.5866583785026155 0.25362801400694385
Ni 4.415013619228395 5.7222021762729645 11.75798737252212 0.8776234383971208 1.1397828869138436 -0.10814779805253631
Ni 0.5668418327954488 1.3675136842125915 7.98091956318705 -1.0957969682511965 0.5957102042922386 -0.2256770373199726
Ni 8.517784674638657 4.06782903421396 0.32513743925487254 -1.3563474204095867 0.12788615702172815 1.4898228985936341
Ni 1.8485322824820536 7.203585633088669 9.856539732190502 0.7445968748250338 1.4272826139675678 -0.4879100193871081
Ni 7.246743353318224 3.7507288118408915 2.52012381794594 0.9687428202124606 -0.15868360201855897 -1.3577209037183455
Ni 1.6087773924410815 8.484655075289558 7.470584811536329 -0.48514608348872573 -2.015855950104709 -0.4720756234580128
Ni 9.147412664267744 7.908304927879475 0.3163237330131515 -0.23121390797780184 0.6493436733469784 0.14206373407369083
Ni 3.638597860197784 7.132910381158708 5.548064317189406 -0.5306741498275118 1.3332990232305553 -0.6014147108761835
Ni 5.051385290146816 4.764167027975323 9.669157393456024 0.8909656640319816 0.21531369180777757 -0.15185680890471265
Ni 8.524086750604814 3.293004894368963 6.880670020616025 0.10100553058080024 -0.28082848568113566 0.27161673727488056
Ni 8.032340823026535 9.10256212363268 11.846440918754274 0.1403801757236808 0.343412479060944 0.5751843164247449
Ni 1.119561495360165 1.6801334525776042 5.504154027888273 -1.767012759080918 1.0378363325760125 1.8147553165725197
Ni 1.9545175600442946 2.6897812230214417 10.012414451127462 1.0724626644006303 0.7016193428222434 0.16775831062631752
P 0.16578783843117134 2.5713941959666746 2.3457347958348262 -0.14783277534698414 0.6920324704647566 0.4587195138660809
Ni 4.040633506395038 3.319988819637197 11.646764471824794 0.4930792222928734 0.006292003656298841 -1.1324030495100046
P 8.061284371916361 7.0425192915711206 11.217517657620089 0.30326624585936157 -0.26380726853279085 -2.2537228446226543
Ni 1.8326528910695163 3.41231193251368 3.8884130715073595 0.2213221027853866 -1.241094635881153 0.0533979560051661
P 2.117589525737934 3.4388634525696373 6.161030905979499 0.6504847289299571 0.6472726497505628 0.8256807267812426
P 4.562666199054472 9.613471882214618 6.191906478158221 0.43665122121213185 -0.29806336150218343 0.08631373289658038
P 8.713866638239702 3.3458963319301893 9.430767799872536 -0.07463603944833598 1.6889167861084398 -1.5354849194071232
Ni 5.6847301245793 7.822789897068621 12.012575601366354 1.232431046668884 0.5582003802722386 -0.4933435316978535
