# total energy = -340894.8454784839 ev
CRYSTAL
PRIMVEC
9.01491725889833 0.00000000000000 0.00000000000000
0.00000000000000 9.01491725889833 0.00000000000000
0.00000000000000 0.00000000000000 13.19424265020385
PRIMCOORD
 96 1
Ni 6.26126580404016 1.9104052352676566 11.334883852803468 1.3379221238248635 0.271063692984888 1.111021241400119
Ni 4.675379565257738 0.3932324998745835 5.915361620503914 -0.49058345245421314 0.17891921233914349 0.14395195223533916
Ni 2.6238548130452553 1.4875064452204632 4.682399481435389 0.3508766486484731 0.4740702852905384 0.43646507334325474
Ni 3.3624109357756677 4.241644844498415 4.904353058210877 -0.24629805600443386 -0.18973352934582807 -0.684045338494222
Ni 5.072495691547285 4.598536409359073 2.9179728035899615 0.0790537089000574 -0.5375325675102419 -0.9000989937918177
Ni 7.100464464599373 5.865844482221395 2.4695266391292034 0.6057431630482083 -0.036134026718395836 0.400341331037504
Ni 4.87544762706664 4.5926586832157215 11.300683960671515 0.49949438179059785 0.8778864622505202 0.5174255123477218
Ni 5.80799575727985 7.821396423817127 12.469193046312883 -0.9343597147469005 0.5031006110846175 -0.47302693162768855
Ni 2.00482748009199 6.284172709147915 0.41649098676085233 -0.5893798911988365 1.3690173025677714 -0.09228409154740234
Ni 2.8780844985800105 1.5281637226844447 0.4669087152914089 -0.9864399803819075 0.23664382074412152 -0.30614716695158245
Ni 0.6481220773628561 8.88855530061397 4.487612358238106 -0.5715166377651705 -0.39313504309705194 0.3217964434530652
Ni 8.544095306844847 2.218408903080161 1.3968217851492486 0.3666089717820654 0.7843715836198105 0.36048691804472754
Ni 6.966592941242361 0.5780815781325548 4.8734120587182215 -0.35063805027510575 -0.13550896367430856 -0.8731060101427416
Ni 0.7435251452000677 7.205884908648995 2.3431789658323767 -0.24893009431064225 0.2921626797470323 0.3639136843380894
Ni 7.549416365926146 3.7909620790312677 3.94476197878781 0.20376686751044262 -0.287807230991814 -0.5471065843519223
Ni 7.468209990006957 3.8929929141393265 12.565352465719767 0.49037005089182645 -0.6827531020453597 0.3932414867679292
Ni 7.947343834781494 8.998140636501367 7.027887167613336 -0.1307061429690265 -0.9208529385097173 -0.09085070153498548
Ni 6.820713547911507 0.8860239445067546 0.4788345495169302 -0.21743613746741905 -1.2599891587928107 -0.7708414103438596
Ni 1.5425515308512996 6.824103156853071 9.21317075671536 0.645559780824514 -0.5911030445375304 -1.3004120426945474
Ni 9.129046252034508 4.793556117425219 1.1965436757649792 -0.13128849783505778 -0.24372900972567701 0.8766549038362644
Ni 6.158450671118494 2.119262841539392 6.814760096462013 1.3143178541423624 0.008921470859345925 1.3842958259933964
Ni 3.602315917565352 4.499137930131166 0.6815169373711871 -0.6364976706222458 -0.8487327235046995 -0.4105658369789897
Ni 5.997254933128815 5.53256298602552 4.942853967433311 -0.03364674152016786 1.2362455353189676 -0.409440722235611
Ni 5.210450972485491 3.0847965545110743 9.411163584539292 0.43494375160272186 -1.1059232580519212 -0.5583399911738965
P 0.14137644209066338 5.509845394183118 12.330745550884757 0.9204613594982535 0.35403062089642257 -0.2364327331745799
P 4.047806090611379 6.263023712932727 12.484247056875432 -0.18070587192592105 -0.418966145227543 0.2977633137632614
P 2.3707429772678243 8.425404904385694 1.4631228966429515 1.5137873798290316 -1.1763349750062644 -0.501402140336272
P 6.434198964481747 7.691915165232833 5.874498802923264 -0.05718724784426925 0.007863976129109038 -0.7208149419140877
P 4.725998326446265 0.8719732942505768 12.685156210477547 1.1636306400657186 -0.8092079259372 -0.0343926185472569
P 4.011899674616027 6.15700828433485 7.997716488725061 -0.014752989939458462 1.1436662811286495 0.7952560917427981
P 4.648424962238381 1.1602288840115078 3.841661974476375 0.2038290882069457 -0.6927883747941745 0.2213778957239865
P 0.04240346696393135 5.461444302674444 3.464266881486209 1.3335355647213938 -0.9202618418929377 -0.0710300672646325
Ni 1.5765197396061295 1.060686166105236 2.464288972121094 -0.6846384919935306 0.899030186207671 0.6941716282949464
Ni 1.789479133293854 6.5063273185813735 4.81168962377085 0.42023395619637305 -1.2158541161468093 -1.086298027621826
Ni 5.776939366844503 5.385015832976077 9.148623948147264 0.8452393656394604 1.64882814561767 -0.2291562541178247
Ni 8.43020985535871 2.288680184195846 10.164884601316247 0.5604961182849508 0.9112876634187855 0.3546479427654473
Ni 2.443781838024627 5.180052671020182 6.931964840534012 -1.3367921239854785 0.547050020082374 0.12266321805989197
Ni 0.49895945111573126 9.190347690339404 9.022276274850439 0.6306648659905526 0.12048317968943767 0.6137994576937815
Ni 1.3970507640511522 1.1044265453192579 11.4174668066093 1.2973925391419332 0.12021064275434136 -1.3696935026991897
Ni 4.0955400782326175 6.752632891723482 1.7845741167377225 0.45500786934244863 0.761664886050914 -0.5078777207582866
Ni 5.776155069030896 8.06991966663909 7.925781955349486 -0.7972679799665044 -0.6407081091591675 0.27162316503278383
Ni 5.405128113690521 3.105224357334441 4.82553022645166 -0.2587473375113802 -1.2790001526776749 -0.19936205357452763
Ni 0.6859486707639353 7.399876916131794 6.595959937792268 -0.6918697196346472 -0.4453160959759814 1.7195532800473743
Ni 4.954679736075716 4.517474272118248 6.9732234129884265 0.7900326385603297 0.2997970563638386 -0.3182822596522196
Ni 8.04078345360947 7.345832486332112 9.1090412488371 0.4449134612209241 -0.971094608274089 -0.9809249641009492
Ni 4.642934877543134 0.29402243242028986 10.38422565502986 -0.7097779673736357 -0.13215624515199176 0.14022230998957785
Ni 8.096594807219116 7.010180066860619 4.497627029975298 -0.4516340677742093 0.9731242371096079 0.9654438377462147
Ni 7.264211424212625 6.01780894479575 7.073776703134989 0.4583649587401396 1.1845013128671407 -0.07649391859268116
Ni 2.3892415877680664 5.275673899858419 2.6334520941069304 -1.344731176326897 -0.953629618720106 0.5382527335057182
Ni 2.356832959723052 5.445352675119409 11.417294621687002 0.01481572485659384 -1.0877964665442232 -0.4693265999579659
Ni 0.9732685120989767 3.218641033115894 3.730553117548754 0.1291321136136873 0.6320884858109566 -0.0035604636577487065
Ni 3.6696122759397696 2.740084143054815 2.6557369699142392 -0.4919772474779462 -0.2934873120957268 0.1568131244687235
Ni 1.1603911525246677 3.557430643841813 8.271760962700133 0.7458672568970252 -2.1342251687749374 -0.27646326673390453
Ni 3.58775682596794 2.700184118652247 7.053892499830709 -0.7214271215767898 -0.3079466820541664 -0.6738172330083104
Ni 4.247459466219983 7.008304964041882 5.956171250071918 -0.4024059268760167 -0.22492910341035455 0.07401408959362092
Ni 0.8826803116439185 7.472149508909785 11.384903121985044 -0.370225228378414 -0.20007373492957156 0.34430825140233606
P 0.3125904577844945 5.443919303253163 7.913234091823518 0.4108969950661633 2.893964041447732 0.11239474625434837
P 8.409520619930808 1.787802358657867 7.989840155394622 0.3531510465049466 0.6972772638034637 0.35349557432855894
P 2.0378851821896444 3.2117085616370025 10.649178584809274 -0.01291799361324872 0.2825873773537714 -0.3959167196072471
P 3.9466677323257007 6.097726187527058 3.934484071462603 -0.21620740726664056 0.856645293483557 0.26938321995867154
P 6.9623469151480055 4.066322730946417 10.446212227056987 -0.10379337773858255 -0.785216448118609 -0.26933436899860713
P 6.223808822252389 7.730715369712872 10.145990235942245 -0.7840741069840497 -0.26554404871823944 -0.2355233339864331
P 2.4287720005573257 8.469361641617262 5.734270861309077 0.03309729677460106 0.24047605000601813 1.4673375730069245
P 6.73810985979566 3.8088026005614717 1.6827145650602218 0.8633301617029003 -0.12104445150954637 -0.6642391024015721
Ni 5.148284102110409 2.715806970502597 0.6597278820207564 0.4550803744515969 0.4191193829759556 -0.27343039344485165
Ni 1.4409624266957322 1.0462803281035857 6.870216262326188 0.3384371373335397 0.4105511816909704 0.6239802548815254
Ni 6.7171772215980186 0.84683970454557 9.243186825683004 0.02071434972921594 0.24099592706523013 -1.1272508158851038
Ni 2.7805430923360457 1.7194332251131141 9.11524261051503 -0.6362176774879817 -0.4707268227396022 1.1828912880675433
Ni 6.354299751585235 1.8347340186307028 2.749350576647992 0.7598203766430075 0.30192053046474454 -0.24563779671261568
Ni 4.072425830024713 6.8752537981680675 10.145937047929596 -0.08296641369090228 0.501883965068697 0.019214882365554003
Ni 8.197525822404646 7.125670173643562 0.2769725191458711 -0.5763449123917493 -0.06539112381130029 0.14079900842865428
Ni 7.765206443676774 4.029145211597977 8.259463713877823 -0.7086736785658634 -1.7653785659116048 0.9645524362801968
Ni 3.100374331774436 8.279570585641828 12.318593442232553 0.39933011616417036 0.09183569115607411 0.090431868830012
Ni 0.3957116021589726 4.811315504698842 10.19593017385072 -0.9288475266794196 -0.28008492264689183 0.4899414479948401
Ni 8.628294635340099 2.0459264885084627 5.74338764727345 0.0889452569821565 1.597481415714578 -0.23815125852758334
Ni 4.012629882925247 2.541242110012012 11.659633631174088 -2.3046545984755147 0.4582250907281657 -0.9798211895138094
Ni 1.0095174949554446 3.1204144931496978 12.7105151731175 0.20257876073961242 0.8133402029380186 -0.31664472404879657
Ni 3.266023438958618 8.488229863730814 7.906557643998723 -0.10831080599296186 -0.4289191426751968 0.15716690826371643
Ni 5.538539876260247 7.8536337684315844 3.6564811472581655 -0.1257418569852157 -0.13119490967998698 0.338619685657991
Ni 2.99874015303188 8.220387652925412 3.701301513576441 1.162303950834495 0.26874995725004686 -1.3786573967606965
Ni 3.3715881216866057 4.469325598296712 9.251407528858039 -1.0883891058228996 -0.045002018631987016 -0.06880040660316539
Ni 7.2414667876180285 6.123797328641434 11.249015863097886 0.32516150327055615 -0.6484576711975993 0.33367648272010275
Ni 0.7448250962888274 -0.08610778650836215 0.19090710274927852 -0.44149080869262036 -0.15336296113659392 0.5625491441592375
Ni 4.550982720085791 0.2636737130006681 1.7041285998469051 0.11028747010335845 -0.467815305519762 0.22165994574077955
Ni 5.8045250140817055 5.447372016616511 0.336645863368727 0.6749220360367151 0.43447966748210987 0.20565122901734906
Ni 7.865145817948547 8.722221059707556 11.095672118161673 0.7479066559245571 0.6729829100324732 1.2870721310525317
Ni 0.11652321631672749 4.789129792982909 5.617145448510177 0.1958023612477273 0.06962007429098332 0.8696471050598636
Ni 7.683747650070446 8.55719398182382 2.5457234254504475 0.7111668773013623 0.736039472173326 0.07919794778740555
P 8.607875847434132 1.4724244884139794 3.5247497652913857 -1.346774946229803 0.1890563007731454 -0.17892152633198866
P 1.7654453635113763 3.2355440032367286 1.6865143527433857 0.47137602628782693 -0.08690508662367614 -1.4243548987978114
P 4.734066677517277 1.27880209254449 8.266773910395681 0.3095615919497701 -1.0372264669061555 -0.7223095241817431
P 8.528517529581485 1.4303879285881378 12.335588364510846 -1.4615086250299734 0.8342846664001696 0.6557711741398771
P 6.249167784892341 7.4827600666869705 1.3716999148368592 -0.5489685772613255 0.8677419176173508 0.18542564599909356
P 1.7197397323046384 3.2141155445822087 5.915375142880011 -0.1280440227558311 -0.8795108852278208 0.41493568391191116
P 7.020817669389999 4.080160629152006 6.203061891353142 -0.5513039102627214 -1.194495190855059 -1.3595337885573684
P 2.4826902215134394 8.621848969400688 10.054475301978695 -0.6528406307566434 0.24769905011701857 0.40482147829604476
