# total energy = -381164.52457318344 ev
CRYSTAL
PRIMVEC
9.31486161965295 0.00000000000000 0.00000000000000

0.00000000000000 9.31486161965295 0.00000000000000

0.00000000000000 0.00000000000000 13.63324154100877

PRIMCOORD
 96 1
Ni 5.392988039291107 6.235209861554563 0.5367670246034175 -0.6294639037039159 -0.0005481591939861528 -0.6831390246298686
Ni 0.40637945784407575 5.253544564288798 4.991606936068691 2.8124711269785623 0.097603961098419 -0.12663068734807223
Ni 0.2632808312324859 0.1294421083282974 4.873297950073244 1.256187011437901 -1.255959468808127 -0.8784364212167194
Ni 2.199173570054814 7.0196422837569425 10.648065829764633 1.7881438846325786 0.9160472895909578 -1.5024099912300253
Ni 1.7377805408437612 4.280318531442008 0.002555997965306218 -0.9481146024391478 0.5107532425338688 -1.2522105432886563
Ni 2.2593755192157983 2.6246950680545176 9.15960221144421 0.2087851466606404 1.0322141012932289 -0.17176563201349773
Ni 8.523116801206706 4.311430168483271 13.372341423504668 -0.0019823205373514247 -0.6934059537735154 -0.6685703827870743
Ni 8.721271847547666 1.913756902216083 2.9077522815032633 0.20597313113314206 -0.901441366752325 -0.7019702984037588
Ni 8.39591305407033 2.1032398126033245 5.111606569406351 -0.545122721152674 0.771842083694232 0.6060167284245692
Ni 4.714577369425156 3.076158455024257 1.3111263556990824 -0.4870163039282451 0.9358594392208787 -0.27501059344777795
Ni 3.2510915519209433 4.067287651461857 3.7550031974309643 0.06790591981335402 -0.1411641050775569 1.4970073321572153
Ni 7.454003585215376 4.637142926693412 7.566503823648269 -1.1412612712315828 -0.550931100304335 0.6451566318488244
Ni 6.982513246257997 3.0420008583085942 2.0358384070743183 0.1495955236743617 -1.590437878604235 -1.5059331738919355
Ni 4.77806746465667 7.486475192019522 11.56903176427121 -0.4969988690622537 0.4028674398934675 0.3924045926889307
Ni 0.7536542571988621 1.0432085864668534 12.632806633200161 0.13018395191696933 -0.06355175660971635 1.6313119911107776
Ni 8.186719896982694 1.1176343289697568 11.250805360159893 -0.0033095239892072035 -0.43617865245108756 -0.913166368498737
Ni 2.0973435053437077 6.8842321437363285 7.453538773632035 0.31581322928643674 -0.6907394626849458 1.0229964393497029
Ni 0.6942105377549912 4.828423605328846 9.426350034085903 2.417586448180256 -0.4631469535098153 1.0258087119875172
Ni 0.06684903424860279 7.957350750125187 10.336546125853825 -0.6657113160717245 0.7565597036138647 -0.10030413363840145
Ni 7.5055240835612524 1.4576826588584915 -0.26048171538491116 0.3867679632284436 0.2132688934636069 1.5124704607898212
Ni 3.686076949092481 1.9525998742107147 5.182363188007891 -0.9059541670210138 0.6883239112649178 0.7042117861397679
Ni 0.49920857199441165 2.447898998879911 0.8535580085745991 -1.9994983346822919 -0.7361040068626743 -0.969563516341543
Ni 9.7879631995777 6.061878920816889 11.625828200108156 -1.1118383379847754 -2.2329948680466836 1.161748078331025
Ni 0.447304301359283 4.537110630230498 2.102599881625859 -0.04773612973369843 0.12371505636317404 0.14539639799134962
P 2.4968299657594795 2.2354176957217473 -0.35011396910633635 0.0853066317883047 -0.7583692460187779 1.7402630017908995
Ni 5.382313208138626 5.347186865838445 5.14301721349822 0.9233145126763325 -1.7041503152287425 1.6217960812005423
P 7.624391029753937 9.268883233780855 6.022797488370683 1.7682512594737094 0.8612244282138072 5.801063848946473
Ni 3.135829457086034 6.548803985096835 12.881163193514231 -0.4996370780160491 -0.8647591808399431 -0.9295412103123347
P 2.567930302746296 4.905541342773343 11.092945472704201 -0.23525722480924 -0.2445440494278047 -0.006324399556131044
P 4.288934778227388 3.8851634815723997 6.533103786224665 -0.09380335640540619 -0.2631961173113532 -0.5349465519506206
P 6.632218568840702 6.264449211456517 3.7573756926268955 1.0317050228672942 1.0604281018335995 -1.7356021059801203
Ni 8.322744817855023 6.745300986110445 0.020347383219442065 0.8842877377911738 1.2066629365658443 0.3583048227917442
Ni 6.893817136106226 8.135544048508233 10.074720275970394 1.022019420148414 0.9674428704541146 0.4964404254556224
Ni 3.305155007426181 5.393770487647834 8.9733310652641 0.22635040923791339 -0.4491071875872975 -0.2038170040220877
Ni 9.09394082202278 2.47936460065398 9.220733783771875 -0.598172549789802 -0.0898022056658131 -2.052435549000956
Ni 2.7512840343391805 0.045587863126840975 11.300089360286124 2.1248303578235985 -1.3418052609293536 0.3239230028777647
Ni 5.500444280281532 7.66041159874752 5.556786150882667 0.5659944223953607 -1.144778797466538 1.9154561714287077
Ni 1.3448610577076574 9.062559054001216 8.604497950709225 2.1239734091399423 -0.14867763984578267 0.1051645470544963
Ni 3.3619197727344035 8.368890641179101 6.276921810857193 0.39390380294227645 1.2203599744369629 -0.5908567328546792
Ni 7.101361562727901 8.814373887136716 4.305145431503708 0.5631240428261012 -1.8314417760892652 -6.20709863082433
Ni 5.009420676990163 1.5103488851552898 13.13774105049076 0.6542912471602409 0.26298040175612125 0.7128203537443853
Ni 5.034421764959848 4.3359375687993085 10.624289646067679 -0.8239064084896391 0.15479043761173986 -0.05933694719742038
Ni 7.511345871929753 1.801904046649767 7.158173833829211 -0.5063815958287343 0.05250295499472248 2.157831238229652
Ni 1.2690008265507555 8.000664855586827 12.879595502342362 -0.5531265652937571 0.3650611676789713 -0.20168735927359457
Ni 5.402181807482643 0.3582905544341272 11.01128301438772 -0.49186231916663675 1.085729813823182 0.4536534121970832
Ni 3.5036640184999452 7.390094321221331 1.2449712786240048 -0.19265430253704888 1.1394566139226763 0.5187324040846034
Ni 6.82106806865345 1.5914720129973152 9.569321978582595 -0.8341311715414408 1.3132989259595447 -0.4107039052187507
Ni 8.807965262500673 8.822766577248746 1.9078494171227987 -1.0840539687826556 1.4016533434352376 0.30294382952293636
Ni 5.644461352226137 2.4909522882226423 3.7734084320506747 -0.45404601964981156 -0.7522523344877625 0.289952559469591
Ni 8.954515976743249 6.649590785332306 3.141739736637735 -0.8200469255342329 -0.008600597184817446 -0.08914297481525937
Ni 3.9586763676591223 8.567408967114256 9.288885967128882 -2.7784770294213055 -2.258003731386195 1.4027108381654745
Ni 3.418321258448431 9.212556266957945 13.493691711743821 0.09841462992517244 0.19684031559393841 -0.47328635593666235
Ni 2.224696290262318 2.865540124144013 2.1083806846042448 1.4811536529544105 -1.3006195307196633 -0.011533968781528523
Ni 9.159741002878913 3.450494789688109 11.170123756747733 -0.29917073563374924 0.5389093932531106 1.8284469551269993
Ni 8.466314776452927 0.20547186996248987 8.54576588667552 -0.8343062636667246 -0.5953476787464973 0.6895737245116188
Ni 3.4521435201540682 6.1657955144792655 5.097346448105013 -3.5701142934645933 0.6141092756247166 0.4585752749787328
P 0.878172529796617 7.417861923023729 1.249224444334496 -0.07264266316739103 -1.05410293094652 -0.041199357056445174
Ni 7.328346105069673 5.124319492230877 1.5027237396217632 0.17606888737454193 1.6168819317283767 0.921131903202717
P 7.05670611722616 4.0863272281422 9.748094661344075 0.40893910000884415 -0.3077373942568377 0.5564957388763061
Ni 6.517217290124702 3.3866973040307395 5.833827826846009 -1.2095299737009944 0.23088043589778298 -0.21059674594808245
P 8.391227678791362 8.565993108183035 12.237878865948462 -0.6651454162659255 -0.7643604306052062 0.5389554159996977
P -0.11385368779280192 3.2200637486321866 7.123299924272687 0.6963616939677297 0.34469854486221924 -0.8219063473404749
P 2.43651623826182 0.9019794525361564 3.7132036884312734 0.060214464706367266 -0.021898085624671965 -0.6754815080846109
Ni 6.7218368502700425 6.226938264640599 11.970613137013503 0.3435297213650987 -0.6456307432717656 -0.46390157228765266
Ni 7.998988180536698 4.275707675054155 3.8763255410859476 -0.8500061909004846 -0.501926131160542 -0.3037614403282253
Ni 6.274406798282 8.661535641456162 13.487569984838576 0.06780667523132838 -0.3377740498282441 -0.7580028638182945
Ni 1.8379153007819604 0.14412978176741853 1.6651227590326039 0.04355988686882175 0.9227686674751913 0.12763161780876084
Ni 3.9644608965820636 4.297560339874157 12.855819318645409 0.7353067077723595 0.6937934190199212 0.808558465278659
Ni 8.096775595404718 6.001574508180619 9.521809665092661 -0.6691540232046862 0.27970131405522797 0.6308839239798941
Ni 5.603345554052443 6.3539929739947425 9.677787950547652 -0.4748382738048144 -0.23143836528378206 -1.8803446724375552
Ni 5.487999625465027 0.1658399292081591 8.24359830359987 2.754383478807211 0.327122740761985 0.32762282032685514
Ni 6.8019353433592125 7.514568813970555 1.906581664487674 -0.7731939697364361 0.672294625716197 1.3021285111650218
Ni 7.260030911638347 7.2657781811157305 7.60770345557447 -1.654700031017415 0.2737471533543221 0.38177899465428444
Ni 1.417535606269316 1.420954160399299 6.699061082686332 -3.7513824656518873 0.46752682774506577 -1.4239062412961672
Ni 0.2037644558697762 5.457791529978554 7.345426766399782 0.4595376388920021 0.4933895544444406 -0.8898490339290352
Ni 4.395683089752202 7.357287379407159 3.30297998729171 1.2879375643766207 -0.7251598491463447 0.05858001442673782
Ni 2.937907282279815 5.14360125530735 1.7178020261353473 0.929293870188219 0.8723835301544202 0.40761472477046573
Ni 3.1925383332259183 1.006014344938181 7.581786716730186 3.7276504121422707 -0.1573304304247742 1.8157968704631564
Ni 1.982295652320759 7.43131258287031 3.016041271101918 0.14327189544917907 -0.41618061206260576 2.321443130787763
Ni 1.1949290487806572 2.6123528767132975 4.314416513044777 0.7901647932628199 0.4687442450919347 0.15748006862876104
Ni 5.285280297043164 4.737324260938559 2.9303287110532366 0.14822538279971248 0.4409033116202664 -1.1640577003008081
Ni 0.035893886878684333 7.935078916542653 7.09848792798921 -0.02838960688628659 0.019141863035773487 -1.5231364251440995
Ni 3.6522733171096227 2.505082932950665 11.531581364054324 -0.5205236916570712 -0.4659777380903911 -1.5325926854609928
Ni 1.13549091825362 1.0518062035294542 10.473056351004553 -1.5858654287422043 1.0772487729353641 -1.603484170265232
Ni 7.718033331303586 6.0474408856630095 5.572450953281558 -0.3265930935107601 0.6257563729453416 0.47782820967107387
Ni 2.054485828090159 3.6919453117679284 6.860138323265989 0.5336568866049196 0.8702178899616692 -0.17649543338899928
Ni 5.485680224979017 0.9247514941753113 6.272108821977186 0.496139606385752 1.0630593688088597 -0.7017311858097592
Ni 4.238206043099627 0.8850059121120274 2.029116803095583 0.08937026033471704 -0.5078666650146931 0.3083616581043979
P 1.3913235863189817 7.454366864809571 5.388225350662605 0.2734337358789613 -0.9105659547614126 -0.7620693205781843
Ni 5.485885151929588 3.2539325846447715 8.441676036591295 -1.118507522474835 -0.4203424567497793 -0.9568365556931779
P 6.442102247878968 0.5731825437199194 2.3677800130956848 0.3727083998115839 0.4164084118026957 -0.311964802074624
Ni 6.5489064485721205 3.0404452764565306 11.820224699878413 0.6942189365931141 -0.4461085099702897 -0.2119126365460286
P 4.131541565327318 1.6485255390086146 9.654038779948728 0.686222805761515 -1.0627816896674405 -1.2766779323024011
P 6.153648935227227 4.387439437422407 13.410310661500954 0.23498597342572433 -0.32311747625733384 0.42548183485887364
P 4.582613728118694 6.988390923794834 7.652638346917899 -0.16009025255809847 0.33158566162934505 0.37052887566176185
Ni 4.956083780673313 0.09015854338993763 4.30777687984627 -2.3256042041439886 1.4135966318400428 -2.5151513285106235
