# total energy = -340897.084566525 ev
CRYSTAL
PRIMVEC
9.00388640401337 0.00000000000000 0.00000000000000

0.00000000000000 9.00388640401337 0.00000000000000

0.00000000000000 0.00000000000000 13.17809787906658

PRIMCOORD
 96 1
Ni 6.2654532339289455 1.9725263626255587 11.344127641934662 1.0232059842573475 0.09630529689165349 0.2280085136666267
Ni 4.6777439623099095 0.330382296390407 5.95610491601956 -0.17613830715989665 -0.11939997392758793 0.16977585527697858
Ni 2.751452555165726 1.6990693357658038 4.76751901014207 0.03301296459091088 -0.785976209102769 0.2249805254735803
Ni 3.7794982702489666 4.439258029333243 5.248665077723673 -0.6426621475617448 0.19545551943126985 -0.9650553440585444
Ni 4.979392156766974 4.421682443530002 2.8347673146711316 1.268847894735021 0.540397804873179 -0.35578719857621305
Ni 7.136669259708469 6.039050516192008 2.684483450612781 0.9791904979083458 -0.5933946687851845 -0.8345895992350981
Ni 5.135294445795214 4.31721935618922 11.660547612041725 0.37259244305900996 0.42309970777994227 -0.8649944367792006
Ni 5.524874592585503 7.866146109404681 12.361754059942333 -0.6723542753095388 0.08055111938119029 0.7465092613563982
Ni 1.967088015379064 6.319737663646027 0.2813642396939797 -0.18825565924872095 0.004949116475159218 0.15709106072045848
Ni 2.5695380389932425 1.4140693268365017 0.3790428988058975 0.5724363213659625 0.2454907296117901 -0.5968589731847012
Ni 0.661026605868352 0.06563022667951139 4.485890056194702 0.36327502231282593 -0.6171606608565307 1.587876545634962
Ni 8.58980644863527 2.2488106097425975 1.3470516012982408 0.470800356290015 0.7257635441686145 0.017095264919389914
Ni 6.883101817397567 0.7416329964139143 4.779247472266713 -0.5610383639416661 -0.3725273941490294 0.0326614947887631
Ni 0.880174892518368 7.271916633863432 2.402894113764559 -0.18441314557417915 -0.32859109777739537 0.38589095994012895
Ni 7.554971803380081 3.821519407002925 3.798375817992346 0.5046162763981954 -0.2596158561592625 -0.15015345306036076
Ni 7.554017391446093 3.9293949672020205 12.581748711892299 0.537326622147023 -0.6677897958673079 -0.10189590360555353
Ni 8.0499514416728 8.789800768236498 6.779274404420366 -0.22499852319570926 0.7313919460989855 0.5362711842993151
Ni 6.713351551440339 0.6735203983174185 0.4018749533550057 0.3872395035482234 0.16595879552373352 -0.4493061909719811
Ni 1.8700531341282791 6.622997553727467 9.265612933651173 -0.8499339429016523 -1.367381052515929 -1.3838499967052298
Ni 0.11813999043254574 4.778389401914741 1.5121864752048835 -0.14060077637491913 -0.35014594113003567 -0.21762717043230265
Ni 6.359660894922447 2.205168773478094 7.230123295429567 -0.20361440109297838 -1.063813987586697 -1.3367031638160978
Ni 3.535907133814084 4.3143201048425786 0.6293104168356075 0.07745628250595046 -0.30827244082470134 -1.149583417944033
Ni 6.062352573599175 5.694885971241653 4.822603885339637 -0.3465237709964161 0.3408858559843484 0.5336064929829585
Ni 5.023052000803817 2.830263570809051 9.337050666910137 0.8461153404865105 -0.2988313500164595 0.4027095741593645
P 0.18791560630458393 5.423058647778611 12.448887367572304 0.3663066100502982 0.2644682991555574 -0.6063967374718073
P 3.8923979989307513 5.970747035708715 12.362478872778992 0.49188905863951415 0.9269960752929778 0.6813035140830266
P 2.377584189741551 8.349852882212945 1.1511423448522031 0.096690191034898 0.14768108026046825 1.4708404439538605
P 6.39539731912996 7.758567677449185 5.866150690852622 -0.5326595556886569 -0.26355298643013964 -1.1051868941065288
P 4.619839970352612 1.269710019877809 12.646097685569863 0.19561158539315987 -1.396253512575905 0.5282727394748707
P 4.105132817462095 5.989313048990622 8.19751433133067 -0.5941888825517057 2.1773032309113343 -0.5512244631750377
P 4.634462281492194 1.0962411489324981 3.8792631297864024 1.3796662976411853 -1.115368719735537 -1.4754553170180527
P 0.23701379758792146 5.44012101207018 3.6496478254641183 0.3464409814746227 1.1095842518432761 -0.1913738931627285
Ni 1.6240309484275797 0.9479921631484981 2.614481837197883 -0.4345321179866 0.8564344630243315 -1.4479463129645063
Ni 2.032654314466771 6.526565932850052 4.655163116184935 -0.7983357591093864 -0.55034900254862 0.22327588407764776
Ni 5.950407256851378 5.65885241879054 9.302919635606681 -0.13672972345528708 -0.4994419312861076 0.34648726133152585
Ni 8.534963777975669 2.2576884415059153 10.083432312889947 -0.0564241444259996 1.0737978382722861 -0.15504626237628782
Ni 2.3399209338937244 5.250238056637518 6.9550707799405425 -0.5499170572175238 0.4871654279115997 1.0255721704966787
Ni 0.4200141824324698 -0.025627761204798028 8.870783521223954 0.26739318611183627 -0.2810912524242191 0.818033751758946
Ni 1.3316927722699778 1.1459966239062234 11.189522812903473 0.2618573438952716 -0.19077868278089077 0.9655451392107695
Ni 4.149269867465931 6.8273497542348265 1.74899678496537 -0.7362801274292223 -0.25840846611472273 -0.3645225215666819
Ni 5.6061526730393245 7.83329092877147 7.840190606743306 -0.7749312641425171 0.387460618420094 1.5913657897351432
Ni 5.379317768766241 2.860723717721123 4.9236671052627425 0.1492628229252913 -0.7068132283183569 -0.404706035764103
Ni 0.9055388398583941 7.411215756794757 6.748003007364404 -0.25982437262564284 -0.40472043394180623 0.2989051406771885
Ni 5.130900549344403 4.352298496706345 7.217788871765704 0.46761141703907205 0.46989352820502944 0.15587287204264125
Ni 7.917423241141083 7.072489559090895 9.229913425376958 0.7934298371673367 0.6041740187888757 -0.15230546640635706
Ni 4.443813995735107 0.5388240619960407 10.544981422223213 -0.1523615164552731 -0.9084067423265645 -0.7352869102780175
Ni 8.096663603121169 7.326336121873059 4.585740452650749 0.4578026584787664 -0.6442202360774841 0.06823424968705022
Ni 7.10025754403823 6.066080182473428 7.147958332188031 0.9500853530122734 -0.279275539371719 -1.1761308294152581
Ni 2.4227206711102234 5.127271983218018 2.498593718696378 -0.40122167675992837 0.07185796248256657 1.3011417217717205
Ni 2.271212278532795 5.159388845185313 11.158422489684737 -0.27150103763262273 -0.05130996312788583 1.057570063559514
Ni 1.148967906342222 3.240903807350253 3.6497270596624114 -0.7446243856288596 0.40188604981680465 0.25970353077706243
Ni 3.7961014363458814 2.554735650130267 2.5009923539719843 -0.9136201682067039 -0.6900568347956244 -0.3391801861471514
Ni 1.066303227418268 3.2590646457545245 7.944969730488644 0.036520463523537106 0.9035548135509018 0.45677884519994233
Ni 3.6745309652826825 2.497299860253793 7.045089833087903 -0.6501669405792222 0.6988407516358416 -0.6193952066140043
Ni 4.013248159100375 6.875097362592709 6.140993415793893 0.7349135860989988 -0.11269016600758011 -0.538774153226827
Ni 0.5246447420560078 7.3139467745035605 11.33193818083813 0.8533763929242981 -0.28655330398005485 0.01153319745058014
P 0.2644495391355939 5.624106422061693 7.955353912408151 -0.08936948900376866 0.1185373688169765 0.5838031684420074
P 8.418210386013255 1.7305919412458997 7.9142646778727554 -0.0011084025728303492 -0.7431220900517203 -0.26822468087419615
P 1.7295204787917065 3.2091290930574057 10.25416760399414 -0.9454699657274492 0.0004651125618766183 -0.4192597652085618
P 4.066344075843055 6.07598445726009 3.859100727486608 -0.23566680154283287 1.0103548393262922 -0.43295243220430596
P 6.815581675011036 3.8358175782403983 10.258687554851328 0.27401634785530876 0.566076954806838 0.28084931161674215
P 6.181735100323138 7.856674021154164 10.356811906328643 0.25003978243505326 -0.3794081804292627 -1.1586360150646047
P 2.5260042493627752 8.511310569007884 5.726305032030797 -0.4586673204719068 0.4741651589971899 -0.33863022718095226
P 6.915848951396741 4.06561476106331 1.605118285528139 0.2533765601177701 0.008852565294623464 0.6238771536447577
Ni 5.5149973294573496 2.9844101020342 0.45100105668546925 -0.6375813906047277 -0.4156692196438261 0.23363074494941058
Ni 1.395773430139685 1.117148172618526 6.922560448147631 0.08370174919503004 -0.38695591086953357 -1.0026811248311183
Ni 6.788957183607254 0.6586234686496609 9.116080894087993 -0.31940068952737893 -0.38678287562677904 0.45061616803265614
Ni 2.6101095500738802 1.5745996133559637 9.055158799486613 0.24822098405875961 -0.36974314653567286 0.6074845712193474
Ni 6.4343751423585624 1.8484438073210154 2.5488155949736933 -0.6698507921613948 0.570583841538256 0.5819432324151332
Ni 4.050128076851438 6.900164181689136 10.337058280460953 0.3920176416631571 0.4820196220446021 -0.0931315271493622
Ni 8.220917232262936 7.00014333371741 0.3949356582840231 -0.057060235348101736 0.1226696458177952 0.19982202393008167
Ni 7.651862622452151 3.922335920444981 8.155515704292135 0.6186215616727733 0.38689163329050147 0.5336306613526746
Ni 3.0097920571465657 8.23926715227677 12.255130039920823 0.18659112706210446 0.1750098499824083 -0.1511906360756235
Ni 0.0009868259241983851 4.847323154429914 10.222672010172554 -0.2565086779888486 -0.367398043342264 -0.5230279461361638
Ni 8.563632151539972 2.3611070780510124 5.655446248652545 0.34380945738904656 0.32506662956390464 0.5523449499327261
Ni 3.4309398288477997 2.6815823984889056 11.463706453377124 0.005241708014913554 0.2671936685065205 0.08989219427645809
Ni 1.1209208009236276 3.383498352619686 12.594729614583146 -0.3781995048331422 -0.21784854241448934 -0.25864295072303195
Ni 2.973029189915708 8.391702945129678 7.945325383992347 0.8644647895279757 -0.018394957567419934 0.16408111888504645
Ni 5.74310178168036 7.826051804291037 3.52203124483797 -0.6802678737296607 0.8016134014193936 0.6638966314604889
Ni 3.143517774538851 8.253475284652547 3.413826142405064 0.2578657062373752 0.5014070254322783 0.8718950205537759
Ni 3.3520207665704382 4.3258720907982955 9.153862100844643 -0.7984337181398313 -0.5997859170235089 0.18198730974150593
Ni 7.206305315344878 6.099772724520419 11.438865631823557 -0.3128466904589451 0.035056220273184786 0.045049584040470804
Ni 0.3790428988058975 0.054188088135065156 0.361733828033279 0.7362963253791384 0.07650548855690696 -0.5096258137976448
Ni 4.636236047067623 0.20602512255768807 1.6485269211408473 -0.3425614439145584 0.599489983049645 -0.5252648058864825
Ni 5.755509136822197 5.74691942941631 0.49037325012830413 0.8000889943550672 -1.244441955086831 -0.7462824900575729
Ni 7.88996138832352 8.91448658391441 11.430628876755522 -0.7619847312841781 -0.6406849692307159 -0.8415467472792217
Ni 0.19140821374980796 4.855849834632612 5.783590457008237 -0.6794723744115587 -0.010262044047640391 -0.022023041238310462
Ni 8.057784822640434 8.832353134274468 2.341010404120257 -0.35852825165645996 -0.1391056798866314 0.7669433608410341
P 8.469019315668834 1.614576867949402 3.5473987937324636 0.11399808618572624 0.3596394824427677 -0.3024167533748727
P 1.8286172499753508 3.1419240866868146 1.5134254099418334 0.07061689098661386 -0.05972415533351005 0.5558264807234234
P 4.703810212771171 1.0290091309033982 8.193258194338256 0.09952046139484151 -1.3280130922412676 0.25339378650895067
P 8.460231522767215 1.7103241934779203 12.322232401989082 -0.44110000101210484 0.661587523711338 0.8819182091177327
P 6.4074085032803305 7.647324663822625 1.3746602174603713 -1.0178501192620728 0.897534575498751 0.01258246465070091
P 1.9291546429461461 3.4045674462567685 5.834062641321069 -0.4708198966740407 -0.6304252391759207 0.13865367995087732
P 6.909762324346029 4.015976336609792 5.947960900979072 0.6175499258751493 0.3050624185278359 0.547391976802825
P 2.188700665673725 8.44334023231287 10.205210773723667 0.6095890191568598 0.8328260795767721 -0.24155385645122915
