# total energy = -340864.0510616347 ev
CRYSTAL
PRIMVEC
9.33190907532153 0.00000000000000 0.00000000000000
0.00000000000000 9.33190907532153 0.00000000000000
0.00000000000000 0.00000000000000 13.65819221555935
PRIMCOORD
 96 1
Ni 7.201928637877505 3.6487016985758416 4.301115042125081 -0.19064138587207813 -0.5831855894626666 -0.03088717649715971
Ni 3.9018297256809222 0.12020805044613404 8.239194567669216 1.533588473715359 -1.1151440053192407 0.027255750392159512
Ni 8.321011145174879 8.187051593871896 10.876700890161123 -0.6134937535279047 -0.44584420056530966 -2.1632704069673516
Ni 0.5469898362678084 3.6280035247834332 1.1958262591612179 0.9703749564992449 1.1962404556809398 0.5400550768217796
Ni 0.9195345679499536 3.3731677583618467 5.22317949055976 -1.6749680372378313 3.0867993496473356 -0.47464775506056317
Ni 3.2287751329831584 8.534039960022982 11.424694839819402 1.1095996784622437 0.464709927121561 -0.4526553099498721
Ni 1.684008272342914 4.067265805478852 12.557205030737107 -0.35116435509222105 2.1088769198181354 0.10416258815254319
Ni 5.42631834842626 8.652919146651243 9.801951482158426 0.43509030448291525 -1.4122532304382711 0.7059431670085777
Ni 5.657684364131929 1.4885234461015415 10.473988896793353 0.3424871390331972 0.4695945089073719 -0.6624825247217817
Ni 5.541184814256175 -0.02708026624354778 12.557040789141642 -0.04938266419818592 -0.3263418967319025 0.058675916574653784
Ni 8.06658598274196 3.552153769785826 6.447759227218349 0.7905843972987416 -0.44909176096832976 1.0769996330390355
Ni 7.608249280391139 3.335476178583877 1.4547344705976861 -1.4995408972123465 -0.6358878049523887 2.8788454406387385
Ni 2.6728173323264843 6.29009849386038 10.978932884621543 4.057620392545064 -0.8246456006485089 -0.40772348243418816
Ni 6.956480771742285 1.3443081269906874 4.838264380528104 -1.3265992426128765 0.3299782079329091 0.27631002898549184
Ni 5.2066172187623 1.4208671070596306 0.886858889169919 -0.043793600146182644 0.44041351646804155 -0.023306793046740507
Ni 8.61405174636027 1.1523787580148277 11.579291907507377 -1.1146642374693447 1.2850730983446321 0.09955954216289305
Ni 8.97213575211423 0.5060274224437439 4.301456589988382 1.116148021103723 0.3782355002774002 -0.9354138670430278
Ni 7.18024128174876 1.0801124560092334 2.495775157512495 0.2750949256314682 2.29220454563762 1.058369162422042
Ni 8.744586487121408 6.667042287366574 2.2169293228535385 -1.2403837258570574 0.4001215017172141 -0.8350662817612006
Ni 2.2079669576099725 8.739052665183221 2.182961174700082 0.24516779905473263 -0.4249812410733713 -0.5206645881103097
Ni 1.112186226669516 9.205144183774571 10.911051646576748 0.3666310832692525 0.20911244809307214 0.2606874919568865
Ni 6.239454224621696 6.312887015231461 9.59747442856522 0.09596102617835732 0.01368366813467966 0.7418614781717416
Ni 5.106457841253772 6.851263499646072 2.6230008034013212 -0.529468816665501 0.1947592646951936 -0.796249566004319
Ni 0.5799697352758109 7.6773147376668875 3.891300532944234 0.6111918448676055 0.21470999678550765 0.5312485342737432
P 8.60082843154339 8.844913838988937 2.0580843702646145 0.43252408641763573 -0.15901450299541645 0.4148294973513501
P 4.142023727142956 8.44850368365634 1.0252203018696018 1.0067007875134728 -0.33424675340127596 0.3005015386300309
P 2.6406315787602015 1.5146434589261357 10.356733462302095 1.9512564689567684 -2.3469579872294157 0.6231539023254881
P 7.553116363003607 0.8349585450022649 9.648447180994838 -0.670667117415103 -1.4974395345986276 0.6778736624658712
P 2.5915270744790244 2.950115003309986 0.7375735439898966 -0.9018524861478145 -1.7973656603411625 -1.421352878746694
P 4.257590086135373 4.496720249990403 11.832883730481475 -0.3312928129792746 1.2901710816928296 0.6102140543353683
P 2.676960699848499 0.30996215147293593 4.016656064302854 -0.16408009044378194 0.5830467498919572 0.9212964538050391
P 9.061582098282052 2.8611819121279978 3.216927341528316 0.16062504201564595 -0.04901808176991558 0.3384510212906107
Ni 7.847118150798835 7.5767260923520245 5.649888487492534 0.5647057854909242 0.13250771495413954 0.2721355858928281
Ni 6.187960751679177 3.7529951116975515 11.219753990357178 1.090743207877373 0.4836417310290575 0.4795791309239096
Ni 8.951922837581158 4.6292706830595485 8.849170122607836 -1.5522330853997395 1.0551102891651118 3.3464100636002754
Ni 0.7434125193469343 5.088773874014541 7.159842662229902 1.9010055432210164 1.000073254894626 -4.071763773924981
Ni 2.980565021833262 6.9117062731597905 3.845190638207684 -0.2828468016627451 2.486474786511537 -1.990880511106294
Ni 6.414380855703161 1.9548389305048919 7.175208583314925 0.07488852177877424 -0.6021137938257372 1.2002472628474876
Ni 4.249816606077179 2.3147519903901914 12.133910579246463 -1.390979151550843 -0.19277283039278412 0.21415746671614733
Ni 7.674524496925711 5.740561046481061 11.691111505103198 -1.4168737599294179 -0.6156164562978623 0.11479564238635714
Ni 4.722515116122552 6.753558414160719 13.10036411842882 0.5573321187346724 0.8272100189415755 -0.3344136179964434
Ni 3.1716451871052853 0.49625691389520854 13.41716562588573 -1.1089473895902255 0.6330169111624969 0.8818670441648231
Ni 1.6136550116481598 1.435984799369685 5.641980627947138 1.1392414125880765 -3.7117939047259885 0.5868756367197441
Ni 6.83346754950084 5.249142727315954 2.7852742992956236 0.1715630290843884 1.1994574199563408 -0.6486265926752959
Ni 8.786421434421392 0.8921864759228881 6.725416176691934 -1.5362570216864575 0.46541132406395974 -1.0717553539209606
Ni 8.366933468543879 3.343482956362906 13.104297518002083 -0.16273386082853264 0.43897755535246336 -3.242296326407797
Ni 9.095027659540841 6.024213747380085 -0.060533293029401906 1.4673761395543439 -0.639181645212312 -0.08465485713691873
Ni 0.647033498106803 0.33517603594981027 8.48875780559995 -0.11054766574328057 -0.4356621178259852 1.2703602176144895
Ni 1.9628177125574207 7.712010774709346 9.201687644742691 -0.08554754415451718 0.11240863021141931 -1.0222955566279361
Ni 6.48244779873374 4.0803211459367335 8.902819266490862 0.38133033715264003 -0.9965174192225676 -1.2539316397448212
Ni 8.812261489980987 5.52684167037929 4.8997672588852925 -0.5862241191786742 -0.188509684241056 0.41259495159387655
Ni 2.468971115770415 2.72055937791799 3.628107108971484 -0.5243888310394323 -1.0485434345808715 -0.07642886968270063
Ni 0.9563246853346198 5.197135999387599 3.150289113740125 1.2217002905149412 -1.6382303154971656 0.856997534616653
Ni 1.542489874884903 1.9070502253692194 12.251207074136587 -0.042131896173043575 -1.9492800619566881 1.3061926539320665
Ni 1.3418445030586785 3.1225966742771085 10.327982784377376 2.647116283587415 0.3648631927355523 -4.423717714798032
Ni 2.5013435075133654 1.8380967509994703 8.060190825618454 0.09865862761517848 0.8704307773034236 0.5522778441402165
P 6.680414912724788 9.102801139599036 6.352096896576619 -1.517141126792613 1.443544841462701 0.6142432300994195
P 4.048144724279284 6.84416191702388 8.874465194691561 -0.5645944567240405 -0.3842703936175705 0.8274655865958073
P 0.8754058374587276 -0.08353458192188495 13.177122801346798 -0.2839356638515497 0.3672864574650642 0.021102843416886237
P 1.9529538849205517 5.761221892638137 5.118133925586081 -2.212391589974035 -1.4939788297435368 2.635371227236345
P 6.4985080138359645 2.014087219687939 12.620564958952137 0.2762267252430662 -0.7381192375204901 0.3735838604380018
P 3.362426731294641 5.22338665893586 2.474878214061936 -0.1767743980819988 1.544241839664147 0.202547907501677
P 4.789070289922126 2.8797057511622315 4.2270467485237635 0.584717966946793 -0.581162902605683 1.3556000007206008
P 2.0346360829390133 6.536759508143937 12.865538764118622 -0.7023256248606485 0.054887396066499027 2.226296372980585
Ni 4.253502710066359 3.7465934222378614 9.75006420266314 -1.2295879207931342 0.2102840998036701 0.7028802118125379
Ni 3.381314514773376 3.053381906460025 5.980648664182396 0.07781649405884664 -0.113549685794398 -0.4238556121093604
Ni 5.633197435353174 4.1527274265748275 6.287138412378435 0.5500798080476332 -0.37521908204857957 0.33597607738755686
Ni 7.008198210496805 8.319639354576374 3.7277989578474604 -0.07365439226135703 0.030534421143431287 -1.2689669368113887
Ni 4.149750547656984 5.1974346204702675 4.850815797908981 0.17600820933993558 -0.30247768851979523 -0.7564206069328392
Ni 4.6907586303626045 0.8028679769060824 5.874593386672945 -0.5924215062386378 -0.42826505403096565 -0.5940461863262543
Ni 0.49076135278323874 7.3076871606860525 6.7885717361035125 1.0400132856226734 1.4347133592140002 0.6970551204903286
Ni 7.417141119392616 5.81225810204782 7.248921331189691 1.4347907494191545 -0.964682534100158 0.5874981007950915
Ni 4.695247278511454 0.032218415247199664 3.0933896660104363 -0.2607638537207767 0.30080338614116586 0.10270760087357152
Ni 7.461495682077608 8.450650022688013 8.420657267697573 0.44512557723173013 -0.26410705916139676 -1.203944766303733
Ni 8.637736130979356 2.4775937995324457 9.114384838033894 -0.6602320381247081 -0.822860483723628 -0.24467980367472056
Ni 1.014051873377828 1.4108539688814274 1.688589306389214 -0.18710071970867134 -0.37041317601950396 0.2090851943995625
Ni 2.113136100045297 5.282737599116075 9.11887815213716 -0.4363740562913453 -0.8784014542137258 -0.2599989505302942
Ni 7.793058402927139 8.002335790424228 13.086568757600453 0.3938310407228121 0.17485584090304723 0.7816408149522087
Ni 0.5158147284281791 6.3513811391691 11.246455381102093 -0.9766787872300856 -0.2169687109126973 -0.7988672061328241
Ni 8.21014806823448 0.9984769175349386 0.30405971913583124 0.10472411708296804 -0.34024462285592366 -0.03832923459750173
Ni 3.4047189421274604 5.004124128987069 0.2056463417700259 0.2048755271935891 -0.3775011932145369 0.8215078263504755
Ni 3.3746701956840184 5.102183827008089 7.2246509026958705 0.7240103089229338 0.6262983614917407 -0.1689163354901607
Ni 1.7500781868831525 6.423610113539361 1.3992684040648025 0.25399773864153674 0.17078141372335748 -0.6911220428353453
Ni 4.078762717161561 3.2810338224500137 2.181567920711261 2.5144352762802047 -0.016920687014738603 -0.8593562646568167
Ni 4.974420663170461 7.649766942790788 4.894672969853157 0.7940476732569938 -0.14443197719555126 1.0282543453145323
Ni 5.653792958148414 3.730962474941972 13.719790097442988 0.13083984033341337 1.163073224900352 -0.039256117287145294
Ni 5.600909030789723 7.138126377183775 7.462876804584947 -1.1598850569803574 1.33460437230554 -1.4573012718168452
Ni 6.362672748857474 8.727219804782512 1.3183047630265101 -0.2822485059571139 -1.9195753358034038 -0.5984710548668274
P 2.210290602909481 8.864725481442175 7.17769367063725 -1.2575481534514856 0.1303418176510723 -0.4922531268471522
P 7.163425182031032 5.356851619070675 0.42163617129095576 -0.42833575936790097 -0.09114946372232689 0.8207223543347026
P 0.9012813542718877 3.124313745502448 7.778736722440571 -0.8877348157995097 -0.6888386461178072 -1.0443203976384594
P 4.547980425212089 2.9180972241027034 7.8757372488090045 0.5135454605670253 -0.1807881472270822 -1.2309297795330092
P 6.266880704682961 7.5068300951901055 11.59028676249485 -0.5284501455929996 -0.5613281272679429 -0.46389617297101393
P 8.81454780764516 6.7816287959314865 8.94637501777972 0.7189259524214909 0.6952057259864156 0.34678036709191246
P 6.449767453999288 5.930297416881079 5.239692303240402 -0.0703384405142466 -0.38765139427466144 -0.775439314127187
P 9.159053886046571 3.936712400900048 11.148390083935771 -3.764098884777292 2.353774238820301 1.923752864219861
