# total energy = -340861.3004629795 ev
CRYSTAL
PRIMVEC
9.30782233181937 0.00000000000000 0.00000000000000
0.00000000000000 9.30782233181937 0.00000000000000
0.00000000000000 0.00000000000000 13.62293883171871
PRIMCOORD
 96 1
Ni 7.345621645068984 5.974253650274032 0.01093296804348017 0.9186477033282823 0.7469571475270943 -0.9844851706483818
Ni 2.730216968630871 5.885363947553756 1.6376815441448975 0.5808489709096899 2.1699797006667274 2.8211444863828445
Ni 8.040692581230166 6.707449426471052 9.313962644728804 0.033259019163445945 -0.054887653176815154 0.46026706085885893
Ni 1.5135170565691982 7.517965282301301 10.426275329983369 0.6365920301082649 -1.0407337087284658 -0.0796301502288177
Ni 6.6702925999517495 4.639465397017371 9.901764652306731 0.31236717971936523 1.428021291905805 2.244885448836682
Ni 0.37874645773102356 2.3236512916861973 13.494379278125216 0.43692812902260236 -3.0447659267253693 -1.7343672051317551
Ni 0.6277697964240913 8.257844074891322 4.880908445250188 1.7554492226130347 -0.9420331721317583 1.0200602395395142
Ni 8.046537893618474 1.2980409709174308 10.083140600274103 0.5513753869306052 0.9319318220316983 0.19239205001459767
Ni 0.21114515594750094 4.418218461555491 13.213896430926988 -1.3478010735014725 2.1427195793991936 1.0090795721582944
Ni 3.1197586386357137 1.0349088352208664 6.583149044690146 0.9616226642279115 -0.35523569694811724 1.3160713464983593
Ni 5.573924214253189 6.729220422770815 3.8156896175750488 0.7048823298442312 1.2455909810896098 0.8210943929621407
Ni 2.234770896788196 0.0770976226808706 3.5464189730885347 0.5043187997624348 1.0863947011006903 0.7060668370706357
Ni 6.863755685924621 3.3471952759100527 5.941303959422747 1.8402591172705791 0.2757896377056476 1.3423269377607785
Ni 2.6427885940076723 1.470905846197112 0.4665220141250565 -0.22811547155813616 1.7336601517624015 1.72625923131264
Ni 4.263541070999938 9.15242818150372 0.36005448903962495 0.8023330531942376 -2.994645098809578 -1.82608462554241
Ni 4.641587580495928 3.692617868334361 6.535331969320003 -1.0502542466243914 0.3837204346513714 -0.23847701729811832
Ni 5.4551098629208 7.192117040120002 0.7779217237898441 -0.4016973308447663 -0.7319185080264169 2.676231712896133
Ni 2.771469236950898 8.970767414174754 12.401955547506535 -3.123572552611627 0.2063557112835414 -1.9020645806131502
Ni 9.047147403758272 6.627253229755042 6.655486647059902 -0.10579832398375329 -0.3031960547430585 -0.16448761029484577
Ni 8.475907735135365 4.963749925056575 4.507803458599662 -1.996583732138658 -0.41011872213924205 0.7936077575060978
Ni 2.283320497771333 4.84711360413639 -0.08553795591927331 0.12060479286896648 -3.019889989419296 -2.2734398634356072
Ni 0.9035475394626205 0.4929152749662726 11.131316805364861 -0.512583353764072 0.5274070490404659 0.9540278825997892
Ni 3.152345324418299 6.859381009455666 13.06424805674628 0.9303886459142945 0.5006657763908797 0.5588755519623922
Ni 9.179746639879008 8.80887646135656 9.253830389707437 0.3740996237321557 -0.3124720807283457 -0.324039473850971
P 6.634773950152737 5.875218421274688 5.569397820281161 2.311176458754433 -0.17359034392706232 -1.6139267057547946
P 3.4773651704171784 8.4928945107861 10.12539904418199 -0.8805015312758643 -0.6735549804858594 -1.5229829302853706
P 1.2938803743607854 0.4884642743546667 7.742106950490511 0.29428718228920286 0.2006306358743061 0.9273395746753255
P 2.4164409719394357 1.8954076966645055 12.01480505704398 0.04373497899410532 0.25132970489107037 -0.6287694487400526
P 2.5540943555551587 5.445802040646425 11.393408326531151 -0.16868930708101915 -0.032378416330705526 0.019663282756882262
P 7.940791724759307 1.7239483025482545 12.305560016904204 -0.46967344177442344 -0.9967231074754704 -0.479812072870322
P 7.884814481601219 7.744834142416902 11.469860917128408 1.1499531425786258 -0.5866239257202542 -0.8198132122568721
P 4.452527094458835 5.3806472847258044 2.7483867684926775 0.1563474976862146 -1.508224026808641 -0.8004808304768473
Ni 2.40223723514874 4.109450073247669 8.502784071952622 -1.5807011109324454 0.29648598971273454 0.004684549959862901
Ni 4.583367152169717 1.1155983465174182 9.500910255109616 -0.07005561916650516 0.9352912254222343 -0.19646442031175843
Ni 8.565486216703945 5.318880576113056 11.430041122656407 -1.0741963592622854 1.0659947972880996 -0.9006893190776487
Ni 0.87632774400344 3.573338125888253 6.138768478191372 0.6877343573100348 1.3470623955632348 0.10095693673105192
Ni 4.776997778943527 6.206279043929636 6.40385711813001 -2.4434928836333727 1.0874269990199465 0.42127113921163584
Ni 1.0786090607990542 1.2256261136227977 5.6929172757732465 -1.1047816882483101 -1.0236356155955983 0.4030818698971187
Ni 7.783889764680177 6.741087896170641 2.7371075494605903 0.5424978819353173 -0.018773681063077346 0.790377166383942
Ni 7.788134131637292 7.9302180386556165 5.028254064200217 -2.7943137393432456 -1.586068545891946 -0.42434129349652727
Ni 4.518761557763284 8.639613713297061 7.982415375188081 -0.06059653063613435 -1.126793673743027 -0.6495989838908941
Ni 7.84477223017686 3.067718604299687 3.2543562641987602 -0.37274850902089995 -0.965400386102789 0.4132845214617334
Ni 7.662729842134646 9.028196677607644 13.35458044147525 0.5530278349323637 0.5278626485206458 -0.0046554964941403695
Ni 4.6046634495334855 2.029868497240118 12.512423574605492 -0.16582381260776602 0.5986536031912786 1.4027494047128939
Ni 1.1413437829283377 3.435061118180147 11.146261444808596 -0.04454179116611684 0.6740825708545551 -0.08887943674122757
Ni 4.686339589991121 9.262558334654118 11.557333038516296 2.5569132429387578 0.9540641351543633 -0.17711841168497883
Ni 3.640419601019669 2.0840772541660746 4.558411949869892 0.09663671208914325 -4.607934942311322 0.7770660510973327
Ni 2.194132944738277 1.843684128285807 9.526902348810806 -0.5317956650264648 -0.9846857166949623 -0.9910345417311256
Ni 8.926424948859635 4.578368851608378 8.122255166256055 -0.1442643412694354 -0.6369321870565031 -0.2282777081676133
Ni 6.656033016227408 5.48062260377486 7.596545641070479 1.2863730481029783 -2.784923299267281 0.2874336497024792
Ni 3.0245116933020406 6.628556324873455 8.266821469474955 0.868274135971737 -1.3046466496011855 2.544464989873076
Ni 4.503599115278328 4.874422754689404 9.36537533184354 -0.20475391401406026 0.6118158516048496 -2.0561731616665164
Ni 2.3043934074005166 7.854256901074447 6.678918158853413 -1.5701942978638508 1.628943233768285 -1.5649698162401176
Ni 6.274784615869033 8.717650495245417 9.840339540771453 1.2926609379942189 -1.2393326588847238 -0.1423110741978065
Ni 6.425515489780252 2.9583051534644156 8.40508079232074 -1.859777389809165 -0.39490293363075213 -0.5435497202385994
Ni 5.052360393108619 3.153918346382668 2.2294077295937016 -0.6352882236951769 -0.3997738885698083 -0.5480998015031271
P 0.9131820662988255 5.949206300533691 4.753629560341483 1.3563247947017674 1.3456835129378373 -0.04039177355348528
P 5.630208615546332 6.691709899005085 8.90421183100184 -0.7981979479799415 1.3270227033035402 1.143133034332999
P 4.039259785476612 2.7965165866912396 8.253920827802673 -0.20620350197639328 -1.3825770435300768 1.7401046218361644
P 6.156277422671698 8.916251499113743 3.712468660898919 1.007581390346213 0.9635977856764115 -0.5326886091543793
P 2.7776868622301802 8.367462297816628 1.5102118488795677 -0.8076930319545702 -0.7374985732173557 1.32572172510393
P 9.154354900714516 7.192442813899604 1.1898952454759295 -1.0727645119117653 -0.07315379847585465 -2.260342406821701
P 4.012630105949627 8.259240248232478 5.43782802930397 0.19885348936922528 1.0283373919466416 0.46590574720187505
P 2.6147348176727077 3.0582711646911966 2.2225692725687187 0.11508643415389858 -0.3379668825653405 -1.0638445837143162
Ni 5.449422783511157 4.089559257047331 4.4392392473799385 -0.8218693234549523 3.3506115032761326 -2.159440234587984
Ni 1.1116983689844553 9.04610492766354 0.28124981175363406 -2.3421623656129857 -0.5743901026582237 0.9772781113769814
Ni 8.721941401313904 9.119785648787488 6.949333665479674 -0.3975249446346315 -0.03432936940948927 -0.7785472636285495
Ni 0.5582282638655578 6.903518702680748 12.762472635313197 -0.22795632027245258 0.022895416540934764 -0.1967359288055902
Ni 6.82070700790564 7.782651824317686 7.281964517752311 -0.5009341995609179 0.938243880292655 0.07551098585412157
Ni 1.0908767705566798 7.614003392528296 2.748005147779428 0.22313755872757055 -1.1937698826532603 0.2564832240675518
Ni 4.756539185584452 4.949806807289562 0.3030310466578976 0.09558975888186763 -0.058856150906259924 0.3247791802304729
Ni 6.167698120602355 2.4079894693143036 10.808657423094763 0.07353972106036366 0.7872098243995539 1.2184013080486953
Ni 5.516830032422177 1.2357344086127684 6.49162988217736 -1.1672029307980092 0.31784285812195584 -0.6910940178108872
Ni 0.13903745678792248 1.3350488722803433 1.975026808399504 0.14835522350935743 0.07216289531749508 -0.19769315051253697
Ni 3.7457003787651177 3.3149157482625218 10.700913795575515 -0.8109706742645775 -0.4596196570828472 0.7878153191940368
Ni 8.493220284565702 0.538895917001682 4.067292153820346 -0.2664683603047217 2.035089344413024 0.5616034924165166
Ni 2.887761168446932 3.8430974310441717 4.185825408920049 -1.3408575523041035 6.140335052145534 -0.22697390175452523
Ni 0.5750279522885761 5.012504298129748 2.502397779861056 0.2716146803923516 0.009593814336022187 -0.221468912775896
Ni 6.876833176220118 3.3198488940679405 0.07569772621080469 -0.4056223769307853 -1.2636421821643655 -0.7455821215564385
Ni 1.1912337103189847 2.2902734410102905 3.7668784667860025 -0.5851378280930309 0.8811473923899792 -0.8563300762359833
Ni 8.39704255700459 2.0865159036019607 7.770824374553637 1.8610405727923045 -0.1435485461493334 -1.0581264502836165
Ni 7.868795719467021 8.960724273940706 2.103504540817149 -0.8942597614022212 -0.16773774180102724 -0.6792430320095721
Ni 4.267236276442865 0.6928063430018274 2.5214285532832417 0.9067362966026772 0.4345976811172128 0.9568653520485844
Ni 3.0572938433523875 6.540830099937477 4.423109722160675 -0.5841857485924068 -0.2645251205354219 -0.3032027396112778
Ni 5.947977667993473 7.666676358778981 12.373061274820193 1.247251142400852 0.06206334498964796 -0.21050290068269553
Ni 6.88981758829287 4.84151960294949 1.9194861021060845 -0.9735903781127492 -0.5317097901808778 1.0865404826499352
Ni 4.564034805305841 6.539229154506283 11.086374916295272 -0.8406664015567973 -0.724848488553513 -1.0963322719293762
Ni 5.757185927013347 1.9234056260658234 4.352419604333484 2.429068480677926 -2.708285656007884 -1.832460961382399
P 6.13036444545984 4.785253817300897 12.236682132073833 0.20720391821644962 0.23348907716522369 -1.5021703644153936
P 8.690899814028866 3.477281400016709 1.3661490988457106 -0.0935236203814583 0.2653776983437042 0.7310985832282828
P 8.592748828145586 2.4468496273098164 5.231140389443666 0.5127782433836976 -0.42388620823697964 0.07758843720844057
P 6.612733027007018 0.6909754943604579 8.06439867378077 1.8720744620089629 -1.0236356155955983 1.7537944606184313
P 2.749484160738826 5.184308081670151 6.620721000082887 0.17090328401320243 -0.5211389566435669 -0.9578014907096085
P 0.8531289277667893 6.296276377500563 8.508751316812724 0.03128106950146871 0.962471128271136 0.6889078087928457
P 8.515326362467341 3.6581044633409805 10.007832871816595 0.7833099751245155 -1.5776088451603667 -0.31775852593826565
P 5.548104315264074 1.2058562991120267 0.7638966971868169 3.26506498756288 3.72091489319065 0.9314607959325507
