# total energy = -340868.2040011344 ev
CRYSTAL
PRIMVEC
9.27046098228520 0.00000000000000 0.00000000000000
0.00000000000000 9.27046098228520 0.00000000000000
0.00000000000000 0.00000000000000 13.56825672013069
PRIMCOORD
 96 1
Ni 3.7547961871545974 2.09590285406604 1.9612642440328543 1.0517899665426271 -1.3574447672388235 -0.3261932869691801
Ni 3.124173092871754 3.4299685120266807 8.461612146186782 0.586759422856854 0.12297457865272371 -0.5378794093266995
Ni 6.584409659331856 2.555402512885936 5.2981869953436505 -0.5213004219220957 1.225794772299289 0.9158243749468744
Ni 3.6711024672694745 2.927185071843953 12.800279566885116 1.1668666305045132 -0.15588212801402188 0.5281976632625612
Ni 5.517787524296106 7.586917287641253 11.989698288019861 -2.141255850369473 -1.1204939567772445 2.087277596380805
Ni 5.271035669823098 7.989190392091313 6.199214597723219 1.386827848386631 -0.5345161492814214 2.333852817306026
Ni 1.879428324487228 7.575783464249357 9.222005004503291 0.4792078636274199 2.0215139197214347 -1.0756449187833539
Ni 3.190586673870538 8.380079370708529 5.176289706600906 -1.5690267599183108 0.7643470608687675 0.0023211919340089056
Ni 3.92830213103696 2.95342974630062 6.0147806346781865 -0.3692045004233835 -0.2332743900512563 -2.0094266495395976
Ni 5.143270179409189 7.663723055169857 3.8153526910351467 0.5859952909973198 -0.5011401449241369 -1.4848483281971785
Ni 1.9567532378192853 4.704137722914018 12.991578306134725 0.6119261519304687 1.8120019221970987 0.779832043878244
Ni 3.819355675998195 6.126328381010677 9.37003479512731 1.0253867939587502 -1.32141152776435 0.7737783814849964
Ni 4.546595512487812 1.0949433927062244 7.010311314207614 0.24916329336737092 -1.5430529615623683 0.4381509456861099
Ni 2.6778096769713553 4.005080087183237 10.75738891572017 1.2378113371441908 0.8370267479216811 -0.19458057302548423
Ni 8.797732169585863 1.3279935061524044 5.25434791338034 2.5716788312837067 1.422558726129337 -2.7775257212516293
Ni 3.047663980087979 5.649687640216082 1.6001315904142284 1.0504051703799588 0.03759081376958042 1.0954853505480489
Ni 7.310935670341726 8.88465200982101 8.59624982917389 -0.2203247718691238 0.0341470781953541 0.9588224757749552
Ni 5.8223128903247305 2.4516475158816937 11.466546718466331 -1.6161453106726682 -0.051476056392104896 1.1229969257047563
Ni 1.0733339486375244 5.982784566356131 10.567894208137558 -0.986225036157624 -1.0366207150013567 1.4555966304209125
Ni 1.6830985061745185 6.998688010486751 6.660561859375758 0.5675854210315644 0.7729646273344495 0.3112898874947865
Ni 6.4687977429951955 4.122481202449652 13.318098767400329 0.15498352745915245 0.5047484311006856 0.44805997726970576
Ni 8.270632310787864 5.872345567132441 2.210255841829329 0.029185363314704574 -0.4140723074703514 -2.1944458041288915
Ni 7.842503891233726 6.1534352083195065 12.001530177108183 -0.897054550538539 -0.5152341611233578 0.74772847847548
Ni 5.023162089596201 0.5875284303198411 4.776867268839445 -0.12430923830374721 1.7793746230803809 -1.142931459845154
P 7.9854451259378365 2.338520083032983 13.18527902177138 -0.08291370607609591 -0.14078666713348012 0.06497229110632681
P 9.116821429493479 2.49111186740484 3.2129766907365718 -1.8795792550264403 -1.5934738372170816 -0.7041076564617357
P 5.781003717107173 6.565989253770076 7.970360232163238 -0.2563194447961779 1.2206556513005107 0.11598323493655509
P 9.039626302612284 8.238760466640207 10.045014263084761 -0.8291154634944043 -2.867514331896636 0.43078807756313553
P 5.399255412815028 0.11810474323930903 2.0720082414160723 0.04537405725942508 0.7319884420324039 -0.2883687599222388
P 9.289279811308159 5.492599682367897 7.0716938161433 -0.4971675334296341 2.0325503800412545 0.5798896923202143
P 3.2991808513998175 1.821719706157045 4.219375131433627 -0.15230623773730545 0.41969916673882557 -0.7864477494225488
P 1.0595487734637121 6.110420270319177 1.2805574854080328 -1.716815826511553 -0.2416101636104613 -1.1539427233539934
Ni 0.5465492855059069 0.775149577779639 9.931855310669414 1.2856582814241406 2.1002943203554474 0.6423880679647518
Ni 8.251915250481256 4.110883856018961 4.537971202827962 -0.9519157213527929 -0.4999258129010616 0.9153818880928171
Ni 1.84233721092272 1.412215642301756 6.462329742511827 0.258729082678935 -0.9210974504203556 -1.2601909903909716
Ni 0.1887067184166597 8.18792125974499 1.1400645793948456 0.8039165956312735 -0.31233118427510725 0.1116223868646981
Ni 0.5006558694346505 7.210833234883202 12.490855689382489 0.44577709477280003 0.11131719691945344 0.8978238246043956
Ni 1.414829912240569 2.3129521522129597 13.080749014246269 0.4171049236490881 -0.42025015414628913 0.8480868623905845
Ni 4.535007436517896 5.738266892930121 13.191031342682846 -0.659741985862167 -1.0821222989775816 -0.2455722335820029
Ni 1.7190864349066906 5.291291626618511 8.50581741135074 -0.47848718341131136 -0.04049050391487865 -1.848594890829784
Ni 4.306332980557956 8.431280125574007 9.169726095049572 -0.1389087333844769 0.2840549630382334 -0.753473094268741
Ni 7.38585026387204 0.7484654834821935 6.6141854522980745 -2.3557177356999173 -0.9430135337671566 1.8810931205678054
Ni 6.9168669236783655 1.330839537610616 3.2931244593749 0.4901455935858462 -1.2684236627134091 0.3698395629042211
Ni 1.2155984397049926 0.51483503919144 3.029737690085557 -0.4665549507500997 0.4983001043721805 -0.45517370549635155
Ni 4.925395810253211 4.583167480248868 7.326871592415555 1.7218233070284732 0.04204113623145018 1.412560991486677
Ni 0.875313198279285 3.2173690350522084 9.309031455037363 -0.8704868273523395 -0.5299652966859454 -0.10753073329382772
Ni 7.928858233361542 6.479792509475452 4.322235528972992 -1.4194829154174908 0.0028097015346532253 0.7180319798523118
Ni 8.999021684413696 3.483876241438731 6.953405517780627 0.3447088292748644 -2.391465839833804 -0.6619091687168149
Ni 0.4185214410520391 3.6479170448688656 11.593817166274805 -1.153496122734878 -0.3121838600639656 -0.16538621084971517
Ni 0.994813145865372 5.378322712382971 5.185421110465201 0.3990907464598546 -0.09576973610315764 0.31848871923607086
Ni 7.177867476363984 4.972600996524262 7.462676426414353 0.5608000226786148 -0.5927061273585921 -0.626638775550295
Ni 1.4344647481639952 2.9205566923891615 4.586925725047431 0.7026169308488223 -1.9559731577061477 1.8519923465471073
Ni 7.392487913787609 3.5384236326443212 2.205641933501147 1.28593724611714 -0.5603120272986027 -1.1228169484834665
Ni 6.349477642348162 7.297975566176971 9.978720271029987 0.2663495753386703 -1.4869682027536586 -0.7871697151902379
Ni 0.6894182106159658 7.176384202639835 3.4598101252644087 1.4670395821505315 0.6644851569741073 -0.07559686069970852
Ni 8.257431174642935 7.548713718783632 6.3133228453220225 -0.8856619924308812 -0.37103666853611583 -0.23406603271461623
P 3.048878410449626 8.735267804877626 7.345229885890135 -0.5734117979053543 -0.7744049593254018 0.4644985824417033
P 0.33049841598455515 1.5952330789402256 7.933047554586186 -0.6605272007676236 0.6495735299695975 -0.29300111648792765
P 0.871080305888994 8.957286070000446 4.945615612251599 0.35591369685174834 -1.7026770731173255 1.226082992963669
P 5.628968160381872 -0.04789490855278033 10.666644083368872 0.6245099021327503 2.3969739141362267 0.8577938052657034
P 4.8253860794024455 3.9007688625324386 9.684220908330536 -0.03967289310958974 0.014765331234632638 0.6885686802858721
P 7.082993580783086 6.925673861415502 0.5689253966807764 1.0763159767084496 -0.42873428035790034 -1.112237630305723
P 6.220469910190277 5.0074208471986665 4.954137019796836 1.562314895115774 -1.2726019624608147 1.8783281562281586
P 6.186734703426657 2.4463818941609636 7.432446380870113 0.6206097957473957 0.6983234456797909 0.7488289106285103
Ni 7.516248565146315 8.480042749255416 12.440543971705422 0.5062741237165925 0.3561227275387609 0.28721227772029245
Ni 7.840269710186726 1.4929798965816843 11.153296921801477 0.33273185941864636 -0.5699207540329605 -0.0364808685348533
Ni 7.383857114805215 8.129053833817816 2.5104936197490835 -0.6564897974734565 0.26555998955783944 0.02436274511508062
Ni 4.3675921853653215 5.889143642058432 5.357927698675918 0.5611332376483175 1.840207180986721 0.6417146960468109
Ni 2.7783941763902287 7.740324872561392 0.10881296040359137 -0.2250165209178383 -0.3459905242007654 -0.3168858935253252
Ni 2.000138994250652 8.647977146211442 11.49696680845648 0.9979556943309911 0.5669747840307591 -0.5824983335876549
Ni 5.456389262577103 3.117452008809203 3.3502870475653808 -2.4027167301572745 -1.0744079610524593 0.6326284174748266
Ni 4.3241693470908515 0.3613709044605673 12.751569784830131 -0.37006813397525945 0.14343284650707555 -0.2008131841987574
Ni 2.6976021107279724 1.2334904290025435 8.65361729454752 -1.1032824779949646 -1.4447352622263763 1.7857401602870924
Ni 5.135306853602662 7.415144919923989 1.1446710713544068 -0.3696845253835956 0.8321755904769669 0.6456076033433139
Ni 5.858560391958628 1.8966250292265836 0.41118479839396577 0.11661161254917336 -0.45602576908400166 0.8802264232376066
Ni 5.917288760974164 5.202323014551882 2.9853831705031055 -0.4419008996468454 2.9036938671409867 -2.452796420422485
Ni 6.897862479087703 3.196529039227911 9.559256951163114 0.9607693150886808 1.0413366324197872 -1.4524593703435116
Ni 3.1168030765548873 8.348698860981996 2.5201543669236828 0.21565050632190602 1.5677288670424936 -1.1991190627803157
Ni 1.6153128969808965 2.664571458983323 1.983624595424405 -0.49151239202638575 0.19065372716725232 -1.4505505833565728
Ni 0.15106957471244922 0.41430894367545523 12.692208243343599 0.49505228685884417 0.21669874508076228 0.5264701390484933
Ni 5.005390616288737 1.6371726434905465 9.236305617296246 0.8153281799023249 0.11149820258200799 0.937865928127946
Ni 9.090344993517412 4.12677342578891 0.37224515495073673 -0.1969796693852801 0.23234750736161275 0.5002232895368223
Ni 8.167090534381467 0.9196158032813911 1.3923064007393622 0.3792104625961598 1.039894500656622 -1.061098388427747
Ni 3.078006198207608 4.520564058628992 4.125143678784501 -0.053881066289171727 -0.5968258059539204 -1.0148617260577102
Ni 0.2569892243078719 8.735017502436676 7.6673135046283765 1.1601231411330923 1.1814033906681074 1.0306387863863087
Ni 0.7612781873206106 4.429518863348554 3.174103794610929 0.09122402571400419 3.3199017328971014 -3.8745107962736562
Ni 5.808731665287988 5.2080892411545125 11.182495165061354 -0.43469409748576104 -0.877561989031566 -0.606819941052155
Ni 8.348763754207427 6.427989174659538 8.934167394917425 0.8908941873640978 0.46738181752676927 0.35471761966111814
P 8.277214337938776 4.712805603739516 10.481111570721893 -0.7897382472483625 0.3261061265720126 -1.3204913299429257
P 2.3779288117914743 1.8662086474207478 10.964928575203139 -0.4810953104581198 -0.6561408987744699 0.32060525135844137
P 3.0948969777413575 6.729751943376933 3.7544040466637756 -0.7834585848872377 -2.118750470178106 0.0734967836375702
P 3.109618469453539 6.257588835137113 11.549503436719768 -0.40479113927874155 0.7831266554691159 0.2760511188971504
P 3.024960621647719 4.747421504276849 6.59053650685867 -3.4133027116577663 1.1463127176125614 -0.07049296381423989
P 4.597749915049411 4.092454179996405 1.2872099680608422 0.695628415346131 -0.8376263291788929 -0.5894271994970042
P 2.1492358149099826 0.5812291522225946 0.647464740374481 0.03579232710826094 -0.7221071783629499 0.2514880848458056
P 6.887257071960035 8.722613625918477 4.729785379696714 1.3870538483545078 -0.44488209376235643 0.4636984551379111
