# total energy = -340888.4382761068 ev
CRYSTAL
PRIMVEC
9.09210163355707 0.00000000000000 0.00000000000000
0.00000000000000 9.09210163355707 0.00000000000000
0.00000000000000 0.00000000000000 13.30720978443047
PRIMCOORD
 96 1
Ni 6.6511541739822615 2.1953424834122695 11.679418219305756 0.8954784643006708 0.5010666113737242 -0.05046458440845502
Ni 5.031641761067098 0.544516872594085 5.994804451734529 -1.8482380217109973 -0.21091581985039803 -0.025536967928839888
Ni 2.8173331537216977 2.0291570504066305 4.852527359589305 1.015505016068664 -0.8140973928190173 0.6588451850795104
Ni 3.757165511689027 4.647309534424065 5.206951118026186 -0.43023323350093 1.0259156698790268 -0.9548928017032458
Ni 3.774504149436141 3.1374933272870527 2.940307464673359 -0.3902788045951795 -0.1153060063638724 -0.6672349518051025
Ni 5.221530302938351 5.045689058035788 2.940307464673359 -0.5984875099270596 -0.4575920851298571 -0.06257859406316965
Ni 5.460416180320457 3.4155297941495335 0.6414886821860338 -0.5013129230565753 -0.8403781808924172 0.05278423368056715
Ni 5.838229370117826 8.366324587808482 12.482828138848031 0.13982147500673336 0.4675684796162786 0.9168564157558144
Ni 2.9872099799760665 5.550482538748834 11.423534657986453 -1.0284379220802482 -0.7108647726799112 0.28597994797508813
Ni 0.749894718747448 7.410644696756088 11.252324020427679 -0.21687743675047164 0.74151823589971 1.0114233898001228
Ni 0.7626300254555669 0.27711816460109734 4.972238515277496 -0.4535544247253737 -0.01584339479015981 1.0043150608901155
Ni 9.044722656431018 2.9733627092425294 1.4605061033311928 -0.5164729186264654 -0.8760722918599171 0.8982493421775886
Ni 1.3329566468554896 1.0528471808286974 2.9197484045402833 1.3130600704758613 1.5054305232239042 -1.2927756091952123
Ni 1.7259900147276719 7.285100957892872 0.3304142457474182 0.19457903036358745 -1.4306715850444587 -0.502415926312767
Ni 7.810542601334652 4.274051487527223 3.919225858199718 0.30882111423931974 -0.22892279795077997 -0.27412716240156015
Ni 7.700819119251709 4.333422910961232 12.963657567379604 -0.08908152544970464 -1.654540108400783 0.7123984357156182
Ni 7.9211934777805775 9.206207472910565 7.48905770856649 0.6544506555562407 -1.0453120721277673 0.03620498916564732
Ni 6.991653378822023 1.0762684345447782 0.6128912950302927 0.7100137375335256 0.4180130372856543 -0.43394384958329785
Ni 1.9499012007781076 6.775015874049873 9.394744019274217 0.9627583204942516 -0.7154418505276324 -0.9261964622098179
Ni 0.3449234214772791 5.434203651413834 1.457764834699439 -0.3762837758676681 0.05655887023165098 0.3323703623141695
Ni 6.44776386123819 2.0514599756261753 7.181155506375367 0.38535848447542664 1.2316723141259882 0.5000415125433195
Ni 3.457198895772514 4.98796330499099 0.6339931536287601 1.0365299550597633 0.13703079963547368 -0.5255154884447079
Ni 5.914393905203078 5.989312822369424 5.095636518163617 0.28806356997699417 0.5794718880565053 0.6322476370966402
Ni 5.647422525985189 3.252526596703145 9.3794538320171 -0.7461019986156505 -0.6045776819851976 0.6277592623079834
P 0.07587722467475959 5.8357108579752195 12.619786102057198 0.6048299072053196 1.793731920243317 0.0031380314083494345
P 3.928351600573487 6.876301885850006 12.953677167455636 0.72038376791394 -1.5088146092047885 -0.5221992795872813
P 2.6027322797074683 8.766222492387046 1.6270061230521173 -0.3096286977422797 1.8167047269894068 0.5447224003904618
P 6.52058250293543 8.052501609056835 6.260562944599263 -2.131305424024981 0.394794690187662 -1.1164395842022128
P 4.983499083106442 1.4618826475131086 12.800684373868489 -0.6323139715582013 -0.14426845503449345 0.8879237918818644
P 4.167610254121106 6.326902554697871 8.537146992629028 0.6713340615751405 0.18852999595603012 1.1647056182974522
P 5.316270001588026 1.259228794998464 3.82326781793593 -0.7631453272511824 1.41247511664109 1.2201108345406342
P 0.10461735782558701 6.133358987984279 3.609314301555468 0.6715721457278756 -0.9173672939539621 1.4095728553926306
Ni 0.6919034763359935 7.900136170479939 2.562648840603154 1.0865430537530965 -1.2387230503251827 -0.05014653894740396
Ni 1.8952849464797776 7.092921206418959 4.902375715809719 0.14914069552513023 0.915955244097784 0.9595454699839088
Ni 6.355860898287047 5.6613789019379 9.366519408283986 -1.3859752705783486 1.653312663751585 -0.03386965616425135
Ni 8.956902047097312 2.665322307107119 10.269586035020062 0.07700479679082868 0.18856213474554623 1.1326264783747204
Ni 2.7058548960303677 5.305459492788173 7.331926190331997 -1.9591790662379547 0.6635973550525152 -1.4147726544260153
Ni 0.7469679712430976 0.3672636243133746 9.115824709346583 -0.5712065627239196 -0.6717516087285335 0.22356667584518916
Ni 1.5659690266053807 1.3893549530669997 11.726139801786664 0.08848657217818309 0.20397101310144872 -0.24272010884518846
Ni 4.077971224467829 7.227202454917716 1.9145883873821887 0.48672011284406497 0.1631622066152029 -0.05906852402738214
Ni 5.48858351107062 8.138294679734217 8.376236796970467 0.6217493086684776 0.5347241515271693 0.5650189458559689
Ni 7.274290449093019 0.722018335248417 5.196611580089103 0.20771711040744226 0.9885056046616848 -1.0088224618421657
Ni 0.8095034460331612 7.722312847429043 7.008295561586741 0.05963339539191665 -0.10069031333322657 0.3419675190843014
Ni 5.309496385897622 4.529057661042331 7.346458096315853 0.7435159830560292 1.7308306527334063 -0.326720877337876
Ni 8.428596391652208 7.316350511084708 9.236454167296158 -0.11454675960034465 0.44600412318194155 0.5805810619602839
Ni 4.625243003846065 0.882867613826273 10.639087225536668 0.6174177711726593 -0.8026904365336563 0.15682880819800732
Ni 8.26661150958478 7.480953918412319 5.032254568714793 0.5190733323637898 0.3211706369436082 -0.6769094987803891
Ni 7.564492147893433 6.58631839748794 7.111731855414766 0.219285531971332 -2.8278342396981944 1.0741091988651177
Ni 2.1902509065174693 5.58733282652495 3.2305118911042525 0.8544603700170962 -1.3455467302496569 -2.0917335752696298
Ni 3.458426329488225 4.294826939678328 9.184143669963044 0.3808246011608151 -0.12399787771091546 2.1518423676360685
Ni 1.0930433619928253 3.538064047383858 4.113924121816237 -0.39616354551073063 -0.33633217517539493 -2.2677279006524946
Ni 0.7621890585280707 0.3942462542253362 0.6076115116324169 -0.8636080979546353 0.8116430177412538 -0.4627129512961902
Ni 1.0144421436793476 3.6544702241412272 8.42629790836827 1.331314902920991 0.8593138414546555 -0.4153167214004138
Ni 5.463107442393423 3.116208717446468 5.179219298942561 -0.3885551370358534 -1.3801640632132102 -1.3234077322587725
Ni 4.093436889285785 7.233712399661782 6.497617672719561 0.14769727821038436 0.25216479919785606 -1.109416101696528
Ni 8.239116994352859 7.912946941631321 -0.09956396775749783 -0.36819045733657235 -0.6431339449918408 0.4215621880894933
P 0.4330777109396256 5.751745299719006 7.973307585719176 0.14301838467747627 0.6586819200287688 0.7128890021987916
P 8.779442408110333 1.9733679150021777 8.139847610687132 -1.4072778887108668 0.35560824979618755 0.1878188288216185
P 1.9054862844725737 3.7165965543593873 10.614988610251547 0.08941628308130407 -0.8289629970769401 -0.3831972151580498
P 3.965756506547073 6.72156340875607 4.052098740160966 0.37307581045333166 -0.8442260938835976 0.9445525961195023
P 7.25922483674537 4.089545469801902 10.645421692719895 -1.202900898420251 0.22009440102587255 -0.06982010611693137
P 6.756349789469472 8.243026598039938 10.41052270188845 -0.35983231517986414 -0.44233695874299955 -0.04615515839982373
P 2.7255392959897287 9.138653158038483 5.993607021954092 -0.5498358103576273 -0.5268694313694411 -0.3931134458304972
P 7.157738798710084 4.671339958947203 1.8294090335626612 -0.4927480642056998 -1.342720059434139 -0.5316550256835425
Ni 2.6738416063043116 1.9375814031130105 0.7702228394999375 0.5330915010197529 -0.6211157888495368 0.20528304704465292
Ni 1.5211722420327372 1.6925947255587415 6.9836905162426195 1.2229264496125583 -0.6082993538111588 0.440300387928945
Ni 7.039814240985874 1.2892327302713935 9.482544625984406 -0.5642021063816284 -1.0560659682101619 -0.5152583294930739
Ni 2.751315404019655 1.7082876929166435 9.44604256569949 -0.17092796660355078 1.1652560914842833 -0.16569448611875334
Ni 6.53997595564366 2.5394057920783912 2.571525459393142 1.0027891111638925 0.21932615540128034 0.9366289703970514
Ni 4.871384378303262 6.857399406628059 10.901572561826173 -0.2065673130737152 0.8417928018517566 -1.1512579774329785
Ni 7.173768173827107 6.172855077325372 11.60564308852042 0.060742826406011516 1.405947085714585 -0.15575100175279627
Ni 7.692608951508843 4.235255490009165 8.304870163898403 1.3026640719535179 -1.1502837864451674 -1.4065541231709646
Ni 3.252953925478244 -0.3339301614353097 12.415652964612581 0.3325775932289692 1.741958901436084 0.7029853699318345
Ni 0.0970981898041589 5.20676472994343 10.476473170038666 0.6673511656679926 -0.7529275061779163 -0.49749457775174966
Ni 8.673437595580912 2.6879798242889796 6.050854530454841 -0.5310289620637694 0.2270299518034413 -0.7369630124288598
Ni 3.493758236297499 2.8744133675530468 11.992031948544886 0.280877079530884 0.5589061480900116 -0.43736135990527897
Ni 1.2250061245841282 3.7217063154573826 12.805102226034888 -0.5037572708320098 0.4572997507004189 -1.0256292489868597
Ni 2.7428051969240603 8.67000078117692 8.101336195949088 1.5047993173978083 0.17977513258153555 0.16454443167471017
Ni 5.880698576681419 8.268848166577852 3.74934630431487 -1.9580305544558085 -0.2818983217065467 1.1612690818120774
Ni 3.44851593874656 9.000516858462236 3.830134173062632 0.03398175626208341 -0.6762145295958935 -0.36794954497035987
Ni 3.8311115739844017 2.836162896130861 7.397637536210192 -1.0330239987890337 -0.683661729902558 -1.5874715968870594
Ni 5.256944038662006 4.507400275036235 11.868527568070071 0.47767985701866766 0.35094324022035045 -1.0807850682233968
Ni 7.8515661637441845 -0.09380684902573448 2.8482481175747325 1.9084031212366683 1.9168517662246536 0.8789912652789249
Ni 4.919036082777634 0.7488045757658649 1.7498449616899705 -1.3685421627035657 -0.4190381361160589 -0.6982272864215588
Ni 5.742571369206768 5.910366104195227 0.6170982104396213 0.9231291361384037 1.238198031059648 -0.5264300298391772
Ni 8.547075567573888 0.3839458123251235 11.164642520248423 -0.9700749087603229 -0.875414346560944 0.76686725618746
Ni 0.20764268866138916 5.084594160773019 5.837992975476282 -0.15480663556165597 0.868575983482872 0.2563382138492553
Ni 7.155956746796904 6.552550332153498 2.9383381154672628 0.7766531319296301 -0.596245250860102 -1.111963293598414
P 8.592226944108848 1.806145982414383 3.65615589977747 -0.5328719288097791 1.5518075678265468 0.6404021478829746
P 2.0003623646462163 3.903621084227315 1.50970255586704 -0.5679158077877897 -1.1499773109483422 2.7518889945201317
P 4.7674071044301645 1.2298431226341884 8.399763519065083 0.40822304777842594 -0.19513901663211553 0.674346108928587
P 8.649116223806642 1.9563929613189777 12.725339037137203 0.6953075416716026 0.03313149244664616 0.09441707873000513
P 6.54035782391077 8.217386871533979 1.558753534777321 -1.362816315963382 -1.7012141154185538 -2.428365798183947
P 1.9963618399431589 3.6766367678368033 5.976054719819428 -0.06322908316297497 -0.4077255393167172 1.6473219933857888
P 7.043823857790529 4.250084707715271 5.984891333362385 0.5363837986177795 0.5995807429912384 1.2824192056615527
P 2.4080249239893505 8.749902170018892 10.461543030004826 -0.35666677296768895 0.32802134131685445 -0.8017977495160579
