# total energy = -340868.9920445798 ev
CRYSTAL
PRIMVEC
9.26575681216470 0.00000000000000 0.00000000000000

0.00000000000000 9.26575681216470 0.00000000000000

0.00000000000000 0.00000000000000 13.56137169165344

PRIMCOORD
 96 1
Ni 1.517656857396082 6.659401421534603 1.5708812182943834 -1.8183160373405847 -1.4235552857146516 0.2614930185773174
Ni 2.8853011102617687 7.010610671819972 6.962747477875425 -0.6751894307654888 0.7066052260726089 -0.6335568428263669
Ni 5.165928189699011 8.040490287690814 12.930320232422847 -0.23495589151873728 0.7031211241787503 -1.4939803724054335
Ni 2.2928671443282025 0.23984597101854221 11.291306976922012 0.12048472235133445 -0.5628782453638821 0.3757304744673593
Ni 6.233148805956357 5.8381681199821935 13.18401295058223 0.019309241851573195 0.6786272528024441 -0.09735276431956137
Ni 8.584529205232641 5.410293996942996 5.493644113314408 1.3398170268547311 -0.461356951488928 -0.9188369365209531
Ni 1.4339870724109387 4.817248491052728 6.991266551098655 0.6864958569172435 0.05739319320748825 -0.22898450442665083
Ni 6.019619437741226 5.525976972085799 8.811772820264663 0.3510486554499631 0.1410581756273119 0.245966383696628
Ni 2.09880513140142 3.989353110275034 9.406222088328269 0.5506814461873741 1.851933468284714 -2.2026291112706327
Ni 2.5184049335113006 8.334807790489053 9.065763895796861 -1.1220638723675256 0.2801337736069563 0.5375449088054162
Ni 8.26373943491474 3.5856904100670857 1.6791145248737258 1.5565363407607837 0.6521873134433608 -1.507819849391687
Ni 1.2498950139297835 2.1826324342541987 2.2364062545378403 0.22648307816103577 -0.404184101822362 0.3596266269269613
Ni 3.5305684221516236 4.277823920456925 5.285531506594551 -0.7071047914168467 -0.9442741456471351 1.290018101054733
Ni 0.7049054297279923 0.5878362973499974 13.212261463703404 -0.4436438504798811 0.3092265772078545 0.1303968392587238
Ni 2.8468945478294962 7.004439677711432 3.481760121001265 0.020202700200120046 0.6767891711524409 -1.0191181873412192
Ni 7.705607301098006 8.287431975358484 5.829925302626404 0.47345887695878464 0.21243122805365997 0.6076583777930502
Ni 8.773207813389062 5.652575008880042 0.010322979784268922 0.09745278023253538 -1.039778286793732 -0.4711320285978209
Ni 4.568777953493303 9.205418310666692 10.577585179484899 0.7845394766562424 -1.1873022726510454 -0.04518251007390928
Ni 4.995067632099227 0.44931971742990817 2.642677265318692 1.588858192821941 -0.9241151542007568 -0.7659771402730228
Ni 2.025633449006328 1.9987720196960368 4.922980969839435 1.0676356753256322 0.9829540787158362 -0.26455031734640244
Ni 1.5889383253795495 2.5958203325756277 10.927848395988763 1.5551016651967864 -2.324556479605764 2.607792546287128
Ni 9.076642820996312 8.740147592699472 8.19209938213848 -0.2060718614945354 0.12783319229660564 -0.4656064707939014
Ni 9.44671715237025 0.9795480242828809 5.650278027739642 -2.364426062107192 0.027028979093334096 0.340973016381516
Ni 3.094021550635561 4.982679315097551 1.9738851231853396 0.03363465733530981 -1.3938937540944767 2.030987149319192
P 0.34697572594874493 3.176421926922701 5.984416047476104 -0.7157025603881867 -0.4200475512171798 -0.6654580624103379
P 6.862636533811916 3.5327829380554387 9.578790324928358 0.3462149815067456 -0.22072097886627795 -0.9950773443419315
P 7.229050891202558 4.293816616900376 3.4965556816506864 -0.22586652762295942 0.7276183379891662 0.3289754777000076
P 8.503009075852875 6.872291452522272 1.6428789292877457 0.30404194768312154 1.3875765536271973 1.0078544415019417
P 5.128846630506259 7.045774219330339 3.0624966658675707 -0.590248666957035 0.8477161093147271 -0.9124253765676543
P 0.2817846399886149 -0.3071014676203876 3.9270612796550872 0.4227988887100718 0.8850361859214241 0.159967353826989
P 8.697200809376534 5.867503506390052 11.442651997297464 0.9554885263057157 1.8086669442865948 -0.142058077646736
P 6.411014275787455 1.2258503747230896 4.591758883805612 0.10124978538112239 -0.0772271972142799 -0.4455978888824583
Ni 5.512402638198398 3.422455570412238 7.778110922419185 -1.2580155800062076 0.2537213450516986 0.23544645800191064
Ni 4.442402294865133 6.410866023676739 5.057049059862363 0.3736013439394985 -1.5802989903980202 0.6772583974793756
Ni 4.172481530036538 0.03612347992725143 7.717749148965618 0.4095397097073205 0.3113618783833025 -0.879111335796557
Ni 0.8167570143844883 4.683812325651725 3.3730653797273202 1.0431032374019067 -1.39783911189547 -0.6134654713931306
Ni 6.1927686373001825 3.473259715603106 0.557502988921884 0.38021344993937745 -1.2926354840729222 -1.2097081511500714
Ni 5.746983806135151 1.3386609652207773 8.916358198344707 1.2852659310817285 -0.11536488462626583 0.22500366540203184
Ni 5.518388317168542 2.580235329436645 11.090476328565368 0.11167046649381412 -0.07633630996889433 -0.4425315912523088
Ni 0.7266669864296653 8.724784967726563 1.8235565563439813 0.011224665071225829 1.049526110209115 0.6807910932229824
Ni 9.012273607674963 5.379105459151192 9.373036779920263 0.34701613725180236 -2.326317171050613 -0.9491702973971717
Ni 1.1343695566546153 7.716253655798774 12.904594784910914 0.022779974008993027 -1.8747576652680809 -0.2602290642632293
Ni 3.829166704646777 7.634538945523693 1.2806489877220526 0.09416433928925073 1.0550447260344993 1.0097305754787318
Ni 5.011625539714781 4.392052171763331 3.200198785754415 0.3387191873503328 0.19935614003725668 -0.4352340291496311
Ni 1.5030818217613502 4.734116119968928 12.011360992638066 -0.587715101901904 0.056668399226321754 -0.949024515847927
Ni 3.4026546478747797 1.692631411068225 9.388212236603394 -0.6850064168559107 0.5490647365195577 0.30300065090280076
Ni 5.195384030946825 8.577969049333474 4.878513675805969 -0.0332199383953944 1.3875390155210425 -1.2773646739567808
Ni 5.454954945296084 7.538138010530844 6.882206739002073 1.6869745747804044 -1.367609109366335 1.072139733843573
Ni 7.44660159792085 1.7899774532668868 12.43318735613576 0.08457515293891886 -0.61886684491436 0.6962480512080009
Ni 0.9810490769038768 7.920294888928103 5.758104567590208 0.857942929249058 0.3839996564546871 0.7483702258245369
Ni 7.481292591828312 8.74703205009083 3.579470307446872 -0.7930649976287503 0.6357757048545567 -1.2013428099045116
Ni 6.076316604333042 6.655139173351527 10.904129911425644 -1.8357386036924062 0.20711187272327555 1.4979018189470268
Ni 7.8077808026518465 6.523667348417507 7.611930498639557 0.8109891862073388 1.208445482387564 -1.0734270851964287
Ni 0.18276798181732598 6.747472441056616 3.8769789369282655 -0.9393677094844531 1.8974800465662611 -2.0431135002690812
Ni 4.488703282193013 1.76841603691468 5.7290554930711695 -0.6391777885575701 -0.10173829498176672 0.3461172795866168
Ni 2.927627087871086 0.17009613265390602 3.429290919291921 -1.9568491325531974 0.19886197400965752 -1.8694645351899417
P 6.480442592386977 5.483827043857957 6.3008166287411305 -1.9962582304784393 1.3805810961459708 0.12359498584554197
P 2.6177709107184635 0.6218990729383013 1.3063382987819983 -0.36339766393361933 -0.7034250285724143 -1.6674326480927346
P 6.859356455862332 9.175962469418877 7.596768940591805 -0.00686998764695591 0.13911519296832817 0.5733781164539415
P 0.7237566121811788 6.75486651507856 7.761010041448135 0.7372016108022271 0.3080644385789533 1.2172538247078133
P 4.303925557699799 7.245108447944447 8.695646941941096 0.4513838994366161 -0.6088212877528999 1.082023311505872
P 6.7551537535430715 8.926324446487566 11.036271650584958 0.10669023967040335 0.21608965074185366 0.22923570120550843
P 0.7409936997789488 1.0609291673088517 9.446254791099953 1.2967371649461217 0.34172069318081794 -0.5711669677352357
P 1.9956123965864097 5.8068869246211925 4.946876430359722 -0.5646487070007437 -0.2086735607834406 1.1115781423448534
Ni 6.690877197790918 8.133685270789439 1.166605124978349 -0.7622084172592098 -0.8147239706594228 1.4656015641524243
Ni 8.808204577274875 2.5457111191537387 10.567183440766811 -3.493137521698223 0.5167971347351035 -0.5808736535000384
Ni 6.594318744930433 5.682864768250633 1.937350243650852 0.30966237919369244 0.4157419818632905 0.008954123869494256
Ni 5.898136098766673 3.7059969979128335 5.28987066056006 0.8337629895687447 0.010657479713846162 -0.3512232333546144
Ni 6.5670588880725935 2.2458341622036633 2.5728634932313095 -1.1765134095656578 -0.039702717906260655 1.252521903881488
Ni 4.319028741478955 1.3032843053012562 12.601009672041563 0.025448521980091652 -0.4789407260089623 0.7713039518025748
Ni 3.8519141378847093 5.1442277869930075 7.9362097530134275 -0.47841956339816955 -0.9867073751106813 -1.0502784149941073
Ni 1.8531328524317527 0.7279521469144317 7.304683558635529 0.5534862626260211 0.8048856444127621 0.3246462541970344
Ni 3.945628003370838 2.2957858577579167 1.4664450189007456 1.2734794799697617 1.2097626585370906 0.9593634358800897
Ni 2.862220109774726 5.862462934625721 13.538480041000577 0.5817331732868563 0.42307425385864555 -2.4760916435049998
Ni 1.270863421839128 4.133732134598236 0.80307612429251 -0.908055786745049 1.0925265250300409 0.39877732898449386
Ni 0.14319764031593576 2.971157613879968 8.190010880528773 1.0979826630486058 -1.3972984089006517 0.9896682575112181
Ni 7.8404425957938875 4.093416826240499 7.115245158411692 -0.6963084721322911 -1.0117247230906254 1.7114589330750138
Ni 7.974156733902482 0.778894351883404 1.4826508277533499 1.001251077252811 0.9341645680169589 -0.9223675753820308
Ni 7.861299814620195 7.936945454112855 12.741763005682076 0.20957961753747778 -0.5549921577475861 -0.9464762955047765
Ni 6.827695364467622 2.014301428293501 6.609595198363989 1.2600904602573653 -2.622748396266012 -0.26442818994624134
Ni 7.193322132520087 4.418728285935227 11.539412443658799 -0.3368319976299489 -0.974918095785237 -0.04048613303950447
Ni 8.635954156137132 2.793672040082579 3.7965734781059424 0.7690868895465981 -1.3297737836861163 2.4156244393578783
Ni 6.832448697767442 6.5412908180788305 4.346392374814295 -0.1310558129989614 -0.8115044352808605 -0.4035220427583308
Ni 1.2365523239653753 6.879379756565864 10.403050749266441 0.23911645065433013 -0.06136349070914593 0.9405028515301609
Ni 9.194373528418376 9.036679611401526 10.94812279870482 -0.8391633346487097 -0.03469163784491444 -0.31323929791167343
Ni 7.75042576731873 7.306457024509966 9.721170725483974 1.110097701144585 1.726045572639937 0.6528863963929143
Ni 3.9099085104452866 5.528515789481805 10.260534142084108 -0.2548446600228643 1.0109711327540525 1.170481858659597
Ni 2.29600823592399 2.37331244590528 13.402202067952292 0.05782590986953267 -0.4366368230344287 -1.5338833792479585
P 5.942241101704578 0.9409654124691337 0.5853234240733671 -0.20997299632115451 0.3880689414280542 -0.001682015688113232
P 4.626271975180214 4.7506647618275615 0.4923591583220445 -0.6328119942405425 0.34969471252523 0.6350655661614095
P 3.3826869417127656 3.033006541319152 3.5397081647772435 -0.7826386600891038 -0.3652043781250549 -0.9434922731757881
P 3.1371814463676535 9.240211227900271 5.389370991242558 -0.510745786334701 -0.5700991885923536 3.960942028584708
P 3.562136855977137 3.515696882295461 11.043702787634581 -0.2311830547398664 -0.25251549766905546 0.022669159462741603
P 3.282941068471894 2.8716897133466883 7.493281554706749 0.18188060896031258 0.5769858884098579 -0.04916412042947662
P 3.143537755614587 7.444294424447839 12.072780915531867 0.41157139542536864 0.7594925609899436 -1.305329791711139
P 9.327096230536561 2.5623153555538916 13.337174985889641 -0.7605716529867353 1.3377858553573154 0.10514474956015442
