# total energy = -340890.58908443205 ev
CRYSTAL
PRIMVEC
9.10485119425029 0.00000000000000 0.00000000000000
0.00000000000000 9.10485119425029 0.00000000000000
0.00000000000000 0.00000000000000 13.32587005524755
PRIMCOORD
 96 1
Ni 6.465181748616415 2.038312112624483 11.1663860100875 0.18288796717890438 0.6024382670446915 1.2356292418912076
Ni 4.740194875669006 0.5341442820553652 6.242677398306116 -1.1760369841498715 -1.3056869179402415 -0.6570376995571264
Ni 2.640534276573012 1.6200807789841027 4.839716360712863 1.2530842041428611 -1.00197638545461 -0.089170228508769
Ni 3.5610438240286806 4.352100599051586 5.086710939416021 -0.6709008306924639 -0.8564421763338154 0.009888462758305551
Ni 4.98377695619325 4.714801446050568 2.66665336282128 0.21239548971971808 -0.05967273327028432 -0.14565068009400078
Ni 7.170516350868577 6.1943306391544795 2.766063768682151 -0.01968230892027578 -0.8761897912743878 -1.2486716768974624
Ni 5.215049278078507 4.5376392540406725 11.568161235914197 -0.08041999311996471 0.7011634862317473 -0.4044424976900712
Ni 5.604800637589638 8.291514718760974 12.545587028343256 0.9796044455173128 -1.9549056356735812 -0.08849145727418953
Ni 1.8708556918491728 6.657567251605885 0.40694951268655893 -0.15958477367658966 -0.8276321940806585 -0.4955263982817853
Ni 2.49972775486302 1.600177574557459 0.49114389144870824 1.0575731488833076 -0.8009958224400527 -0.5632379426961461
Ni 0.7124609691802183 9.050841087824661 4.8934058464690535 0.13484073396269036 -0.2812753434105672 -0.6269701907477847
Ni 8.449902707876204 2.4108097793686922 1.4072785579679616 0.722651223791878 -0.27338179959510334 0.7005762462697096
Ni 6.791190045826113 0.5556854491884832 4.911835885993487 -0.24016777473697992 0.21726541621750967 -1.0731710033215647
Ni 0.6450768769381569 7.283935480577039 2.4821034946577805 0.04368021449676993 0.8344271055153047 0.34224442689477186
Ni 7.789582489286132 3.62778238233028 3.6558990729020633 -0.5976323610156159 0.05652698855245104 -0.18014999942245102
Ni 7.71612455089905 3.9782372046477263 12.948107941472122 1.28981575523594 0.30874295270321667 -1.7081712634626773
Ni 8.04713141134307 8.953719641521364 6.889768268299704 -0.05250681164946441 -0.30579158338437656 0.20928548333582667
Ni 6.976865273581164 0.8625243929673231 0.16006510268128046 0.024841484523712057 -0.2550794017414897 0.7088094328127793
Ni 1.6298138647718803 6.572546152367093 9.229697692617629 1.1923735165263658 0.5419260685922473 -0.6793751867120623
Ni 9.109130344338555 5.107502777306544 1.5828200864884043 -0.30091728601121076 -0.9780874946521543 -1.0836526195791787
Ni 6.436574306572265 2.049420030922976 7.026318272137118 -0.300637807097579 -2.3297045994656074 -0.7509909512768357
Ni 3.6471848199483854 4.4677139978665545 0.4532449488934 -0.2828419165667387 -0.7611370385719021 0.4146407783793117
Ni 6.191936063324558 5.316714045062909 4.7591475336445335 -0.28985614310104274 0.9613956358187701 0.4762603509633217
Ni 5.384554290343294 3.1537292068144414 9.280521881743873 -0.23190784872103287 -0.4991033169997663 -0.44828417746536986
P 0.2179655820547271 5.56631443214068 12.499173229072579 0.014768930779058434 1.1261951209270797 0.6376590379201985
P 4.0608546232055325 6.184424561196479 12.628859996177694 -1.7216016779359704 1.4856685101056284 -0.9216412387389675
P 2.227183143103117 8.600679041501646 1.4839559716913933 0.6619685611998405 -0.1276681274736511 -0.0779188239646658
P 6.675904421649462 7.560823106294631 5.7363875871118815 -1.1993998272455277 0.05881886991042129 1.096811782668956
P 4.663841594643467 1.1236023552967986 12.732468648864332 0.15089367366049497 0.6488626199455019 0.41012000769082274
P 4.0900720902709935 6.046604430635591 8.283466940905207 0.588897038025147 0.297488719945636 0.048409758761955336
P 4.724589160944731 0.9524220504361739 3.78666567534341 0.1651571255580446 -0.9544238324866271 0.9353362197275569
P 0.39390772402200075 5.327448664467765 3.6878543686825713 -0.6095095720691761 0.39411746161497935 -0.44380325887588085
Ni 1.310734359222144 1.2458896099419263 2.550584721453095 0.041843418398347286 -1.332609967583331 0.23555650121721367
Ni 1.7952125892066502 6.542891652450543 4.776244622973148 1.249976254641499 0.14287517423139262 0.13596353471322392
Ni 6.1953230679204925 5.735864968660787 9.289969985693336 -0.42349231523267067 -0.14030227129789383 0.21381319600285112
Ni 8.903014725944065 2.353858935961256 10.178152759445071 -0.5281963777109807 -0.37184348070812734 0.14026807562584875
Ni 2.428445875880316 5.403201025323059 6.961900540371818 -0.47092788300681476 -0.6530774293577979 0.6244906188590406
Ni 0.48715505619742155 9.12215028136056 8.829681524016564 1.147179693598547 -1.7331999242965315 2.4534170847256203
Ni 1.6333738615380367 1.0728792300173697 11.48331494981584 -0.569465925883729 0.8202973509821422 0.3338505464041218
Ni 4.082114450440762 6.965821089240123 1.766970251690179 -0.45030583588108897 -0.45357396510939946 -0.4813061409173453
Ni 5.629219848144193 7.859607898821958 8.142106844250502 0.7939306880631553 0.12555750888855152 0.40965386668768156
Ni 5.331117919446692 2.872680664160446 4.822672079520422 0.41861184721191774 -0.8587934501748113 -0.38786505294736423
Ni 0.7648302515320793 7.2278404931696505 6.822205720976782 -0.3533482501174172 1.5609154436650858 0.2181007676346115
Ni 5.367637477065753 4.438496530801093 6.870205585302868 -1.239879275416813 0.24102523764126874 1.3909842937571657
Ni 8.191853019010727 7.175369236485868 9.080314401205031 -0.17721122850910126 0.0760023236682433 -0.19035573631085925
Ni 4.555930899828928 0.40640140065248576 10.653473330229065 -0.41091987788429885 -0.39399533421481825 -1.060043207690355
Ni 8.398059685915861 7.064371997160521 4.5802080747068805 0.15337041733576168 0.21631102272404037 0.6130281267453959
Ni 7.386638200582775 5.874814100753655 7.0783424806336415 -0.8769608651124575 1.050787236309726 -0.5753612083222415
Ni 2.3504173022589363 5.31293553187121 2.4830094273386822 0.1582629695413726 -0.27654837024854306 1.0694747854169
Ni 2.108064376628379 5.564074638778853 11.372191153060696 0.5788705070270804 -0.9155107003611975 0.6507377254810276
Ni 0.9961253355449978 3.128909382813055 3.8571863887771354 0.8432899552225736 1.5131741717250649 -0.23382897700314567
Ni 3.8487480128107068 2.619483860912262 2.7705815957802757 -0.9680295961955201 0.39977183168727926 -0.11244051189061925
Ni 1.2477561044101158 3.43652588087279 8.145384590633665 -0.6708568648284059 -0.05957246024699418 0.04944257090184388
Ni 3.816352952723791 2.545224695631519 7.254350177528578 -0.38672168337154045 0.7381066391149997 -1.3050531410109847
Ni 4.327235250794878 6.9211253753652855 6.35882525187856 0.26300559856710193 0.08734783058804955 -2.0528564385884582
Ni 0.3650380622671968 7.430323275989471 11.116773676637921 1.0329196120006856 -0.47132254734207213 0.8133353178420122
P 0.2431441371880483 5.475721164050514 7.902854120407352 0.10146344405382526 -0.10844836001209064 1.9764710205491833
P 8.799428835385086 1.6775050746468843 7.972214875815481 -1.8035023693665198 1.184610327641179 0.07716446229714453
P 1.7413756048632179 3.314275045631919 10.671636597617313 0.9367870932414705 0.07670037817653243 -0.48658101616303945
P 3.903113078515871 6.108098594724131 4.0646030903887205 0.4781169445560862 1.214567536124902 -1.069115088084636
P 6.991533188645814 4.1174594822725235 10.504156504229236 0.9680118555837071 -0.6976109929937986 -0.27903282723329365
P 6.54555026896133 7.849856603332051 10.457396720618114 -0.5988986293225492 -0.24783943234962477 -0.5885928765211669
P 2.5834559652506757 8.452907308727434 6.090468871608253 -0.01917734425939923 0.045185338287386696 -0.46145748162253425
P 6.924275653833546 4.025500486522707 1.6137492655539618 -0.6697458911524143 1.0457918399776636 1.2288829243063095
Ni 5.695767204573442 2.95050893105841 13.451132753074685 -1.6280621167149123 0.23087992167715077 -0.11462697801897678
Ni 1.5115873737014471 1.0385812560580074 7.006741931863684 0.9077660234187721 1.314258975879969 -0.6843214749737441
Ni 6.996094719029047 0.6609347960369149 9.274832260313767 1.0605157764513995 -0.339083512668287 -0.28669574309519014
Ni 2.9944125228906495 1.9764628593444329 9.268102864892114 -0.39462294049648816 -1.0113390576164325 1.680699797515286
Ni 6.062337613274767 1.9791305807062842 2.2714873483821876 1.7733865238177458 0.2361720233140255 1.3208268589054735
Ni 4.107334887888979 6.7506552488876785 10.36658038367687 -0.08825517289366737 1.0084277975069085 0.48433181511754647
Ni 7.8964916504835925 7.321137902025925 0.6946974047536942 0.4058285794043205 -0.8860929093207126 -1.6192470895264437
Ni 7.524786105781981 3.5893325962855798 8.073104819974308 2.4990281976965156 1.699128436534119 1.9920357077566595
Ni 3.225311545882269 8.46742044132399 12.750205809222768 -0.7506600502999782 -0.22983322558019126 -0.6028535002052392
Ni 9.12488173667986 4.7767963769476465 10.168345013878566 -0.5120382798938794 0.6531100823679462 -0.049107041939296076
Ni 8.704674650358518 2.1568663783332322 5.609684479700549 0.10784672187234974 0.05031931707984238 1.4639051502866078
Ni 3.690159716972062 2.832063923562433 11.835198323265281 -1.1438647702927012 -0.4659962500331523 -0.6815367131397553
Ni 1.4005901343760987 3.6229659161172454 13.000971617236775 -1.0356634932944098 0.19558201770680508 -0.6023158825342143
Ni 3.252107122564617 8.812057263811324 8.28670553642879 -0.23410794169614518 -0.688894181946091 0.4027080314974677
Ni 5.5037914198818685 7.690339612684844 3.8421551901550193 -0.26717387101217854 0.389128235930504 0.1921591080681852
Ni 3.0391901804250656 8.27444312301534 3.510527378868412 -0.12941776317490616 0.9602900614594172 1.1058625800173147
Ni 3.3193828670790126 4.353184076328243 9.281894893284374 -0.2063138023020124 0.2057263052296586 0.7611522080805536
Ni 7.315265273089428 6.238862465710159 11.789343561849954 0.011779509133431326 -0.45592138229565354 -0.7848881182449128
Ni 0.4866151385293063 8.867733428069753 0.25032513322249195 -0.14794924632019038 1.110631462160868 -0.4676533260206011
Ni 4.548601494722136 0.30888207235767734 1.569080866232318 -0.82466411259127 -0.0651664093950039 -0.5344937806839182
Ni 5.782026563556983 5.718520227383224 0.3746928463358211 1.6194226958723594 0.22502860510269632 1.0409908190445945
Ni 8.052831048109345 0.06811521178252782 11.412221541250169 0.177164691541882 0.45265325306734294 0.2144657419851855
Ni 0.051025406334764795 4.840849004185267 5.853881137671635 0.5223918552140616 -1.4769388435421145 -1.136037046718166
Ni 7.7154234773670956 8.798536559980782 2.490698474062516 0.4664467073070096 0.6212988513946203 0.8801642025411036
P 8.486759144984646 1.361248072927093 3.6321654576326527 0.0260964399767357 0.38834559212820857 -0.8931791267435327
P 2.109393684883772 3.29293327473711 1.7559761440299906 -1.0401264141617699 0.023816642803623497 -0.10123127343836114
P 5.141245355350981 0.9922921932469113 8.424881666666296 -2.27552502809941 0.5571063758771115 -0.008747664285643
P 8.689851952825776 1.8972688647868183 12.560911403169644 0.4372538877931373 -0.6843903805384665 -0.23967977935696785
P 6.032455492081608 7.819346247415454 1.5404169741115679 0.3972326102051933 -0.45982791643891135 -0.2464680059233949
P 1.7755552157587435 3.2189745695414897 5.997187851483894 0.8552350433995916 0.1626716401320295 0.3745634507424517
P 7.1337873816750355 3.6806178330566355 5.869925706217211 -0.10501953683619977 1.4487924630148854 -0.7255041198596408
P 2.3389725044710628 8.455693393153123 10.47152198655933 0.22623933758134582 -0.7805444965642363 -1.0253389714399501
