# total energy = -340870.79837284016 ev
CRYSTAL
PRIMVEC
9.23742231979836 0.00000000000000 0.00000000000000
0.00000000000000 9.23742231979836 0.00000000000000
0.00000000000000 0.00000000000000 13.51990129798200
PRIMCOORD
 96 1
Ni 2.3361625305366296 2.9201615947712196 10.41500130880505 0.472697830423044 -0.7217037722769443 -0.2002593685778164
Ni 3.4531608514475747 6.891227755141091 3.945093300577897 -0.4258289337856473 1.362672848406982 -0.707133330661937
Ni 5.922490059354158 9.389285345859866 7.651615394873687 0.21358771025560636 -0.692703271279536 -0.485842338224802
Ni 4.385078182639846 8.79082971599792 13.0369022467419 0.2685491540931504 -0.5647543793406726 -1.4189388699885628
Ni 3.333610134291502 0.3563871355628963 3.4063659184411432 -2.579353831330461 -0.155416501231513 0.695044774928519
Ni 3.0260501646027804 1.6497112175013906 6.529179003557104 0.8795042003596014 -1.4288306751809778 0.2626582425300122
Ni 5.729076914877736 6.01587115962697 3.9731612077080722 -0.9488550801495981 -1.6579393638903188 -1.3189967476752702
Ni 5.067012396255419 7.309627552920966 5.689039156156553 -0.3054226300807321 1.4993524353506242 1.1701751260524555
Ni 5.845976491883617 5.1432857907506815 0.09810788917474114 0.28321729762828646 -1.6562306087293281 0.7282922241277393
Ni 1.5923375886761422 7.492796396259536 11.102271981182875 0.3321446194566086 0.13479214011294208 -0.021896028742142935
Ni 3.075110113514533 0.9952583347109851 0.9267443748016518 0.7722930551887216 -0.32844685889004727 -0.9471779495574912
Ni 5.247816459529705 8.62785387742702 3.325219783774359 3.267664115748624 -2.7840167282926123 0.3070516810437228
Ni 0.9738737024890481 7.02535512441216 4.281969153126031 -0.3275094346774424 0.3903793347287857 0.37812468573114877
Ni 5.636693456194544 9.099618262829413 10.664092091404367 1.1178349218878425 0.5452996130501705 -0.03891853144206846
Ni 6.6382240005291555 3.3454247971907924 3.3425926035669282 -0.8290696978581334 0.17920563323131072 0.3375429076540445
Ni 0.05996287824719624 5.665135478920826 11.806483161997766 0.1996973254267593 -1.0335456756204588 -0.0003303867562252375
Ni 2.811261625326548 6.402817535067452 6.0928382845239035 -0.18718710877489053 0.6191532658065272 0.37562917300280474
Ni 1.4985315669855288 8.095381153811852 2.341376131584604 1.7381796368993097 -1.312831499404823 1.1023085441174691
Ni 1.0248919848915352 5.094817036855 6.545011021339038 -0.3921837349273761 -0.02002015187566875 0.2358256957182003
Ni 7.992965854699707 7.4057521675652325 11.040378481711322 -0.716294942556547 0.005558982145016232 -0.8254305584436494
Ni 5.554480399272194 5.418976654104335 10.026764465493551 1.28779615370275 -0.2907650280685573 -0.8851793963675079
Ni 2.975373666818959 5.40098215580268 2.19376582097827 1.076526807167675 -0.39613680603785323 -1.4493089976399878
Ni 4.471494266629574 4.5799416023900665 11.893781419800538 0.11031832334129388 -0.7255650550045634 0.4909742601347286
Ni 1.7768458582229967 4.936718557166684 4.06982805903114 -1.3906238250939535 -1.243062044020169 0.6780641812101226
P 3.5953432528126084 1.8317161456520703 12.452896716311821 2.670684814935975 1.4369533042881124 -0.3042481501566566
P 3.7177206211392697 7.8920654928162435 1.8907044758649623 -0.46979274096110707 -0.20595693318322597 -0.815670393733092
P 0.38459268028275045 5.643353637547467 2.373121456463182 0.6889196358673878 0.2439465250531218 -0.04835602270588446
P 7.075126354827622 2.6113453356733474 1.011546681145949 -1.0172862763388026 -0.18418843115788278 0.4105689223027833
P 8.735035686356234 3.1026099191839527 8.139358673069822 1.1376172467210923 1.0769052735530162 0.4935849582846983
P 2.642133663619661 3.6716258847299974 5.791601330280502 -0.17350292641957862 0.03987163938395714 -1.1584298125910695
P 6.154691139338102 7.531519669812175 9.267094573460152 -1.496742765641919 -0.4461511902827671 0.15108599217695914
P 7.320139739300476 1.2001074077795266 10.988163953143504 0.008529377627249826 1.158130793293412 0.8332978770068682
Ni 7.431247452633286 5.477431061318338 2.3975655228932857 0.35564630212297454 -1.6722274983782168 -2.32705584898885
Ni 4.44286749546077 6.080634726153104 7.778607779294552 0.7796726354822443 -0.527925126327465 0.5777950145747146
Ni 1.8362424824938626 0.9425496040594205 12.204428535963805 -2.984547348253944 -0.5150858084709516 -0.07555855126260536
Ni 8.253387259278906 4.226915040996648 0.09829448510168849 -0.25370900375652433 -0.09730956978645176 0.9836608749748736
Ni 0.8499416760185632 9.13791661496425 6.61485517003453 0.5362233617805151 -0.8626189945684886 -0.6990063306794284
Ni 3.4613174951849266 0.8092813150460795 10.476693432474253 0.12678983863375584 -0.7793625604409933 -0.7344369035728964
Ni 0.06010421080572568 2.4942148231143144 10.656885978403793 0.1750126781958857 1.345068762171974 0.22299460539180305
Ni -0.006257429748224659 0.22361397237551467 10.623546274466246 0.03873778288983006 -1.4707108603545316 1.2900834070750298
Ni 7.254664891270632 1.8407595819135287 6.376364329324922 0.7532908030546059 -0.29829347523511857 -0.8413937666411251
Ni 8.589195265829263 7.041354339534577 5.923393479238091 -0.6917308800639377 0.9677429181930366 1.7916565257715273
Ni 2.266835677480199 5.011264553724365 11.299243380662274 -0.7151122351023554 1.345135353743851 0.1262609627134793
Ni 8.970830123547234 4.973215611986932 9.29302586485256 0.5576334520251751 0.3111217373480384 -0.35666651585737286
Ni 8.452001072412326 2.045340769740413 2.435569201262301 2.0316810900624236 -0.8892715641590103 0.41745870744408103
Ni 7.128795777380303 1.0201162376523383 4.009894740534748 -1.8493330545473892 0.9013462359353573 0.39790675345408244
Ni 8.598534299598757 1.7187794227382902 13.291968717714594 0.5205386040554068 0.8249672456539858 -1.2837021861390343
Ni 6.898765491595994 5.987410662056436 7.94575431395539 1.176305921540542 0.8474584847779663 0.39232334582903405
Ni 8.004281696804188 4.431200631315496 6.499272849423833 0.4475267304740551 -1.5816205374229213 2.392926997760363
Ni 7.528341996600794 1.5795068093429798 8.687658795755858 -0.5233333931917244 -0.7372915994128721 2.1746519093314163
Ni 1.7805223522291873 1.8753999148864289 4.3427135172850955 -1.226958453590087 0.795277689009353 0.6778965452840068
Ni 4.063403431942434 7.303272206498205 10.352404841509701 -1.4385422460417872 0.2298216556159655 -0.8427847334513807
Ni 4.9248669445788895 2.7580633113022994 10.476625075550519 -0.49124859684203787 -0.2876347099696917 -0.9302924866560622
Ni 0.6884669185431556 2.364438279664642 6.444923552602672 -0.919632435839055 0.7510261753901453 0.1612642182615416
Ni 5.044620885021737 0.9516669396978877 5.241787194107995 -1.2653231694112144 -0.6282261746420729 2.1125330285134845
Ni -0.2617608307874848 -0.07068567785118086 3.991642518155774 2.4001885644187824 -0.8824411715007382 -0.13543517301357966
P 5.075270651636159 1.6013533126712223 3.296246609275826 0.5637812167941259 1.6491819294126628 -1.6269868813728625
P 0.058860853787551716 6.9217759101121255 8.039892882842542 0.12648670557104025 -0.49359035760133707 -0.5829829865335573
P 1.5859730048312546 1.2486592984743432 2.3191093255496242 -2.6581216335589835 0.4151575701147302 0.4550888590920291
P 3.5567215909033565 4.670468339225912 9.519983784037725 -0.08826057221030606 0.21980232370675049 0.12364872190161286
P 0.7270617919282417 3.5285659282629833 12.605212569749193 1.5822306602030944 0.06599610438515086 -0.5337134508744679
P 0.09317972447046322 8.071308431751218 12.699770517600873 0.6049736318720356 0.11265108523952858 -1.2811992172115225
P 6.209025656283861 5.449607945874504 5.95262345407173 -0.9901750219443075 -0.5740165213688888 0.44396575259567417
P 7.1682580447030295 5.297661589322177 11.962191920582057 -0.11447451160151252 -0.5326896375956439 -1.7206341718163787
Ni 0.9574680407930827 1.062451343256285 8.74052179135693 0.740148609245693 0.5775939543075022 -0.6467352891898539
Ni 7.197494485732158 3.5526017006351127 10.378660366418734 0.10276930734944235 0.6212132336593496 -0.33321111304791
Ni 6.457724772185031 2.7550611491113153 12.503475297421106 0.5822728478404101 0.018673922260419456 -2.1196367294378007
Ni 2.5784785877486596 3.510608379649832 7.871841080813347 0.07314839915921596 0.7061537403574871 1.6968057019382132
Ni 0.9625763352288197 3.445068869665105 1.7503944999648904 0.7609802012790636 0.9522077986719149 -0.6934000402362445
Ni 7.972929886108182 8.522260905103494 8.769562399036984 0.9039145108831659 -0.9014981881321895 -0.6210985624583562
Ni 2.8205452345632853 3.8120162262025667 0.08788760533441671 -0.43552327825527576 -0.857191138684698 -0.6082433037622428
Ni 7.5504286729043155 7.169532808956433 3.735413055737402 1.0931415329062206 4.147984384251617 0.3432471571276734
Ni 7.144776517658467 8.879702954273192 12.94410218032082 0.27616450454656305 0.49828056398815473 0.0475936906185632
Ni 5.7478843063264895 7.030934527376329 11.97003356822491 0.2241968532300203 -0.6048713019662163 0.8990265866632453
Ni 9.467341562825467 9.223150308921838 1.005945108368678 -2.194008973701789 0.6363297775858138 -0.009745252312221925
Ni 5.58106570015113 0.47596925995419764 1.2385239989175791 0.8823997767398416 0.8794134404180082 0.6575084685459579
Ni 3.314811980264875 2.72358925192767 2.487675651991244 0.3763889339869647 1.3415954589113928 0.46824905062307104
Ni 3.9742345961591257 4.405991706333352 4.259552700852608 0.7436301400363904 0.019952274752210796 -0.49966818836430077
Ni 3.8250502288225032 8.496349936039765 7.619600337269027 -1.456413212784937 -0.34031481397222685 -0.055789596165794236
Ni 6.350118041838014 3.559308069098666 7.871177833904691 -0.46126413466480554 0.4328243912668739 2.308803330536566
Ni 1.5506768148874008 5.719248297735559 0.30185031907257515 -1.160060406215957 0.5738411721332891 0.1452390464778789
Ni 2.165750567154214 8.17024122272182 -0.002733353207114964 0.2594176241055274 -1.6028514217772394 -0.1128544594995863
Ni 8.37723337772362 5.170582373133327 4.575337671202415 1.0763895102588623 -0.1772053149718303 -3.220062197599945
Ni 8.109394323177156 6.594475569339914 0.25559947022937163 -0.3412715214585413 1.0507792658899258 0.5346467613220147
Ni 4.87186261641929 2.805913157915532 0.5194682807460339 -0.5708332385449009 -0.40414065017893624 1.2970212718454437
Ni 2.176853948549794 6.381432902845516 8.604714135001121 -0.6754771372092367 -0.016875949819732228 0.41993647956061225
Ni 5.673033474838648 6.945165062935428 1.3154726489702604 -0.7584767181309195 1.6783606078591484 1.0388460047874495
Ni 5.402617179519001 3.3295364311338886 5.85096654731614 -0.8295152700359844 0.38704847058333985 -0.6348832749472744
P 4.912276338221006 1.9773718177365205 8.270299131707382 -0.829478760371094 -0.18777923383293468 -0.04796984301105932
P 8.336117611840319 2.981442653155811 4.723840316786131 0.8604243009100149 -1.4325199511071072 0.06840111428221768
P 5.198100653646999 4.505321706455377 2.205015153643443 -1.226043140864669 1.2308912129855898 -0.1871950791946905
P 3.677288424493301 6.484365497596722 12.589582851511821 -1.2736887677670903 0.695840274246621 -0.07698937017186094
P 2.360771023080578 8.560688581148097 9.287185042842223 -0.6875057862389967 0.12555570911633862 -0.07374258109978914
P 6.694470663855019 8.787070085192592 5.543064793008751 1.6334118110626 -0.701670764885469 0.352058070551084
P 7.293406639667523 8.351571819057295 1.742174118014868 0.7867429120654644 0.1239945352768058 0.2776791414188766
P 2.918055462526467 8.691813788228181 5.475316615393672 -0.30830895048959156 -0.26701214862333367 0.5917836155443228
