# total energy = -340857.611325327 ev
CRYSTAL
PRIMVEC
9.40671739185849 0.00000000000000 0.00000000000000
0.00000000000000 9.40671739185849 0.00000000000000
0.00000000000000 0.00000000000000 13.76768174854574
PRIMCOORD
 96 1
Ni 6.3541154223965854 2.7054848499916755 8.411585609965792 1.640572333366781 0.414963194715737 -1.1182444986214355
Ni 7.376578587250088 4.640023349167781 9.183305192964543 0.2586375514063933 0.49752131722462706 0.8406306632228555
Ni 8.97665183697101 7.920663130744512 12.790162414042518 -0.301881449696693 -0.6797999329543066 -1.058911150968441
Ni 2.887476614566133 4.820020889620164 13.396326590054084 -0.04186244456174081 0.7550044433116029 -0.5073151633865972
Ni 2.830885801743477 0.20047502390212368 5.195496605608414 -1.428967200758842 -0.0277044078938039 0.3082747548175465
Ni 4.59655490733708 4.7859309451937495 4.474304265295104 0.8683456126396207 -0.23999139706011569 1.3584971197627378
Ni 5.677038706081896 4.732425535729775 6.930595760485417 -0.11408576080352612 0.20001074290212006 0.18211046558293154
Ni 1.0250217920289937 4.3974241033738455 9.344002030333561 -0.05025992459681667 -0.5702868791231276 -0.2551236247158638
Ni 7.416698237630511 5.075225136940422 5.148604118586981 -1.2203946843296403 2.9629523956919877 -0.3496605168531849
Ni 0.8813172492548645 9.115241006737666 1.1352017341018819 1.111677386926879 0.0018838472862741746 1.4240872469587218
Ni 7.562380072435113 3.253021658829504 6.407658458730788 1.8458733781335628 -1.6644671377065077 1.6968033879453681
Ni 5.595444837992845 9.386935229935272 1.1651179179482738 -0.5692316983857357 0.1783178313097187 -0.17810622951954488
Ni 0.08342159331036667 9.114817704447603 10.777369431510081 0.3650948491303841 0.9146864046876892 0.3301463580796572
Ni 6.097744742099264 7.584307131060381 2.788946892187537 0.12947124212066088 1.4143941880406738 0.5835689409440143
Ni 6.832023707877815 8.641913792706676 12.702297087358243 -1.7171372144067139 -2.958097124482215 -0.9234068152798225
Ni 0.052373781341872566 2.7726582200659093 11.946299892084191 1.4207846649480498 -0.2531212495738544 1.4673010633420343
Ni 4.8758309448855925 8.640615665683816 4.935796887967686 0.7435722902152614 -0.32524429279234957 0.227655244092266
Ni 3.323543820354015 4.5188366068814965 2.4725933367165203 -0.23977645283583224 -0.03190816156250634 0.3205314606977125
Ni 0.9648093929469084 0.8863347923997457 3.5532323463010256 2.7847446075975717 -1.3400905922310922 -1.5749804063985844
Ni 7.593290546327276 0.7620127911517276 0.24713798701516732 2.391688754477887 2.7534056882749742 0.15082991030209508
Ni 2.49207464877698 2.813041258537928 7.951345962071796 0.30078461708808846 0.4938947762156332 -0.27628997438083386
Ni 5.313723053879524 8.018953922497161 8.428093458606497 1.0704793154220145 1.5088791438941367 -0.4365846296402545
Ni 7.3447086281671154 7.914210122500439 5.194312299867994 -0.15716587982245192 -1.5396819882076065 0.011755597874031368
Ni 8.218583282490915 5.949325552485589 0.7604183525258232 -0.4148354108886211 -0.7599908407826008 -0.8608945556782142
P 3.845832999268969 8.820490918807957 7.08538611990042 -0.39520760935536453 0.4581464149714303 -0.7287653071094158
P 5.855841593404545 9.22350291910069 10.238653301725412 -0.6421579542318167 -0.6197515615121585 2.8118748881554607
P 6.256633608353836 2.3881304197725988 13.595737714200514 -0.6185356868271864 0.9260280549527536 0.05436443368349347
P 6.816493217191278 6.529117995826224 8.20436785091884 1.5096864702867805 -0.22827359440255524 -0.4878763379356952
P 3.3960602060006004 7.615170571364759 13.250361613051018 0.8024207278120374 -1.064697675743231 -0.08361021792248827
P 0.45333323586367685 6.92423776008867 1.737219429014341 0.6091200499402413 1.643045991718254 2.6707987148060197
P 8.291109074855058 4.4458216652043925 2.570990424377564 -1.2074208977777916 -4.539504774563382 -1.3627430395232853
P 9.28441141528199 5.003752896942659 12.793205487172193 0.07091976693901335 -0.06870681844809458 -0.5705319052543981
Ni 2.9849584286088846 1.4450223242295914 2.342929260567906 -0.8302174383093314 -0.39335152998323225 0.2946422516357764
Ni 2.4556894652666674 8.045443239137555 2.999179504211493 -0.45925790286805424 0.7150299598011943 0.24302632723169762
Ni 1.9790699000907424 8.66163027270606 12.076721208996139 0.5690303810082071 1.45392387070418 0.16749785787607926
Ni 1.3178623162946392 6.93762351917222 13.698926583785074 2.0365530734427444 -1.3342436465320118 1.6460996909429135
Ni 3.3361864487505652 1.2946747575167388 13.727094999509383 -2.9680272391117337 -0.2088309122969113 1.2119275273988934
Ni 5.123735579381652 2.4271965177866432 2.7257252841589814 1.0135116397877193 0.7450154504196911 -2.107094373996416
Ni 4.707826969318331 0.9463440063826006 8.838906449769214 -2.114460070332868 0.13708016481617039 0.21222811090391838
Ni 5.817593879817955 0.8519174942023494 6.746412230720188 -0.5739895247856953 -0.6823435253117668 0.5008208139115051
Ni 7.950501238835182 6.138955571716297 11.268186555494724 0.41102040801790507 -1.2574769338939182 0.7494554884689157
Ni 6.9627676752019685 3.0313429528822424 4.073636419017565 0.45515185111948064 1.3077764534794185 -1.3007897377489404
Ni 4.78163207527022 5.943869656302553 9.1080787319898 1.1200481274890774 -0.910763158373883 -0.43444881424417436
Ni 7.224265016567831 0.7621736460219515 8.972315340177254 2.2097387257322203 0.06099453740550141 0.26076591060330573
Ni 5.05986396716991 0.9149283917576295 12.65829622531382 1.9656893565526468 -1.3857896369301035 -1.2535272052175508
Ni 3.717290203853144 8.191444902339093 10.32562404957002 0.13830838079631663 -0.05104539661258951 0.31487271975003833
Ni 0.2833482055789197 1.966352017953736 7.898518776943678 -2.460359577481724 0.7452136824734263 1.757888942402779
Ni 8.406717633630066 6.255589462705013 3.208737654586615 -0.00671674989854327 2.8932932406329526 2.1666609207061396
Ni 0.36111636163755484 5.766176761651625 5.735919113957916 0.2848862006902771 1.1575762063415225 1.3850597007426146
Ni 5.994562457216999 5.346401990672394 2.7535635240970415 0.7869388301263543 -1.4901998223170787 -0.23244803749521903
Ni 5.2363245818208775 4.087905468879715 0.8761999949038796 -0.5787108415207646 -0.722755096359594 0.29720255616378494
Ni 0.292239435013756 6.709171976583949 9.411601524713125 -0.3900672028050056 0.3862293171161542 0.7238483294237728
Ni 9.356212890394248 3.8136808386592875 4.607396149321474 -0.1527358690755563 -1.2032418266994374 -0.7056968553257267
Ni 3.414732540351161 4.4471950459677085 10.2170244360467 0.3218918313803489 0.2833558800886798 0.19703289122071874
Ni 6.3006664532379535 5.351255856931785 13.066081194094952 0.24746430839839315 0.43119405475230255 0.789685539633556
Ni 3.9963498868978466 6.635094075822908 1.8206109208285255 0.5807602678506256 0.5285434766377543 -1.4270959518780582
P 0.9666060760002873 8.656202596675694 5.528550847430053 -1.9133558372562534 -0.380350489737874 -0.4102022829919838
P 4.379438459404943 9.285022851923193 2.9044030621381225 -0.4761868174129089 -0.540413745712779 0.6971782763317541
P 2.8226549238811387 3.122738620665642 0.9370783895889975 0.040739386700891125 -0.289346807564792 -0.3512286326712532
P 0.12049628921760347 8.938357089796636 8.63788489557703 -0.7706868870438662 0.08973175743919386 -0.13738278365825374
P 5.542814253261668 6.626176507578912 5.205368015012685 0.4340796038302137 -1.5580214099467427 -0.3930658804220134
P 2.730450278387841 6.402183749112639 9.276099639648661 -2.0997782999509775 -0.08856627637618295 0.3014597887782421
P 5.666785383944812 2.7026063944192464 5.691256959669237 -0.8078727520655441 1.4646487133208517 1.0826630019724
P 8.743431088581362 1.7119003080380342 4.2021716890593455 -1.0945342994886893 0.9418452244906683 1.7085790404240575
Ni 1.501782457968273 6.3758731601058285 11.646192678505795 -0.00641978748341475 -1.5797873408689243 -3.0471948478818356
Ni 8.663455175912109 7.483297797933771 7.134027315715693 -0.3595453800670646 -0.591911913592071 0.477652603325158
Ni 2.1200860029870934 0.4157214163839378 9.65257717105673 -0.8539883154766841 -0.14199380006770385 1.5616464082938397
Ni 3.3577560521086696 1.2512909761440505 11.238655106396411 -0.05258060231019332 0.7805069584580816 0.3556673851688972
Ni 1.6342384478877925 7.181803093515724 7.510930971429089 -1.2782385919213017 0.37393584446078176 3.348616841443607
Ni 8.179460744171529 0.34320126805032924 6.793827731237789 0.8781913950854489 0.2909491190549054 -0.08983871533070334
Ni 7.662984916706774 8.01020567516919 10.070316328356634 -1.5682333174827379 -0.2654350339442009 -1.017772471946602
Ni 7.988015228452328 3.6096679482839926 0.4873592146107037 0.08223082107645838 -0.41035706340229333 0.4753902896535426
Ni 6.987272174437842 0.6914925109707282 4.739524785470011 -0.628058538715957 0.3741428182652653 -0.9017997785330082
Ni 4.531234660621567 3.367529631650348 12.300900220470043 0.31233838336395886 0.15197456542949958 -0.2663200076523155
Ni 5.258204606858361 7.008192714284516 11.829081843935187 -0.8483457724789261 1.1492730857924658 -0.15654675818121425
Ni 2.6390075770166566 3.5556922029421703 4.570360961627976 -1.1953022601373866 -0.22779074122886578 0.3437778328201628
Ni 1.0086729169150015 1.93684314497756 5.706001989439768 0.14276615945735413 -0.15346889058683894 0.2947204131718795
Ni 8.770390741099602 8.53313451087802 3.3893964872832516 0.5848421512294831 1.0906838153943474 0.6656570657950214
Ni 7.140921499013187 1.2206344836259257 11.73873878784641 1.5450314254449777 0.17425317432204182 -2.4833483250674133
Ni 2.584561495796986 7.146970018402311 5.7374608749655005 2.0514024797507506 1.1642027105191046 -4.965211323838552
Ni 1.8567167248273957 0.41850956746782003 7.608406200769551 1.3120745666341405 -1.1535830260217295 -3.617674816852376
Ni 8.08091597104484 8.17661050875177 1.1966087863137007 -1.7538929338695084 0.2628780718503021 1.0313275849232173
Ni 7.657077498081004 1.5575548863634747 2.4414777963816165 -0.24727121855098064 -0.7714057674877618 -1.418491755148815
Ni 7.164795748172745 3.52260877729435 11.82994914329394 -0.946555228371828 1.9908298603740164 0.29997883335734143
Ni 1.1265861214914643 4.460129282608524 1.3020825475928428 -1.4146435850473187 1.1754042356618788 0.033199369570104116
Ni 4.295060202919033 1.7098496436106172 4.566630257444887 -0.524470077899329 -0.32391297557543575 0.4738383717853903
Ni 0.4931603373280794 2.1375166506201353 1.1345150437202238 0.6543719797995053 -0.839651844249354 -0.4658165299221784
Ni 3.320618331193801 5.433479975097151 6.855865033525924 0.23175666785514926 -1.5822167762460235 1.104103431234363
P 0.222206422802207 3.9302488826251056 6.967039265644582 0.8845476763207798 -0.08351817242931422 0.5867943898598474
P 4.465792126577813 3.1240367476885016 8.754262923848199 -2.5430840503651493 1.1893180175294935 0.1555514841474805
P 8.244141334093168 2.7150514817471016 10.252186746274607 -0.3097701084161504 -0.8730201352971545 -3.017415045516242
P 6.0274671552312356 7.237895350307862 0.5398835034334876 0.32550088888784584 -0.6280688231286021 0.08264785400921895
P 0.30954403263153507 0.46991821958834873 13.057379980354765 -0.2478810842208376 2.0535256967413407 -1.0207909470579517
P 5.803370922871836 5.144185783350478 10.920745679841474 -0.09014570504816088 -1.036449736641131 0.05800845819398397
P 1.272267956296066 5.3156608376962575 3.8928948072064276 2.4195096333448975 0.24735349385214178 -1.2726274163821114
P 2.1851616750461256 3.126934016696045 11.239164950487996 -0.27994582596586626 -0.8631869512568165 0.7704686003854732
