# total energy = -340867.2137258133 ev
CRYSTAL
PRIMVEC
9.27691080062133 0.00000000000000 0.00000000000000
0.00000000000000 9.27691080062133 0.00000000000000
0.00000000000000 0.00000000000000 13.57769668122340
PRIMCOORD
 96 1
Ni 9.247280463456976 0.9516255218582319 6.342441238756995 0.008138312836418242 0.08258074821670938 0.6723347349255131
Ni 3.86105032362445 -0.012579491203351164 2.248263071481295 -0.279023571261913 0.48896417168323525 -0.08416891863943568
Ni 0.39584671651630865 0.2901854842458007 12.44994656392503 -0.08988088142254842 0.1265674382103046 0.2456408820364092
Ni 0.6467231461338203 2.705017346622679 10.429192311152603 -0.032962828079265816 -0.9553612566992321 1.0933431073940654
Ni 4.398888510944131 3.6462898358976217 8.319163561553324 -1.3802530233825907 -0.06816071613663745 0.8630925917707974
Ni 7.505484777338687 6.132056669909679 9.794041183696555 -0.2833214273063185 0.20166396223482688 -0.14538225692396253
Ni 2.772766627048987 5.563419138345806 0.046551538981132845 1.01021085754926 -0.71604503132927 -1.9441260285595743
Ni 5.348909127213734 -0.19505725663037013 8.733704181258332 1.5840679705221494 1.634903565116778 0.5200045859288077
Ni 1.0386522231699113 4.288743747627473 6.721136802370091 -0.3991426827437126 0.05237979915329689 0.9019031368800918
Ni 2.6669077965759485 9.348064823658458 11.533615049650242 0.8579218462031353 -0.36408517691894715 -0.22504634571450918
Ni 0.8469856774796775 6.79657107579998 3.3662236060800037 -0.3028605257805107 0.07531789600670899 0.6153446906937144
Ni 2.588712714457182 6.887892986866197 9.760584932165754 -1.3662780492597373 0.9750875314835658 1.8140176670755468
Ni 3.657839589989194 8.02028839485164 7.911262426991564 -1.8902732444051766 0.6620588069208018 -0.8917891883745416
Ni 1.757102589131217 2.250921834150086 12.935444419851416 0.869978006036721 -0.009343131777796812 -0.1921259408374046
Ni 1.7314704842677517 4.585539958592674 1.8207960041046451 0.07773936096400806 -0.11522064573891769 2.3833565804631083
Ni 8.817842980201572 2.0420058003009203 0.1821206043567173 0.4763300278589926 2.122242285381448 0.3674286394698833
Ni 6.324459802326717 7.077299677057066 11.936112383602895 -0.18867012107832024 1.1602876917354148 -0.49268790039172566
Ni 4.906511799407385 4.417460886599816 1.633532280335584 -0.36793129013791476 -0.3554573260406201 0.13399278414009827
Ni 5.427466008858261 0.167456591270333 11.319413959651705 -0.8689055989081487 -0.035061362479507356 -0.09013027842919316
Ni 1.610406796801872 7.003576066000259 6.050276061721521 0.15976346534629907 -1.0479767634441242 0.09716430245783912
Ni 7.943920864183509 3.323277074681188 11.709338296238647 0.7597355302386851 0.256861433342577 0.07720328595487995
Ni 8.01332143475303 5.549717140921507 12.465208010074466 -0.3855844844433037 0.27385231147361866 0.27424054805097287
Ni 1.1125613724450578 8.510563859900243 8.023929582386534 3.558363837796885 1.2034503431658177 -0.4605727650247359
Ni 0.3960406039544724 6.217376419612645 8.328857933461514 0.7095691937969393 -0.1269063096069621 0.4352610257328246
P 2.2228777324482194 0.04522122995564571 0.3362425638750614 0.18748329985907067 1.3897362802826774 -0.47502210768084635
P 3.9077688470020875 7.071872684170665 11.788482406344215 0.5006390369180024 0.5750544757150999 0.3645888560282431
P 3.4073722721431188 2.935594967462865 0.9884233167013091 1.4344462215955425 1.2519076673362568 -0.1258999798296348
P 5.818571296204929 2.1158314573778148 5.100747121730515 0.3532047825610175 0.540029880010799 -0.688032605276744
P 6.80324117474925 3.8363088022090093 13.40619662587535 -1.075379066716477 0.06299331300308507 1.093334365643317
P 8.883254479076815 5.897675515593553 5.649136867527107 1.5496247012426152 -0.213257066389065 -0.8116311906667119
P 2.5427363439528983 5.9958901714710455 7.911207693217154 0.44163299069743944 -0.34006901651000787 -2.15449677453978
P 5.742676887993561 5.383678989330372 8.23473717837166 -0.3194333425375273 -0.3060738905114858 0.8442469198192041
Ni 2.3427725291385664 7.462050280425641 1.258511301136682 -0.10705533631930594 -1.2987382545365505 0.3539827983776226
Ni 7.597029334266909 6.027125530528334 7.397346609853359 -0.8068800491349717 -0.5030275917548369 -0.5298902204736358
Ni 4.587553048261647 8.360250072313297 13.652102486623573 0.34447665865940025 -1.0340118166235999 -1.0234324984458567
Ni 6.252146281729281 4.361511836859838 10.590535418128681 -0.8590775570741334 0.5942161362452153 -0.6743011146232645
Ni 5.064803730382887 4.752273878502579 4.192399316990833 0.2779943586664503 0.17678159717085037 -0.8335652717356419
Ni 6.675331127026679 1.2901214473950144 6.970938965703422 2.8848975603700895 -0.501892192598813 -0.5039660444087063
Ni 5.799377367517809 2.0916187198846385 1.2518449129517792 -0.6594671349342256 0.14246045529147722 -3.3152485503958062
Ni 6.671499762817988 9.036063755700413 4.776172128715672 1.4714135428485111 -0.7337925851206781 3.0112762796083556
Ni 0.5834778059576797 4.266673976556106 13.4852869298976 -0.2316419966541559 -2.0146632153481887 -2.4171023094549855
Ni 7.489259460144984 4.502159083271347 4.870211246989454 0.38655456166605684 0.16871424678168362 -0.8097663695438312
Ni 8.639160399030667 0.9868870602534662 8.87484403163953 -0.3428761469414998 0.7031200957374858 -0.05877876070110522
Ni 6.577404055387611 3.108256833448685 2.99271476336056 0.7105482698807569 2.0978057496056386 1.324116842510655
Ni 0.5889465449432075 8.645644959761599 10.342335377310704 0.5832321264298859 0.16120791110230945 -0.9777594218887741
Ni 3.097551278250553 2.3184113610707198 10.812938225068875 -1.0533922780327407 0.46129704478527 -0.33575624806726695
Ni 8.687622981660686 4.102194345999015 9.037260477208697 -0.4250876847442486 -0.2188574432949779 -0.5047700283672404
Ni 8.399723328264816 0.9913956389590921 2.121922677085868 -0.6702976498908263 1.1089378765085287 1.319885835148443
Ni 5.172490112306559 5.446557891525294 13.050040245026015 0.26257725278043165 1.0852999253746147 0.770486598107602
Ni 3.063532845918187 3.3947835040288505 3.4650830072662213 0.4768419344984045 0.144171524445313 -0.10838845330843268
Ni 6.113141048550068 0.8386336745811692 3.0964213505008717 -1.6273008130688555 0.7425081106168051 -0.4800658407523409
Ni 6.5393965513609675 2.7555950649417573 8.815713001455045 0.3547194194333311 -0.4338330350370464 0.20013389874354565
Ni 1.963486026300062 4.420457328825983 9.534421265539843 0.9731926284536984 0.859344951802907 -2.798094032321284
Ni 4.6837638913810835 6.851685203557435 2.0064167869503184 0.3345375451688174 -0.4689530186686311 0.43713535993740205
Ni 7.195793660198958 6.55797820392757 0.9956658010541529 -2.897912741682835 0.17159311099137545 -1.5147147767393074
Ni 1.6189230010236098 7.198576733474035 12.0867434415432 0.5676018760917967 0.14926667958003326 1.1241397810599478
P 3.279703424104388 0.2094309024050547 4.2614956048822785 -1.0773639583569898 0.6776710595367619 0.37148249782428283
P 8.223860928012657 1.418671601970853 10.984329154259076 -0.09265895838831784 -1.995071923479822 0.19421624770753004
P 5.618746635054351 8.402858924154737 6.595828000468626 -0.14762657287344896 0.8867608819220147 0.29731928424730736
P 8.546474782059663 8.110478522785991 8.539407631323149 -2.959300143651381 -1.6432619643838025 -0.30794333962005677
P 6.674357051380401 5.9699240978145705 3.1647170409801864 -0.8641678271128471 -0.18224082051320872 -0.912608439112738
P 8.463585583016933 2.653938675114086 7.433952372640457 0.24470397204443664 0.49059065154306486 -0.28873154257829625
P 2.7311318508538247 0.672553776890908 9.286004145006409 -0.23704542705791432 -1.7991926862475724 -0.2682907582254412
P 8.948740193239392 0.10959928095474286 4.290267016400032 -0.050697012134235275 -0.6649631250517902 -0.3554426707526007
Ni 7.2578654711441075 8.419074964437522 10.189762661915486 0.2194778504877962 1.373309502185222 0.19791812203914946
Ni 4.545454426520639 1.3443542686153616 6.916383307983167 -3.1251512099526564 0.24367630211087066 -0.3800681826107648
Ni 3.8047023667150435 5.05595355736814 10.976956793153395 0.7728193600058368 -0.08422188336455817 -0.1924910374863072
Ni 8.716873081781753 8.232905916156659 0.6706455163152965 1.059103212374589 0.07844075790640684 -1.7127959067188825
Ni 4.61307383019411 6.5242751865663795 6.359915228160116 -1.565499977711975 -1.8386802028192335 2.6792859263414246
Ni 4.485534858908216 7.741025545519428 4.389343497301706 -0.815046386995848 0.5217763331172497 -0.9419832927304294
Ni 4.932041858250764 6.925139784197653 9.675059235040434 1.5734110050289354 -0.4935713314379435 0.6218984326518322
Ni 3.0526417525017164 5.15160778583256 5.310563015938622 -0.8767958002895029 -1.020351545527688 -0.14816881853016417
Ni 0.4020325607157146 5.607753495617794 10.72469717611817 -0.2693567375961103 0.08354259790934646 0.9589145212681291
Ni 5.791556931614841 4.015362459816591 6.384586245052588 -0.2495348177741767 -0.21361830638322565 0.3717864022179468
Ni 8.604260660161193 7.949737487328421 6.272977585193239 -0.3951284193779969 0.3674435518682188 -0.37657533896615786
Ni 2.2227942402499674 0.014490534852237846 6.160472775739314 0.8778658934252301 1.2334643730294048 -1.2186018540952754
Ni 7.191331466047917 0.7707452404911075 12.98566868786456 -1.1333170766838416 -0.926508851243914 -0.5276605598121686
Ni 1.8623584203946555 1.8710416090128978 1.87631553286917 -0.9975700288567981 -0.32622645419996077 0.22220861915539797
Ni 1.8624511895038247 2.4336955330353547 8.354098552684285 -0.47169047220445215 -1.1199509397895808 -0.7767837439702235
Ni 1.0272694534748434 8.983732701218035 2.3806863363649495 0.22361604102588586 -0.030421035494018575 1.181518833200049
Ni 6.371475186853697 6.6478714707125794 5.1524510570349085 3.1128405109061035 -0.03143199325703619 -0.14775872757593908
Ni 0.7930487897175801 4.369545641713895 4.329669767828581 -0.6835241758834293 0.5448676677190746 -1.197180708107022
Ni 4.111230057232101 1.3349938655001838 13.100684757103696 -0.5162170938619174 -0.25745561528315014 0.6430149029154733
Ni 1.488665894839057 2.283836314083338 5.058384108028375 0.8866374689702731 -0.6499054593877194 -0.11255261198845132
Ni 7.614544142078064 8.145675122804809 2.667161983935072 0.04884993162316748 -1.3322155603583894 2.586879707393861
Ni 8.50447820633874 5.315642124665639 2.2101776414029484 1.1677297498357566 -2.7610223242799674 1.9413741768460497
Ni 4.882503153954381 3.3512469610957187 12.25429187423161 0.18666028973714305 -0.9870462465073387 0.5708509791567137
Ni 8.099810075231527 2.1881542548861668 4.546057425730239 0.2818558985043855 -0.5319375899209677 -0.019996240616268788
P 5.098089286752816 2.147688369466537 10.44295924695332 1.9852749919940582 0.17818259128343505 -0.9122549124280612
P 6.34391348451951 9.08121448113309 1.2416384555609778 -0.5815362267847016 -0.023407323180346783 -1.3696459372907055
P 2.903329871293798 6.290701123500025 3.3106771742738195 0.7037721274991879 -0.702698434819035 0.1572617819703679
P 8.73918405253696 7.612475390943589 11.805970311113711 -1.7347194462648512 -0.9914670012828537 0.8028058790655981
P 2.9026341029750284 2.9925180928491213 6.549623417955787 0.8677915399083636 0.43696412446686034 -0.6482362992154126
P 1.9987661185171302 4.1656205859380355 11.593329597531401 -1.1487920323909893 -0.34566605098181113 2.325293871992421
P 0.30254882342478745 6.127844952353396 0.5516431584551578 0.6320519761460662 2.8819719020828622 0.5450016221937776
P 9.230164562815249 3.0229278068348036 2.3671902863630065 -0.10826992545269741 0.9119939454571907 0.4757944670704967
