# total energy = -340872.11835353327 ev
CRYSTAL
PRIMVEC
9.26071775633941 0.00000000000000 0.00000000000000
0.00000000000000 9.26071775633941 0.00000000000000
0.00000000000000 0.00000000000000 13.55399652409933
PRIMCOORD
 96 1
Ni 6.743358187996755 2.5434746007098425 6.361540654928193 0.9328327365794128 -0.0747226856248713 -0.9037023948723597
Ni 0.6879574082662882 4.643231180001995 0.9165035831289443 -0.10109011987480655 0.9366364265962193 -0.6020621146521954
Ni 8.120899186533775 5.121843585205256 2.593488958064071 -2.0673911418695234 2.744569835150899 -0.27282644131226563
Ni 5.185742536404948 4.462258237343388 7.005762472349439 0.8353305911661808 -0.722659451321994 -1.1727665409287158
Ni 6.039432524432838 5.258994812345465 4.382698486669232 0.32148276886738825 1.6400383152401818 0.4030895832066026
Ni 3.5551987339874067 5.301668198885782 8.47565227251812 -0.20081755507413157 -0.3756106610600434 0.3336134906926512
Ni 4.380402754784826 2.583258643369825 5.73312317810367 -0.6499838780341387 -0.5928015152858759 0.18619903383000835
Ni 7.646620797151015 5.609985268783079 8.840444902414868 0.10308555303828051 -0.6688056387263321 0.9278918476343698
Ni 0.36513249823139005 5.368447233248243 4.617250236872903 1.0089484458970688 0.6690560641742413 0.10357072020481517
Ni 9.035043138827113 6.956104652621469 12.885689323511498 -1.0678886718767029 -1.0635818169712328 0.8044680972593693
Ni 4.513914519921922 8.99437932799844 13.154817814888256 -0.586999306781802 -0.8667389302741332 0.6655855891271375
Ni 2.751127670673712 6.638786165250822 4.650606415470899 -0.9795165137891969 -1.3561008516164195 0.3921217713411892
Ni 5.430679255286204 1.6870804831529218 8.065521947637555 -1.6160964597126037 0.2776161493914251 -0.40223289163326215
Ni 9.226786296014016 7.518156123086937 10.415663325954554 -1.5321278300094323 -0.5704581145936691 0.3100107636720468
Ni -0.018921498129161083 3.421205411536921 3.299326959805195 0.6114859790692565 -2.55628280844361 0.20126672679640822
Ni 9.064945995845056 7.852875498762543 8.045015014661235 -0.5803041541498135 -0.3155170382022566 -0.8811340226535406
Ni 5.208996198211097 2.9751999928806336 0.09578730606360844 -0.320188475535997 0.9129853628361826 0.523918062050601
Ni 7.639610433954179 3.48839191747225 0.8944408496016767 -0.8400789044844436 0.4555218328643897 -0.6502330179304672
Ni 4.460294965219571 7.9276743145364446 4.177355039666116 2.173289995986883 1.373803411102505 -1.8257681227432556
Ni 0.801583634575689 4.738162795762581 9.038699270121844 0.4800619840975991 0.2220129582048241 -1.5745474326262239
Ni 4.4110464692079825 7.771094101944502 9.19320137769216 -0.12869168364215902 0.6707324234353997 0.5697883422201542
Ni 6.3478977658111795 8.777178458224876 7.51231631459034 0.10793208249730445 1.8013984356496395 -0.9534622399043061
Ni 4.060611655824278 2.4140097691487266 2.4974997683575424 1.3805253032073708 -1.1937603695715635 0.31999718546079725
Ni 6.764185541800828 8.300483021557605 0.897005142295473 -0.2881964960104327 0.05637632190719969 0.44310134771284976
P 2.180593382918546 5.1338084322994595 3.1892420318927166 0.5145214513270493 -1.9445145222472446 -0.6148163289940702
P 8.266783270337942 0.466278981549964 9.24657644945079 0.7854612171395634 1.0115825410858061 -0.43085749734849016
P 5.848819174788887 4.130437466265681 1.9106258705303847 -0.17914495519670437 -0.45242082534156275 1.3029476646322076
P 4.7433117547288175 6.958401310577632 0.34852617949352216 -0.9902349286479656 -0.21642697947661435 -0.7285627041803066
P 3.5905191107809755 9.061158362360901 10.927462438624369 0.9610292536182868 -1.0624700719642928 0.6335843536301926
P 0.9886556858227189 0.8108156439164097 5.447717123462609 0.4324258702768746 0.19294278031174514 -0.4782154178071635
P 8.77653946871288 7.442847967846952 1.5377958638588232 -0.44207779154434185 0.3245056148541121 -0.7201222867224372
P 6.370067923662203 8.937175875598367 3.0315681285563274 -0.27129483515908764 0.3458190316199077 0.6697716021840272
Ni 3.8296586204664336 4.730374532290272 1.3324542689992203 -0.4306885758707938 -0.6525567809676374 -0.13662482244630664
Ni 2.1305669866314823 4.5973443244665635 6.205507750744352 1.1590072823610942 0.0977281453811091 -0.013953376856298551
Ni 2.9387498085441135 3.945880625909352 11.786839433309032 -0.05985502448441949 -0.19767772389356925 0.18571900886979628
Ni 1.9528630772733815 9.17197210874576 7.517018906969935 -0.6640475552160564 0.659369947234729 -0.9317248482272147
Ni 3.2249615456133447 6.25222529264538 10.743209349804177 0.8863245657155445 -0.6851953929382651 0.8042284704447377
Ni 5.631646087168019 6.3262462081438064 2.209870215429083 1.0417855470317476 0.17284883777534749 0.7512891992435449
Ni 8.632618657032529 0.7491624167262718 6.841501420608943 -0.8259499212822291 -0.40313432040160896 0.46129010280673455
Ni 2.921228530910806 7.136364520027558 6.959583904210705 1.843856090593218 0.0172803843470025 -0.34095090489432894
Ni 0.3836900501602398 2.3450174232881893 8.398543833783464 -0.9994042538520594 0.0177516675564662 1.3973287479179546
Ni 6.356676926062964 1.5304354455380236 1.678811588438979 0.6819496323074579 -0.8618939434770059 1.302183018552041
Ni 2.00583438174617 2.7151312614978855 4.572358908475727 1.1980577113953366 -0.5379434297954154 -1.84882294768019
Ni 0.832689458805348 5.230675538031167 11.247119257180222 0.3346933540203913 0.11797404011433875 1.569049128515814
Ni 7.022318783212455 2.5269812627262693 9.47288801316497 1.0130784089050422 0.9045961103312228 -0.8892556233194103
Ni 1.9936565381479676 3.1937436667011467 2.190244902764969 -0.2544628512034134 -0.529544664208759 -0.9853035527846193
Ni 1.5784615268310098 8.00319546628043 0.5052064078351679 0.3720124021858238 -0.4930715089833895 0.28210015330470767
Ni 6.457952133355693 1.0153172916928512 12.866957670092424 1.2656620408078718 -0.01719682349426071 -0.33044974825268897
Ni 8.117907974760225 7.585870489923481 3.7521936441055193 -0.7466658415389206 0.09444356109256638 -0.16435005627571694
Ni 5.800793093495901 6.5912786841414865 7.562208430472708 0.15265102267123387 -0.35841049513167306 0.3045682525002368
Ni 5.023809629060337 5.129733716570783 12.04074700929567 0.11112822083709895 -1.3911509012420171 0.053236490726637345
Ni 2.762833217676091 0.6800293079587437 1.0311762705232097 -0.3589704814002011 1.007301397211949 -0.5039398191564611
Ni 8.889927694580855 1.050193154043292 11.549197381653862 -2.9132946234555437 0.276812165432891 -3.50472136988108
Ni 1.6112815098819824 0.32414363621617864 11.791814290785043 2.737715788343543 -0.785388454920099 2.759795908072034
Ni 0.2355194951892314 2.3389238711303055 13.236629772074261 1.363242090646891 1.8917824819608517 0.9964531416435355
Ni 1.071140897175713 6.831501697782069 2.8322293308224697 -1.4146173597950733 1.4060779548654945 -0.347859201978388
P 8.399155967214522 4.679959185865471 12.847521276066638 1.265785967980246 -0.25564170200286296 -1.3052102354141393
P 5.955484119704547 2.7556561615630817 11.577349036980232 0.3581999217827637 0.4506333944238368 -0.6931989799690319
P 7.701416462984142 8.421668771615458 11.811657230311939 -1.4659841443028236 0.25854036370689665 0.2307310548041123
P 4.745256505417503 6.479325869496112 5.69022475612652 -0.32028643456644196 -1.2586652977750645 0.7028640138626218
P 7.597001872436819 8.032626026702548 5.91349973055108 0.7163003418731858 0.16126087582743195 0.18303143473530412
P 8.783123838901718 1.9636240310841122 1.7495903267178383 0.5323643930457412 -1.9936891841996824 0.39154867244653857
P 7.933240005793114 3.7056113086809437 7.674747448539957 0.4525326683290787 0.15731320403359358 1.1708310144688998
P 3.266301388824276 0.05554856217117606 2.970791891319611 -0.02996826422731613 0.3329997683680523 0.43679623143042845
Ni 4.085096993066594 1.6870619617177913 12.079077119297919 -1.177264171688753 0.2903292260827193 -1.1526152627918214
Ni 0.7164628230036465 7.79695928610403 5.420433197372097 -0.5029257760696499 0.31323698391882826 0.46311352916871856
Ni 2.752748296247618 5.960447864319479 13.068925585543033 0.23311806697905013 0.488375646169617 0.9434909876242074
Ni 6.1158334443455145 2.968402626187797 4.074927799108279 0.12592749063346054 -1.0533100027315796 -1.3375878804138965
Ni 8.139457664534381 1.1072762171150174 4.458763242534292 -0.43129458488590877 -0.30693006786419397 -0.8803104983109806
Ni 1.3341360153090556 9.175426356397567 9.633597579719224 -0.6945938034340294 1.6584240168362212 -0.23235522067109662
Ni 5.4866139893798485 7.372994375252854 11.697261438372871 0.6588755240968136 1.6463825122906548 -0.6075226235461344
Ni 1.9582157720260513 7.021939093792283 9.09028609731864 -1.1249782178008432 -0.06542711925555829 -0.7173976887024225
Ni 3.3060576493315623 6.880111204281661 2.1980655787487575 -0.10248802866359769 1.1567519106680144 -0.6473582674858335
Ni 7.386570587203397 5.843818387303693 11.275935832027768 1.1661593200248432 0.2037720097167652 -0.6388476589116611
Ni 0.10080476284041906 3.070705773130261 5.7937780999402815 -1.9106986021390644 0.1111135655490796 0.9647013031532353
Ni 6.730708047802728 6.036589484140331 -0.0463332221220726 0.348384992574871 -0.8839725205436001 1.262569517925477
Ni 4.680153660934339 3.528889035384751 9.889321182420392 0.18945070799808664 0.5386977914629367 -0.1977584565328336
Ni 2.0093534544209355 2.3348861982718905 6.7997550318969004 0.29728534568557835 -1.6132880437295312 0.6360387287079563
Ni 7.016984609894916 7.986970689106246 9.494859065588342 -0.22278480337384213 -1.5346652517193053 1.3441002276111174
Ni 8.882722856315151 0.0726077299979809 0.03062241477275693 -0.37009615899971743 -0.21536588520195168 1.5836041435118533
Ni 3.9742554645290413 4.276330810787413 4.087491814628948 -0.6688820004902222 0.42239034041774354 -0.2189219779843262
Ni 8.344360301381395 5.72814276419712 6.617209619395727 -1.428624729817759 0.11054843707422897 -0.6897174491783348
Ni 5.724762602285832 0.46107353220658037 5.245369518591827 0.9815769958626515 0.5302159792441707 -0.19348091220340224
Ni 6.088690281161993 0.736104804959378 10.405931237865314 -1.3549898779404277 -1.0413129782707036 0.7068101429945634
Ni 1.0422104155021132 0.24389674029868674 3.3051417643643672 0.4817406573516026 0.14761474579890707 -0.3138813023710465
Ni 3.2711725262635567 0.3934156557471843 5.553234665471945 -0.2714943527644034 -0.3791181599926697 -1.2219070072091083
Ni 3.3751333416501863 1.4695369668294471 9.59919771825163 -0.5579558683616003 0.2547690695899225 -1.016218497195921
Ni 8.644000078920127 3.441810508119431 10.706722122597396 0.9000943658061273 0.20000971446085553 1.2834427618300606
P 1.5573748729351113 7.303464907773536 11.73849293118829 1.816253241274285 0.5211795800735153 0.6617865270960215
P 2.689210513032967 2.720502477685686 13.572971625467284 0.10979021875196576 0.13662687932883566 0.9585607374731362
P 3.590982146659235 3.1283166971032013 7.7436147747133655 2.026690578826368 1.2721029113372093 1.6607146126426109
P 7.8216298376976505 4.200883744783951 4.809730547177994 -0.6113193715844052 -0.178706324997389 -0.10901477403852193
P 1.063260026527751 6.14636603015789 7.161240659551125 0.0497395333169724 0.5196405177211697 0.7437982901831384
P 5.695887684917623 5.945251026795031 9.923802538202558 -1.6236117942530424 -0.6263207300892439 -0.7720009778695995
P 4.143337645833967 9.226841860319407 7.541836703972841 0.1582773677190758 0.09838377668723701 -0.3288433229975175
P 1.890399537296291 3.1097026547972035 10.146657076049658 -1.2978049440890036 0.07157385558324449 -0.5032867589534945
