# total energy = -340871.6854861314 ev
CRYSTAL
PRIMVEC
9.18941665240114 0.00000000000000 0.00000000000000
0.00000000000000 9.18941665240114 0.00000000000000
0.00000000000000 0.00000000000000 13.44964015125769
PRIMCOORD
 96 1
Ni 4.863213946879677 1.3016716942542867 7.157898610635798 -0.11127580215855674 0.23042046554222897 0.5046036779927052
Ni 4.8467189438003295 6.1780448859304125 6.5232774893769045 -1.544187589387444 -0.4940814383051427 0.715531324917645
Ni 8.719497552578595 5.092839092811001 10.342302604833364 -1.5921404631176386 -0.3533384799254044 -0.6155326383348043
Ni 8.398750150081918 8.029206944603999 7.762043031219118 -2.2300357854183597 -0.4678656991417233 -0.053974397333926394
Ni 7.878721055786512 6.736724667107008 12.141958901523978 0.6932815123805092 1.120550778157109 -2.327342526991334
Ni 1.8936998688431115 5.24705588483195 2.154417406372748 -0.7069770075897308 1.3070259484666393 0.8407242513779263
Ni 4.427773433835184 7.662567594821384 1.1358743992357925 -0.4934497182584147 -1.0769602951606678 0.21767473584078642
Ni 8.592720358994931 3.363749246341341 12.371504099529513 -0.8119644056364145 -0.11404745136642294 -1.1053925823594317
Ni 1.0249875451088475 7.201994026945685 9.564738268031372 -0.5908999273877887 -0.19752602880705336 0.3211120157915308
Ni 2.48972543972136 8.883501073446064 10.42461404861182 -0.3632647379001808 1.0482014778604205 0.9383192136152809
Ni 0.6393573466556043 0.34354450758817684 8.515854563586851 2.0292393133901503 1.3346750776424756 1.0969670772998978
Ni 9.363096734009366 2.5349833172510454 10.162185441681974 -0.7389977834707016 -1.474920784670821 1.2041036604791004
Ni 6.714817097557614 7.650520269452569 9.820658011072025 0.35553651601798775 -1.0709876225170007 0.37056487110601993
Ni 1.4826480678724832 0.8139048043103964 2.4032760015770935 -1.6851514055287364 -0.029674644246297278 0.7689501068584176
Ni 6.658476783418629 1.214023037223193 1.364573251957981 1.2727027497047372 -0.12041658811756038 -0.5835725404884401
Ni 1.315069863886425 7.5974146300121514 6.982999198319202 0.4543077579516305 -0.2496695435798281 -0.7260718194376528
Ni 7.863402298052098 0.8877325785385162 11.925527001231105 0.9024361265654265 -1.9083198174942424 0.7975196909659943
Ni 0.9288754352442838 8.620371314017637 4.388416080805359 0.1272994312803227 -2.3946303536047147 -0.3754193709848438
Ni 5.244299059804761 6.268680103407627 12.604061588348092 -0.46244221413330683 2.978567476521425 -0.5227433250162093
Ni 2.3989248127425133 2.0429819440653922 9.797565006760939 1.0846478936129127 -0.05928166847945274 -0.870613582738191
Ni 3.026589545516134 6.335716898652105 10.848775471528405 -0.6419576652955525 -0.7674313562210461 1.8003743652604993
Ni 7.463405365440497 6.195036117514653 6.500211134374415 0.7419548092164964 -0.1553589085207002 -0.07571513144512768
Ni 2.6671914561382692 1.3008905938299165 6.847023398561485 -1.6924916479438914 -0.9464438996049441 0.5881658162860773
Ni 3.554788031308777 3.5520863427821325 7.630653669364969 0.1219636208897061 -0.02289387387903799 0.2437950870769221
P 4.491263114211345 0.9067326166259023 9.58796635676879 -1.97557267710463 0.37272125532739037 0.4050575055662508
P 9.408400558622839 2.9710946577188206 2.038952384817318 0.8961325529449018 -0.4369972916976409 -0.039932317418563484
P 6.791530348647525 2.087357637586377 7.357342955111133 1.1233928755915945 0.7819670879433759 -1.460760434010039
P 3.844254659163616 8.183653472043881 12.315916398622951 -0.3459380736962752 -0.8135885715033988 -0.07001139619213104
P 3.3809242662607284 4.145299952132649 1.1970704011893325 0.3051909736859002 -0.39583315875450537 -1.46910777753347
P 0.8082680160714707 2.4173679721744077 7.894790588869996 0.4165840181486116 -0.09242138845621503 -0.5425937840832332
P 5.9876034130522005 1.1487597994128738 3.474741778760995 -2.2386494952292995 2.4225934144765437 0.06854046807355937
P 6.035517032024744 2.0916399057952773 12.910188628783906 0.03523568327384255 -0.10575950032601786 -0.9537903126676863
Ni 1.8429926671763497 3.3097246652251955 5.808522816111035 1.341124689922561 -4.541712580847978 -1.219254914298242
Ni 1.1471332726468322 4.218309868269369 0.13724945292027707 -0.1413775066399436 -0.4415954525912846 0.9274164506598479
Ni 3.131927829805023 6.348416672610689 8.53885383584701 -0.5318676559149808 -1.506274359281438 -0.9441779863889029
Ni 3.8568257812875975 8.77638004230626 5.536463700419542 0.24789599661917305 0.18143400834119722 0.5185660537100683
Ni 0.7172532756821792 8.03235891455175 11.92365787386267 -0.4181109963160993 0.7712813260947555 0.22014068088277572
Ni 3.8522953988262505 0.463077683942062 2.793489881108876 0.23421078582259666 1.3590427078535625 -0.34869249651296075
Ni 0.3308162464376455 0.8222313348341826 6.18639071422939 -0.7469895434269264 0.39788361352563084 0.06366617070039358
Ni 5.863785211664387 7.09422973663287 4.721456166098271 -0.04675602520861624 1.1120746223652977 0.5477164500217794
Ni 8.688143262602699 8.244854987647475 2.4248895097902547 0.5718220848207314 -0.3809336159348536 -0.49568143580241086
Ni 5.505434715796855 0.22178933026237732 11.549610016290323 -0.5436931877949992 0.6059339389027759 -2.1300334992910925
Ni 8.715913680043249 3.792463106319493 6.339192336069715 -0.04927802029952158 0.20082526838361542 -0.34239303665749415
Ni 4.3823501468038675 7.812428603299375 9.76999399966402 1.3297377882418584 1.0449526319058198 -0.08947181890958786
Ni 0.971780822084101 4.853840741787234 4.267450274379011 -0.8099221783954051 0.22879449990303177 0.2633629819065206
Ni 8.613414925532364 5.100870643056878 2.3217171710310605 1.6882416144182861 -1.0884307576941123 -0.748074291850673
Ni 4.0273078409689615 4.4753654232212225 12.344254722019102 0.5211980920162765 -1.9482084261590642 0.2938048433361456
Ni 2.822648819421454 6.032796964664585 13.414241003105078 0.3436292230574405 1.3148241043548194 0.043223072354693304
Ni 5.549479590314577 8.182679393867605 7.687411183024735 0.07592647612498536 -0.9805056171753437 -1.2473239046203164
Ni 1.3137925349571609 4.275615071167869 8.975765574514348 0.9967331347777996 0.4949453289673347 -0.872667379943426
Ni 4.075524710694496 2.215779736769595 4.6608923960176325 0.1088805624535028 -1.1842082071067541 -0.04900162670968335
Ni 2.3382011468102983 2.869312677715005 3.1512237671119947 -0.7023418228105647 0.8324432423160567 -0.8148512402659063
Ni 6.143786740259212 4.2361924732790674 6.950545854099134 0.21192317806898986 0.09137932034494585 0.32678849735101784
Ni 6.268404420904909 4.4808790732756005 3.159199261915652 1.4613785272100124 -3.4097245073882054 1.0593487527264918
Ni 6.319745692327924 8.369720782545619 -0.14785863456657583 0.9920498703695172 -0.11247804999677402 1.2534091915824477
Ni 1.9278109838461959 3.9949427151497634 11.386761605109246 0.30454434124083685 -1.05617832541831 -0.7616211772971722
P 5.504240091618406 6.23471601907266 2.8417609683932787 -1.6964321206488784 3.9878370532033385 -1.4206013452926503
P 3.2779017149946776 8.221835498670448 7.583633261701235 1.0730781864974421 0.9119299249884747 -0.14423477358308062
P 6.2719515357732245 5.935591314205903 8.38000006413033 -0.3248984794171566 0.8128745761555097 -0.16118708516670305
P 2.036053123830391 1.194743640866385 4.582521374144705 1.4792633779102329 0.8813672217102693 0.9765525460648664
P 4.3831588154785095 4.0514668176238935 5.622043819738569 -0.08013820021348779 1.27359980759771 0.165867778471824
P 7.84086065874645 4.356178687879087 4.455919698421107 1.9877584205375445 0.19815903440536195 1.2148827533724755
P 8.067536001898683 8.187439511747886 5.275312422418961 0.38224744965027074 -0.4076985427335237 0.7949452453705987
P 0.004815254380823347 5.905293807157096 8.102588113177713 0.13829578239082635 -0.4209811187750427 -0.9674079034511209
Ni 4.278757851698864 2.4297277377129713 11.258222800333211 0.5735822620449477 -0.2142592824013342 0.1706258619820997
Ni 6.4405589544361 0.7565812225783809 8.967332446756178 1.8400246326622696 -1.0381780321861473 0.38001753187848747
Ni 4.442871645567422 0.716625638517656 0.3116278253067348 0.43046874655050377 0.5272787509927177 -0.4456356840989293
Ni 6.0039146277964015 5.098242469864291 10.46009438671174 -0.21479510030014623 0.4808600545188622 -0.21157402225968724
Ni 3.72646471516859 7.592378829629153 3.613192288451451 -1.2911270178481957 -3.1308878553261175 -0.568868401509046
Ni 2.591369578473816 2.1461699048330747 0.7370178732437724 0.09019507022885756 0.5574907557997237 -0.5036515984920811
Ni 3.9224565957682085 4.578149049651583 3.253642573697091 0.4045404567205162 0.9256153928953672 1.8889126166122243
Ni 7.578677409244024 3.5571589008321602 1.058540862514764 -1.2682544841253967 -0.7955952202497717 -1.2179367097074507
Ni 6.899680594464146 2.290498884423173 10.581840374620782 0.1242310767676441 1.9605430364650174 1.309367195005306
Ni 2.3073338959225396 8.81957949048231 0.5125764773052395 0.6648078304208486 0.25473255992503224 -2.704929595051458
Ni 5.479401098123435 4.892730353504113 1.1379686673147804 -1.26903327127295 0.002710971173259847 -2.166096306451921
Ni 7.318074739423855 6.3689458296464885 0.8129040768255267 -0.2242233355925816 0.3639136843380894 2.141192858342022
Ni 4.840231215569679 2.6368755702559485 1.9557927578721634 -0.019436254347740718 -0.18589975742203468 0.4365506910785256
Ni 6.124700321654306 8.470271380703956 2.575404804741365 0.44635379321187646 -2.0251995961031377 0.09649401586369188
Ni 9.471623745913037 1.0941470956242607 0.22652923142579084 0.6696710720504209 1.806328011740773 0.057641561772868465
Ni 7.926956304345561 6.472446230583919 3.8418222205479595 -0.18977055323135059 1.0318304927015647 1.4652233548773992
Ni 6.313993117437856 0.26658130436246746 5.419707565809713 -0.329398167059723 -0.15319378254858132 0.9928677382851222
Ni 6.397570862845467 2.7827024247774856 5.152046504978262 0.8288066740047338 -0.9397870564100589 -0.6308641264855522
Ni 0.20479442291143327 2.4839728648312924 4.345053979952704 -0.4118812133563035 0.9867042897868876 -1.0388385485882818
Ni 5.665312188540299 3.241447298718483 9.011232128489134 -2.2998962578549227 -0.2755034739237965 0.046227663508972
Ni 1.970495824683838 5.07608678606245 6.726635606449173 -0.7254894645716216 4.849402666806648 1.5662507398350702
Ni 8.012537342606263 0.8338265408985394 3.7752329498995625 0.24073496009435955 -0.9318369483250468 -0.029582084532490983
Ni 8.040574253132775 3.4237010012659437 8.50116803772534 -0.27614444994190507 0.6200554659058225 0.6307042038689202
Ni 0.7116596777020129 6.660663864606865 0.6501852364207268 -1.708862118882115 0.6565093378574822 -0.5305597357368347
P 6.826192828656047 4.958306031484181 12.50263799559781 1.1424182676541614 -2.2718738045000677 0.856083507442816
P 1.9327273218113494 6.54253391219182 5.079444598945566 0.8774169788132694 0.8491746961381246 -0.482003424094686
P 1.888792720294715 1.7776834822822436 12.152772088222289 -0.37926368443159847 0.13889819186151564 -1.1969655067724223
P 1.824374908826067 7.8002434366791995 2.1707451620671123 0.008287693930088953 -1.5039179432341196 2.1583110060795474
P 8.537657373785212 8.747148507601299 10.008778237277342 0.26762947049235847 0.6507189564279503 1.0180370384618982
P 3.6278438945292844 4.370119033099906 9.72391550721791 0.39291367111486525 -0.24475025190133975 0.777888546998628
P 8.443530177940223 8.479304577376379 13.785074402695724 -0.7897403041308915 -1.300703091572405 -1.1908848477959812
P 0.9110305068432898 5.856479625342336 11.647119836443672 0.6625899968339233 1.2778925214357926 1.923547947297907
