# total energy = -340860.5547045279 ev
CRYSTAL
PRIMVEC
9.34775973713624 0.00000000000000 0.00000000000000

0.00000000000000 9.34775973713624 0.00000000000000

0.00000000000000 0.00000000000000 13.68139126133513

PRIMCOORD
 96 1
Ni 3.659292749750275 9.503867396250733 1.3845154006034117 0.6875242981817579 -0.40254090979198415 1.3620496130006865
Ni 0.5232090728395669 5.221051024063051 0.5846649849177716 0.49295478089986716 0.08472067737784764 -0.4662533603492809
Ni 5.489827161807122 7.966076778084302 11.341079847914036 0.5710746651317455 1.7540168610418825 0.45457078180503
Ni 6.258409320936789 7.20109350648051 7.39735065841424 -0.9444088714527864 -1.0945471550044958 -0.8162519772681749
Ni 5.724988755283546 1.3937416395333808 2.947957206457512 -0.6224612471338377 0.5478005250951533 -0.8476207213874435
Ni 8.713747998524665 0.3944128338843574 0.2887812785080295 -0.5107645553877784 0.10440041519496213 -0.009066995298274707
Ni 5.28395209980749 6.685433684461453 13.456304958787163 -0.8104569678529527 0.7370146916024016 -1.250674052039472
Ni 3.790666166084403 4.052833437644596 3.6687059438763936 -0.7051296699683469 -1.4404497474771452 0.05009845931828791
Ni 7.363108879463512 8.660007727391545 3.8262203705121003 0.0654209486079712 -1.1358524415111857 -4.171640847328293
Ni 2.911350444275494 1.9266106873579831 11.367306857605843 -0.9926139704031035 0.9808306046149301 0.717652485025706
Ni 2.4521697870131467 0.7099146838020285 9.273533920714867 1.0116221360744901 -1.2261840373179076 -1.0573746597192564
Ni 0.7186585783259323 9.0772543341576 11.931390879755515 -0.4888122194864033 0.5710466401072876 -0.47523833745671057
Ni 4.525867474941608 7.430683835111683 5.753654595509122 0.8078670956385894 -3.1398062408616703 0.2248969646208385
Ni 8.46269521337555 9.164889582352593 5.659444133065556 0.09883809061583623 0.661945421271389 2.0150493950430137
Ni 5.2906637913492505 6.007057407473834 3.6954536237894775 -1.0871578045189598 0.8860029207100677 0.22490724903348364
Ni 0.7328634341293576 4.371433135162461 7.814797307240175 -0.18986234161420848 3.94962711779252 -0.29234471385085137
Ni 0.6206071213774786 1.2653221152984122 10.289364326752011 -1.22471285208902 1.2483775426958112 -0.654361438276544
Ni 4.401112272551166 6.032576791748216 10.843255551607623 -0.5452420203393578 -1.1560402293129703 -0.7547059382345777
Ni 8.32306772513143 3.8807131363097236 10.527174140581888 -0.5296192262004362 -0.22309436419446096 -0.267354619564417
Ni 0.9082788207963618 7.793442349960019 0.10077352460438777 -1.5441505655019212 -1.6526205227805668 -1.2155077885509842
Ni 8.222308222166754 6.965913217484471 11.668708546629931 1.438574384831303 0.20677428687819874 -0.10021543057933709
Ni 5.280867339071027 2.172129598701079 5.974540290207583 0.14650531478481219 -0.21307143274082013 0.14004233276828784
Ni 9.261358463565642 2.655773343379565 5.916791699669019 0.14635464813956087 0.035322072340061746 0.2718177975420932
Ni 2.6515294604269757 5.9896518787123325 7.390454816004272 0.8582961988234186 -0.9410762075351277 -1.46199764885125
P 8.459470236241975 8.124184787467783 1.7360313647313075 0.497729062360059 -0.671638737299753 0.8037641292138094
P 7.5492227772301606 4.292351087191299 5.492750206298917 -0.07426785747563984 -0.8832850075582723 2.7521111378332668
P 5.137827918497181 7.065466859433985 1.7610684045996245 -0.9001259903750111 1.0457458172310765 2.3652020210412688
P 6.756486006758002 -0.08419620736182748 12.610220523093798 -0.04695220037982236 0.5497867022872467 0.25556405468739213
P 0.2709410789154805 2.4932438436071527 13.091148743548214 1.0934904316052072 0.4655828166448175 1.4395331492001466
P 3.6779415305661702 8.503685140131289 10.165958006101787 -0.7318115501349073 -1.2145706214486953 1.1761364858422132
P 1.6226308861789944 4.389726701105673 2.8737219719465203 0.2510761941193676 1.0347427812523533 0.18194051566397054
P 6.891411571818968 3.199411010502368 1.950378301444446 1.5853517223305793 -0.7715955149010646 -0.9870943261364549
Ni 5.544081559729655 4.8080483002495855 6.751205457242765 -0.06416110805894111 -0.5973803929058099 -1.443043219235934
Ni 2.058423448403062 7.199635255950545 11.58058628014897 1.7946258928124965 3.4878287078907997 -0.7071235604699241
Ni 6.613053980272243 2.1323922717595405 13.34144996880881 -1.0339791636134514 -0.21374609021034158 2.027285274987573
Ni 1.2936738707944566 -0.12264728255385833 1.764106426537051 -1.1095497990609149 0.9274814995698285 2.765474703624366
Ni 6.3249466752463315 8.885915038658576 1.231021445460896 0.28343866961047315 0.1068499051767192 -0.5286496631983154
Ni 2.1476571635251327 2.402495791396272 4.650017877272507 -2.0299736204530134 0.1659693370466948 -1.1194722003809494
Ni 4.398457508765846 8.531504073318308 8.18062375685732 -1.2575340123840988 -0.7151831975496069 -0.5900676612944805
Ni 4.592208526295194 0.6339669396943091 12.970314926397004 0.48268528065305905 0.06777787887592197 -0.6462210685575968
Ni 8.280367158330925 1.3804958638862015 11.934004513397683 -0.440242538107816 0.6919928754760728 -2.0926344898173443
Ni 8.177840928762638 6.558771539070287 9.439216419870336 -0.5301257335232096 -0.8463359411377488 -1.1289035209971783
Ni 6.3515130086191505 4.072725470514884 3.815015210830891 -0.1432027327741405 -1.3840238032789325 -0.29168188345587187
Ni 4.916108403623893 4.1550044523402 13.438710605277553 0.49581513316679776 -0.38360653478132645 0.004106308858889703
Ni 2.0481315648550416 1.0428360841209128 13.589452579932749 -0.6365526922298972 0.6644969840486492 -1.119634951211059
Ni 2.9907690115997254 5.868944256318523 13.251125370117208 -0.4980213967894971 0.1420994724076327 -0.3863203341680637
Ni 2.9291672744685244 3.0356195631559477 8.905997765828936 2.9983215192199006 -0.32281460030493436 -2.1014875693326003
Ni 9.47769366878983 3.1432496695791117 1.849587016096424 -1.0428890645085718 -0.012541069889804208 -0.9265983256339267
Ni 0.6498506531591554 7.918057335953348 9.786244524514668 -0.3217918154673748 1.262944898987025 0.4884725767587975
Ni 7.451463905163681 8.980467629111095 10.302142714408816 0.7679576610381613 0.6903813080145788 0.08053774964475162
Ni 8.955527805944776 4.409777645892688 4.03543538709094 0.8942577045196921 -0.049570354728959785 -1.4397488647553784
Ni 8.514500498228527 0.8715869940000961 8.047162050982205 1.3100156272225825 0.4702473120000224 0.0535985020517464
Ni 3.8560350504180136 0.0826304575940769 5.762765856993458 -0.5802059380090524 2.348919996051793 -0.1503660832917991
Ni 7.6051691196778455 6.244883112495385 3.0439315911767464 1.2339456835411975 0.981639987890103 -0.8342602409201374
Ni 3.3856090381072845 3.386627943926298 6.405791710717183 0.12854513076196572 1.7288719863451385 0.560384789518067
Ni 6.111490580042845 0.7299871284366004 8.014025177240718 2.5251948287895543 -0.7223666026719237 0.1865690155749174
P 3.3727278250925963 4.131167664831161 11.127923815800369 0.4578242557453212 -1.0730403912809714 0.7893325271695115
P 4.52331553651417 2.2603350602443286 1.0316468156313758 -0.6622886635434206 -0.46659326018720293 -0.973610175607091
P 3.846444248855553 5.2689022065174695 5.3704796384653 -0.42032265925543744 1.2301651334528427 0.43169799097191464
P 0.6868313257334718 6.520819634251976 7.865090124556303 -3.1671182984130613 -1.1313118733283547 0.49660394761668025
P 2.317608784584673 8.421424853825588 3.570665704239709 0.0792334290110313 -0.6552312424760071 0.17392690133087468
P 4.32218913649673 1.6137411666020944 8.014832823688083 -2.856073694159862 0.5624889803452635 -0.8879302196397676
P 0.8621233219710175 2.5013857423994557 7.9590397845012415 -1.3807047662080285 -4.227171276295429 2.5190946294290875
P 6.384295602263934 8.948975026319742 5.52111224433075 -3.4684996685448843 -0.1356352048395277 1.9384516038826165
Ni 6.982197015069078 2.908284379058645 7.521167345720013 1.197584114193028 0.6460341493577713 -0.963489028012689
Ni 5.619452547057254 3.1691242687261783 11.428161708728428 -0.18820449429581135 0.0630341935433495 -1.1685486461926262
Ni 1.7462082708336957 8.191526049120768 7.786613811420665 1.8514436731324888 2.3259860129634395 -0.308785633015694
Ni 7.88898580295213 6.647397649804874 0.18218129521564813 -0.13729896569519578 0.3237962474919133 1.4611818378181738
Ni 4.697090391334964 1.061195084382776 10.34969850765332 1.8416259157111188 -0.2783129183481336 -0.9805518970322468
Ni 2.402729485391459 7.1163373683062146 1.6139112958305903 1.4349501578151544 -0.26605389847512245 1.2996502248278585
Ni 1.2285293326962257 9.079366927874087 5.8119920949155555 2.2404878339896186 -0.08252932615348367 -2.451769521819868
Ni 7.290925478230259 1.6941879875051473 4.852556723796854 0.06417010692000562 0.6754002612247142 -0.30828323945797875
Ni 7.515972795595004 4.2948095480206625 12.814086751510805 0.2777048524504895 0.5106642823644882 0.2988130951840144
Ni 1.6031501547402351 5.238250902108788 5.326425516044674 0.5572768400167047 -1.3073321668531483 -0.5131482251286066
Ni 5.963926843722185 4.367628596920823 9.2256219778217 -0.3782496413447873 1.7330207184061894 0.02311113209616665
Ni 2.6750671196221747 3.491481765686645 13.43364879334181 -0.9612948485748476 -0.5757337611703116 -0.532439983478683
Ni 1.4225327397403762 3.6542823504934736 10.142220304846706 -3.408128366545679 0.12906346515928094 2.8757148654295572
Ni 4.699707764081054 8.330994625448161 3.507170110971515 -0.6088775949121319 1.0151787430774968 -0.39609566838727267
Ni 0.1269266869937163 6.988805881252956 5.640742070018758 -0.9047694026842934 -0.22494967223564485 1.5588809297335604
Ni 0.7036815975624101 6.606061855936258 3.5167057607511114 0.9878625717610472 0.296130920366161 -1.7603767418216392
Ni 2.375957501302876 2.4694537948971518 1.9843349737210474 1.386163989550387 -0.30302559060346523 0.39904652348548053
Ni 6.265691225826805 5.29981524820076 1.402096667249294 0.7906656441586383 -2.3030733700313237 0.21955292670010576
Ni 8.095963900609043 1.262246702321756 2.5308797941439725 -0.635588528544415 -0.11562739425903312 -1.1485009835131317
Ni 7.07795546653676 6.58288875937355 5.255501258057486 0.1888228446061006 0.0634784801696197 0.3474159437933823
Ni 7.787310219526321 5.284054925165372 7.3666357892388685 1.0211701847742414 0.16744720714380196 0.4391284791080309
Ni 3.8631673911511095 5.182538253656291 1.655202220452129 -0.74719651723141 0.07618255799984944 0.14828374684147366
Ni 2.0549647772742996 5.842293793107438 9.83080436074088 0.42455315239701724 -0.2919716467821488 -2.3504022370242748
Ni 2.1954896504599364 1.489060746290112 6.8740238038011 1.0641186633113093 -1.4146698102995636 0.2737412398170511
P 4.0439437180676965 1.692841910092872 4.238946400635264 0.33284858750216867 -0.1295907984176607 -0.08610238821672268
P 6.36796506588029 5.9285642683705415 11.80379863226351 0.789199344025757 -1.528655812300432 -1.0604065045670448
P 0.19687410408102324 1.1800798936141292 3.995800885507284 1.0631349592418013 0.34119387414307045 1.8583468280102255
P 4.5479842746460735 6.012815627515233 8.138662597857586 1.0973748542612778 1.020401424929017 2.792489284539997
P 7.6350726033019285 8.296071394807468 8.275955950477782 1.5570387343184993 1.0669129382269948 1.191204178808613
P 2.986861648000205 8.320207310630344 13.101533169918328 0.5440675404152824 0.7001923805677297 1.436786182582629
P 0.9811315216318293 5.55520539390054 11.71132591836815 -2.907239932621032 -2.7550200839499457 1.2705625634332827
P 6.730620755370744 2.404636428392182 9.584102023006157 0.5518304721901528 -0.8685410164798784 1.379573995037695
