# total energy = -381165.03854112164 ev
CRYSTAL
PRIMVEC
9.30244824182003 0.00000000000000 0.00000000000000

0.00000000000000 9.30244824182003 0.00000000000000

0.00000000000000 0.00000000000000 13.61507330779008

PRIMCOORD
 96 1
Ni 3.27835010187089 5.096987978670205 1.3608690643719823 0.04858485088723891 1.0090906279018879 1.019096332964348
Ni 6.875281138707566 8.404371020595061 4.4873511219798 -2.40763756449766 1.3520521354683424 0.33203791867541527
Ni 2.9268664085036677 3.036700411456949 3.8181432491030463 0.29741492928490715 0.042593152080178255 -0.702808478034338
Ni 5.459550887546646 6.424958935864725 0.6071503123531966 -0.7145584194814145 0.8051836352691553 -0.7254665817534861
Ni 3.0842545253806533 7.453967820821374 2.317244435729984 0.5696667290406254 -1.3670987453888197 1.7567990517727097
Ni 4.2954611558986615 9.353704438854423 3.151059125093425 -0.18751749553111577 -0.21666943450472362 -0.0926908400675178
Ni 1.6802732659814006 7.812149276713061 4.95358516204222 0.24964306121726687 1.9328517411973354 1.1992190786932895
Ni 1.4728658864737891 8.606085301956877 8.034022893028723 -0.5853432592356176 -1.1864887756108147 0.35332742418181085
Ni 9.284066313495886 0.2051133958429819 4.226254664125033 0.5975408297430741 0.12483760000339145 0.10628220559870727
Ni 6.236323896321519 3.7546633442878354 9.770734110726696 1.183226559919775 0.6748243341165862 -0.4739242466309773
Ni 5.267622781428911 0.6726432669049274 12.054908343992132 -0.0959916223059766 0.6921204021928725 -0.3971886443411353
Ni 4.929627637590126 1.7055294121674054 9.773702521867746 -1.2035701565731336 0.6081080637359593 0.427435873261451
Ni 0.23410261439158114 6.8706671245240445 9.86039017383023 2.297926792833378 -0.35294278714888244 0.09796442976163128
Ni 5.903407889063787 5.378107955738737 12.179173234451252 0.33285450103943964 -2.4633052903736092 -0.6398200501272594
Ni 8.746031328926401 4.842752076179039 8.70673034682451 -0.22319283744553822 1.2473377885773873 -0.8663110987080951
Ni 2.551168443120913 7.518387272879601 0.16033885336693082 -0.1282674516205468 1.0690266421358878 -1.7319161724881011
Ni 6.526383525870623 3.028784028250949 0.5920022061103641 0.8236693527781684 -1.0222379639171233 -1.37150253088347
Ni 0.4948204626147566 3.2551311917860764 7.103078553878199 -0.2225318068227716 -0.41053344107915746 -0.45528863380766105
Ni 4.4565609495079554 8.612941206096503 9.740141150151404 1.014924718085162 0.5933483889282813 0.39235831283202743
Ni 7.330719687923261 8.995606704994291 10.383698453049046 -0.867994657058105 0.020780169970144858 -0.7263888364574393
Ni 7.354357208165854 6.368083769094473 10.063839361734841 -2.1084326331918657 -0.9233649062982937 1.557049018731144
Ni 1.9782864885283074 0.610464774558012 1.4308485895703098 -0.5471952874109867 -0.8009374583982916 0.340701250777368
Ni 4.030973955765885 5.375205591978135 3.6042641565561704 0.1282815926879339 -0.6317786678800216 0.3021581003968474
Ni 9.276419701280455 5.898068283940115 4.396851326847141 -1.5192543164808736 0.5433291195873611 -0.3189525462463668
P 5.628464737434483 2.9188011861304575 11.701705558243631 -0.42337558714914825 0.22417217063967199 0.5139272693864761
Ni 9.003048663354809 7.893899189303342 0.5548807875633098 -0.09122094039021064 1.3973179492846775 1.9150885036766438
P 3.5960659091772658 6.103224471043671 6.450413224192079 -0.27911664519635154 -0.38587167666641936 0.4273924216180252
Ni 3.793919674639563 0.003266089475471938 7.622276081347625 -0.37506455874858635 0.24246556963222116 0.0254282102651175
P 2.9908207381643614 2.9548388694912613 8.185314185518855 -0.9763712832919961 -1.932490501203175 1.1817036955173454
P 1.9943053038993204 5.4187224434912595 10.154012640944432 -0.5432725553178128 0.012801265529726338 2.2716485758631397
P 0.7696966366188159 2.728240539861466 12.203162387226378 -0.13342611300335086 1.539934984758677 -0.4588794364827129
Ni 6.268249897688137 0.9423100700566246 2.20068569315318 0.07128306381570304 -1.1172929333414434 -1.0938269890090195
Ni 3.013500106268037 2.3157699977298067 11.338782644631497 -0.4878125745772954 -0.4164865733387989 1.5185639752820685
Ni 8.722877535977242 1.5726811529842246 1.1363982045885004 -0.2660886083677998 -0.9401105011877487 -0.5240278481555879
Ni 5.825862682947199 5.777592280531295 5.8085573390246115 -2.0898373866881816 -0.37671777808129314 -1.4540485692075023
Ni 0.39602195366532683 5.222673352931387 11.824813224177689 -0.037148584025839246 -1.8072404962527133 -1.1843735290400248
Ni 7.84911720486893 3.6726994753946904 11.856277824125955 -0.4160510284632771 -0.7219248871488149 0.06758761724198682
Ni 5.617134355830595 7.209787864564858 8.06894614312504 -0.8605047764389632 0.9025019468063553 0.21329023361984556
Ni 5.374284649631022 7.121609960440681 2.9882225644517457 1.7840748567695273 0.04652668280662955 -1.4469867772647145
Ni 4.330819760559068 4.659354314832046 8.206104226443754 1.054170550959662 1.1025471424908366 -0.9489144726326237
Ni 2.6710025776211395 3.7785985428648488 6.108416167244926 1.0913417606933207 -0.8779347989899525 0.12417091295367001
Ni 4.363173674531416 7.516284919642755 4.939085436421548 -1.0688379231638494 0.6389332766469318 0.8211537854451665
Ni 1.2203509368534937 5.823518466063636 0.5843574543845229 -2.0656237655564555 0.37348024498060195 1.2865995622914872
Ni 7.061553356471308 3.2385449270900737 7.3994926856223895 -0.5126998247372783 -1.554307194319949 0.3412414395515542
Ni 5.631264774267628 8.944322309442379 6.3923175762507025 0.7655115134905139 0.47797681943379616 -0.5608758702218728
Ni 0.9710825415679737 7.8020282133427585 2.7526678379350686 -1.6362991599127237 -0.30749133968430264 -0.7191231560339616
Ni 2.3707288602222256 0.9517613571744813 9.385876955091733 0.5676509841621772 1.651349369377627 -0.21158713488580977
Ni 0.5955055080085776 6.546774491778439 7.172011553682078 -0.038899505278674945 -0.6664173409998136 -0.9547562761253815
Ni 6.89046273376302 5.449085633602169 7.664414310074462 0.6381580890438042 0.1057805833719404 1.2894349748577534
Ni 7.915285517141879 5.942729336551169 13.449581573971967 -0.6586086435886722 -0.39203255406149257 -0.3110240354279095
Ni 6.447712723552006 0.8924498792859551 8.327823036898781 0.08593475229060685 -1.3586773540943438 -0.894867313079233
Ni 6.971068445255372 4.7002571784710385 3.941060214854117 0.8166857223714837 0.7375440817433104 0.9209969202867493
Ni 2.2467923461757637 2.9872113883595106 0.45641530625051313 -0.8609421210866979 0.23679345894810835 -0.21854582559183008
Ni 7.449093338095236 2.0908088989393256 3.7027277773793768 -0.15370620340862562 0.5541071840394716 -0.08066733324408043
Ni 1.3192917732565685 4.60744665526744 2.6534144392808523 -0.11478510086339587 0.6436666775668592 0.27267783154954334
Ni 8.19262870034245 4.414765050865701 5.850723475095301 -0.5720046331451827 1.463543396071815 0.7043372559740386
P 1.5173687974696815 8.525163307234205 10.428601369306817 -1.222508131128217 1.7090909470634694 -0.8041917036695312
Ni 2.660128015966834 5.2921719415706665 12.587842796350277 0.6777937011575553 -0.1265370991930014 -1.2709824245795207
P 3.312778461736232 0.24208411473323574 12.92014577228806 -1.6699736693470337 -0.4723533025994317 -1.1451184401941439
Ni 5.164188862665674 3.550893221928927 4.906042211056056 -0.08385241584028139 -0.01969310755355318 -0.12028134809127672
P 7.885024653958425 7.692119790805871 11.978296173404992 -1.086960343796173 -0.08194645706682016 0.7278847042766754
P 5.061303788331525 2.860874842741782 2.2185901147237894 -0.13840633982676165 0.8287513952867662 0.6024251544185689
P 6.2319238384408635 1.8106377715617588 5.792586896382942 -0.46340072139183414 -0.6618744588241374 -0.9212943969225101
Ni 4.388615869676435 8.544205418189177 0.8720291455446962 2.9179084680784717 -0.5023796737581929 -0.09121836928704936
Ni 0.8941075755107604 0.7000920000728995 12.641527223473457 1.766206975350171 -1.445542331508704 1.2672638380773529
Ni 9.384495541571065 1.2304906051196982 10.498092515987736 0.36660228691384605 -1.9556718244156448 -0.5484867525289006
Ni 4.157319803831563 1.3725389853260683 5.1330051966455175 -1.1412502154879893 -1.3190833938518056 -0.631149776046771
Ni 3.9564985574730094 4.441900291537737 10.571042312816703 0.4558311365746924 0.2600195193555844 0.6204092497008155
Ni 0.35098415191227245 3.3632721492123405 4.584249140812913 0.5553189449593856 0.833305847426668 1.4897712194200925
Ni 0.33980912118916096 3.3209739183807514 9.888328215760405 1.6359410052423569 0.462118769355617 1.1344517045089173
Ni 7.930736883187902 0.944849638347151 12.280509451201617 0.05301074786907645 1.9668630651457741 -0.19942144605755333
Ni 1.8657547756693382 4.734155298803193 8.211522902375007 -0.41249133613647665 0.7821385805242336 -0.3254805771728717
Ni 5.42448996122066 7.48658220333634 11.928437843123914 0.20346039201361735 1.905713747329963 -0.0859064701558327
Ni 4.664079958390975 2.33683073989007 7.07130139167879 -0.20850335375416348 0.5377377415425126 2.115551503624834
Ni 8.239950253067386 3.6458712155050264 2.2208496793310015 0.05311513465742466 0.6901509371713276 1.0993561463573647
Ni 0.8637015941392776 2.32646781287305 2.8352168308043093 0.8561583265448093 -2.242460384334957 -1.781215275833545
Ni 9.303378195441427 3.9427588418499053 0.3485552827523587 -0.2697735134185547 -0.9613971784806667 -1.3741785350537365
Ni 0.6613473043584575 7.370915565518004 12.252708155256316 1.4818835891418995 1.224111213949279 -0.9195437327799906
Ni 8.097250701504471 7.730166802924016 8.404489161684035 -0.9837747748449186 1.3333051938781424 -1.895431648677665
Ni 2.0354965434247827 5.635999720274507 4.906082211582244 1.577289514147735 -1.255561204928444 0.04253298826620417
Ni 4.391815911771457 3.95376363777552 13.508003737836413 1.3975879151166124 -1.47265487145478 -1.4073961594562858
Ni 2.8318791124796174 6.983682564676447 8.717431882946935 1.3688075005498104 -1.1819111835424612 -0.5901141982616999
Ni 3.0703938779341904 7.437725746699545 11.156449083330058 0.4956824642436754 -1.6223522108143285 1.5730253395547424
Ni 8.212852222187154 1.6214724924853647 5.700902899626167 2.497604320765795 -0.37805732282832305 2.7365294813449257
Ni 4.058955719201428 1.423339653584548 0.8650857983943337 1.4923153259981847 2.5205113072709557 0.7229566708474388
Ni 1.808842399107284 0.8437655179362473 6.332356787495221 0.6042784055772239 0.6115394580150113 -1.854055656834039
Ni 0.1737027500928294 1.1248147964003554 7.931610383050468 -1.99058457713243 0.5753982322077638 0.7134225061047584
Ni 6.179374309967662 4.876631591615293 1.9661802827653363 -1.1255626295494034 -0.5142692261069273 -0.6245374129365759
P 7.957723284692727 8.443050599173848 2.881657441708321 1.7518108545294993 -0.361989470732183 -3.907059419633639
Ni 6.875671841521493 9.040435201668457 -0.002025142918855713 -1.2997715808970713 -1.9266240151200689 1.869411313354503
P 2.361398504927727 0.5396033772939632 3.9021750521756204 -1.2626715907209802 0.42240216749228543 0.15218359611651208
Ni 7.678063791952446 7.068725543841257 5.9610328331388605 1.3397974864707056 -0.6048787581653842 1.187413087197297
P 7.891945675233707 2.1632842709228117 9.102847185458932 0.39218347781706003 0.7579064474497462 1.024444227539823
P 9.052788852546914 8.634160089871928 6.623869459414217 0.8146021003695777 0.6927456944816973 -0.9488504521639077
P 5.0906344067199125 6.346232318858406 9.997166856782968 -0.12663145867902062 -0.19490376069285786 0.4983486982219288
Ni 8.34794237132644 6.173048645361223 2.269333107804975 -0.21443540296788233 0.351756223039949 -0.34637516123369383
