# total energy = -340861.4225984187 ev
CRYSTAL
PRIMVEC
9.32498804132913 0.00000000000000 0.00000000000000
0.00000000000000 9.32498804132913 0.00000000000000
0.00000000000000 0.00000000000000 13.64806258272272
PRIMCOORD
 96 1
Ni 8.712923999819136 8.213636153743986 10.665306115513072 -0.32844685889004727 0.5900679184047967 -0.18313119353796203
Ni 8.376133399055334 7.6740550334240085 3.257083184735298 0.7737999787515512 0.08459546465389302 0.23472552067548608
Ni 5.324307193269353 0.5744211414339596 0.2935674152096199 -1.7978865658416392 -0.046477317625932865 0.8329384367849203
Ni 2.515928455826271 6.457367866016479 2.8879031697706217 -1.6054855169659767 -0.5874117117288722 1.4964344903728808
Ni 3.793852821096743 7.818023527074986 1.5176371758177116 -0.05716025126107575 -0.2749884819605909 -1.5541657836460783
Ni 2.807698013300551 8.760033840477517 8.348247021682237 -0.07921363151668938 -0.511223497302068 0.5898349764583842
Ni 2.658265076532827 9.568836696673998 0.08179413446852407 -0.3386022021564943 0.01882021803029662 -0.15321820802861355
Ni 7.3382622064033685 3.064993089200399 3.373665120383583 -0.13450083412476835 -0.3125047337384941 1.8555024165828948
Ni 2.3532540357380984 4.831183164429988 9.384066716918362 -0.6642756120664624 0.607945827126482 1.2385232756095508
Ni 2.3803151516507315 3.3892509057510445 7.010545751709374 -1.1566662929327434 -2.5320925843506523 0.06187256913508054
Ni 4.703197700646085 1.4704387477709198 12.023193187559013 -2.1028507682287136 -0.5851041466416181 -2.0113086970536584
Ni 8.93707806746485 0.7780322599564726 3.1908356706835694 0.8731916278780123 0.24066322631615972 -0.3046644117584688
Ni 6.04717095771848 3.25676147264054 12.150051260263027 1.1404963680411004 1.6314120070237517 0.5360328430362639
Ni 8.741850113382537 2.7106062356016087 1.6531758800872207 2.3978288059373543 1.518818514495036 -0.6661566311392593
Ni 0.33591684936441696 4.235978489175878 3.864926949068657 -0.7201608532698566 -0.02336130043375977 -0.05709083147572103
Ni 7.080025306689882 5.610547032709108 12.96226146716746 0.5558529630859846 -0.06210936773623496 -0.8504093398761741
Ni 2.1406629535271415 8.915015145256273 10.613716550497548 -1.065151732561514 1.832652765678231 0.24354980383533537
Ni 2.646282466626647 0.599952959272963 5.562650163042104 0.09569414567021585 0.05236540097559368 -1.876887310016574
Ni 5.7145113267511265 2.699099200096375 9.573816240401547 -1.0995260962763258 0.22415443002785915 0.4209764907893524
Ni 0.4261668831815197 5.943533038265343 10.844232125130029 -0.7728468708096625 -0.687434566681429 -0.5312673033268205
Ni 6.610922447592399 9.373851192286283 4.7893232921585165 1.3542164901095128 0.48295961736036824 -0.05491927774569897
Ni 5.375809103395289 1.280190337416154 3.013232876899831 0.5154298220739316 -1.543832262930554 -2.798538576057871
Ni 9.292975569160761 5.672278454949503 1.9209513102855549 0.3877557810630097 0.1603530193011819 -0.4273813658744317
Ni 4.840125828165416 6.129501279011599 3.1404191891903785 3.51097480698996 2.9453737633782757 -3.9577687730630484
P 1.5857329025413505 2.309072241391423 3.3026124398846526 -1.8541520732025876 0.14015726107959733 0.06914827686088736
P 4.021699584090976 3.5143176482114957 8.41333450719519 -0.15752789114756094 0.46891959432753433 0.293181865040166
P 1.3556388173779426 8.13984752169138 3.7080424141872914 -0.5859870634672036 0.916951546572782 0.45351071597163184
P 1.4265273780836052 1.0425803117201544 7.1273048621344826 -1.0993178369202616 0.19004000484265338 1.4582528370968368
P 5.206495291670386 2.732566582939393 0.8485571461202357 -0.29002994967474566 0.19506882551581245 -0.08992484728660642
P -0.08265483088435314 5.285608492015933 8.672293160999521 0.5376222990105709 0.10650460602215851 0.5304792602078864
P 7.470788939466888 8.602833188494346 7.088312423751067 -0.7249443907014289 -0.8369683838799199 -0.6476277190971362
P 7.476710307008074 5.365682166151623 3.063376136237184 0.5331943451462042 0.31602174575281705 1.92052330153897
Ni 1.7110514196846547 3.525917933599268 11.107898965503722 -1.4894737427843314 -0.6383023279311523 1.492346436346436
Ni 4.714275786691643 8.08055924637349 11.05834318042636 0.21804420336506317 0.9278149716498473 0.2471724881895872
Ni 2.7250226674420395 0.5238088351874384 2.898725751138024 -1.5082065433071445 0.14467186112049923 -0.6554377020598583
Ni 2.0416875282009244 4.708540918915534 0.6748120999771091 -0.2441193031855602 1.0749831168296389 1.7754336361547616
Ni 4.955028333429186 3.3641293873952103 3.5261958182492323 -0.31920708545933413 0.5508218284199804 -0.4823338108509112
Ni 1.2786796893190326 2.557415328567588 0.07322633526089939 -1.0573911147794886 -1.1354382367919027 0.1280753902143988
Ni 6.985693725514076 0.5438435724508054 12.115767940947798 0.20115256981604712 -0.21482698197934616 0.14315619580692118
Ni 2.558832726782171 3.760320163335948 4.736396523827393 -1.147853836847436 -1.4717832674831037 -1.262530951378058
Ni 3.313867700707033 3.4650723852429866 12.937571695767778 1.5179813633057213 -1.4219540026658029 0.9493729003262812
Ni 1.4602931605507459 7.667089267198393 1.2870945587192943 -1.672341655358578 0.5751717180192546 -0.384687426550331
Ni 0.7530217089608585 2.928382011281699 8.975880276087889 -0.04736383399594423 -0.21655322064183352 -0.765485802458901
Ni 4.967803567336942 8.511168553959136 6.294800683293226 -0.3341840184841406 0.7710689529736333 1.068440944835747
Ni 6.745472703107002 6.715306366105842 4.707284842997741 0.0512765387867891 0.29278668648427636 -0.28714671458967966
Ni 8.900263013838705 4.054504892767972 12.75355517506305 0.9896644008564763 1.3053732433545648 -0.3395064591383185
Ni 0.6106711007719224 2.3202062773665033 5.345564436492797 -0.48374688914835395 -1.4652616643145022 0.172409950465716
Ni 5.324195293410306 8.023229218588904 8.705171204584897 0.48121409542417126 0.7481516820558277 -0.6178067790809618
Ni 8.666616108150587 8.020068047570854 13.418911736950768 -2.874393318404656 -0.3521472878307806 0.939813281662304
Ni 4.190929470921595 5.09011943826251 4.738047979247148 -0.3225857721235799 1.4461753371070127 4.4183340818886165
Ni 6.173319398816376 1.4733947690473859 7.326675908497976 0.02150882060605328 -0.4936209537289563 0.16144985190978645
Ni 4.147325825846657 3.917968414755302 10.960472766208223 -1.4091969601104506 -1.0481999351985238 -2.8770767787740903
Ni 0.6008761331100928 8.103787792113796 7.5888554132451835 -0.9527335892683979 0.3173623189411115 0.23233953694181278
Ni 2.6467487160393386 1.7884861221445103 9.767413254038265 1.2704350367164832 -0.21041214074110212 0.5971014282128104
Ni 3.816027643164365 1.2861769798751168 7.719085401701784 0.6713664574749728 1.395921583157783 -0.659182256703955
Ni 7.805817117450714 3.603268711164839 8.915774199300136 0.3159142736406753 0.3675109147710445 0.016045740608953012
P 7.799914399886036 2.379625102519948 13.028140644183162 -0.09098285623747555 -2.3309911794875147 1.9399806389326333
P 5.143281196297631 6.441543360949719 6.0789150827321885 -0.3492910493289081 -0.693342961746064 1.3703689314996592
P 0.3719029115347961 5.926244510042731 13.424958059334557 0.47539877429397476 1.2070043790656633 -0.4032795877302216
P 2.150995040512392 1.5807626838020556 12.030835947931857 1.3478267845330854 -0.012999497583461483 -0.6467206339018347
P 5.612589205136698 8.596734646176337 1.991279439197162 2.511669797719926 -0.3112891161638381 0.6899812443626827
P 3.463356587404281 4.6536447130652006 2.60309471602783 -0.6379691129614496 -2.165218017612026 -1.8295070209603974
P 4.615645385930818 0.9670758818288426 4.849579501257156 -0.2682606763184541 0.8001548145959962 1.9246416945827174
P 0.26777916019363596 0.195951573170812 1.0064776871966021 -0.048882584633315816 1.0719535859746958 0.138209136214291
Ni 2.636938828396303 7.719048101748768 6.400450002712714 -0.26961101969876144 -1.9326859050434329 -1.8061747739923601
Ni 2.4274529672738736 5.556732525496219 12.066307270750626 0.7446439260128854 1.1751309273958341 0.040256276416885506
Ni 5.99600474716968 4.257873561595885 7.656427075628956 0.7865413375776196 0.3339423347869797 -0.22351499667164734
Ni 3.926817828608193 8.378156921506417 3.9330301357828987 1.4491968975421556 -1.8303089480364025 0.8107552158196619
Ni 7.205688848398579 1.194419095457369 1.36682600578607 0.1519128589536287 -1.1258469935590416 -0.19493229993794814
Ni 3.0607781945096657 2.4104908136401453 1.600931700896278 1.1902495282048275 1.2747845719344302 0.13532024470227016
Ni 4.791178964821031 5.441447695714042 0.40141649935818763 -0.9616398906190922 0.10382063143209216 -0.0010153286383918
Ni 7.418214655691759 4.50978811927327 5.663072826545316 -2.455796383591074 -1.1418888775132527 -1.6718582879642563
Ni 4.8837201482521 3.3291606814433248 5.999757122443024 -0.5554379870357531 -2.3348794587983273 -0.476542915200747
Ni 4.984168921722423 5.759951994512071 11.598178872925669 1.0818441056155306 1.287846547324711 0.2857449491461466
Ni 5.932408327278517 7.864443318602582 13.007259197986347 0.24982406687982137 -0.9302986573036494 1.25778829448675
Ni 8.503270288908137 1.0482032796372174 7.691543116395253 1.812151046180453 0.8783680298726292 -0.06894593104209416
Ni 1.1267103557462643 7.820093674467337 12.283297882419744 2.6418558065194246 -1.3904189081719989 0.4678209619467169
Ni 8.551014228767778 2.4612000997645063 10.977314627493477 -0.5718308265714797 1.016584879396404 -0.7839278112141725
Ni 6.665371054006549 4.376916361644358 1.4172695297451965 -0.2754289119321192 -1.266478108951264 -0.7628954160239054
Ni 7.130268343401552 0.9327972250077409 9.708304018494848 0.4958452150737847 -1.3244153475876803 -0.4765285170230439
Ni 2.953139855095634 5.459071923513793 7.424423232871164 2.8719492277395378 3.00773021412831 -0.7795057708870768
Ni 0.07359933479105284 0.7324601098611497 12.285589964532537 0.8677874261433054 -0.5042612070516219 0.6596247435580124
Ni 8.961155187136256 6.1671276066158285 5.552700400575261 2.1944799998009366 0.9093673064676209 -0.8572636437938461
Ni 9.155236167663348 3.9582803389766363 6.858042096309661 1.443304443317121 0.5086248833369562 0.8203132918217422
Ni -0.2876628326472908 8.912534698380753 5.378987991891022 0.5785462909184423 -0.4173221818662167 0.17514354734679513
Ni 4.873910260609065 5.683253966124269 8.953415446885572 -0.7852619566445637 0.5510753391916833 1.3373078872796322
Ni 7.129195969752361 6.789701122394947 1.3001980322135849 -1.3655213735993708 1.0392668943749521 1.2443026012954892
Ni 7.562005974565913 6.233465573053619 7.378975105119617 -0.5198806587564336 0.7223943705860656 0.8125691290999489
P 3.7353105448391593 7.187113471796938 12.964022024949784 -0.4546173187722493 0.17931464800534924 0.5728834362057101
P 4.86697246934821 0.6108268280757614 9.857204498433278 -0.04725276233937668 0.578271697100817 -0.5120238817161763
P 7.203301651405597 2.261318976543528 5.651048254191995 0.9278121434363698 0.7596925928158916 -0.72802585784023
P 3.135769750047016 7.260370579519074 9.909217417915526 0.08443528492694491 -3.167278992360642 -1.6447100096842384
P 1.6857434015637434 5.461272620741698 5.872501805239398 -1.6365920085627943 -0.1251312199844103 -1.2479885347875086
P 6.943031904252774 7.046511298905595 11.222788415783937 0.051636236119053006 0.6260867597015669 -0.2830560894600738
P 7.125111624897181 4.662839151483483 10.7034798199278 -0.3439493254010206 -0.2473529796315095 0.5136205367793348
P 0.18548520635470628 0.9000264187872844 9.80053747731354 -0.23778796165089372 -0.7486579322682848 0.12046106820225061
