# total energy = -340862.17817623424 ev
CRYSTAL
PRIMVEC
9.28414161995599 0.00000000000000 0.00000000000000

0.00000000000000 9.28414161995599 0.00000000000000

0.00000000000000 0.00000000000000 13.58827971622186

PRIMCOORD
 96 1
Ni 3.3151719963512574 5.194737177975816 5.254343223839545 -0.5071976639721265 -1.3794454398796308 2.6730533151681515
Ni 7.5233484360919105 4.658457307064232 1.2943356025711836 -0.0138333063386665 0.10366713657336339 -2.0067064223949567
Ni 3.4413156281930197 7.724192271201415 9.331316174569542 0.0833533647166758 0.4709134848291116 0.2362527559532899
Ni 7.412885719402922 0.9151257675661357 4.186264008749785 -0.1238353839911222 0.7708565798525111 -0.7687616449966954
Ni 2.1565946826568934 8.471120030746086 13.516261835212935 0.3892465066759232 1.3322222452266088 1.362110548145609
Ni 2.989827822462182 7.393463295187646 2.0991035642483467 0.14942325976255555 0.06784447044779929 -1.8677128426061578
Ni 1.8930550393610772 8.492473556412977 4.005838786248626 0.3424377738525005 1.6476323255373562 0.4568276961600068
Ni 1.9329675640749755 6.192884524920666 3.5830798282671923 -0.23215133219040665 -1.9963541326263554 0.017321264887266943
Ni 0.5797844300083176 4.532917144426099 8.291418971289282 1.0248674311201704 -0.6860456567537023 -0.28069504542706497
Ni 7.703980694950623 8.581406348744782 12.312312921547225 0.4572853525227157 0.7833487987822508 -1.19340195779088
Ni 6.334950459596653 6.055302830634726 2.8170545894630457 -1.7674840422903817 1.2406601194468956 -1.3913517043989134
Ni 7.6895067182051084 2.981629925434415 9.12652750769662 0.9274732720397124 -0.330497827881805 -1.7931742479676342
Ni 6.152349962719949 5.743559924181301 6.779491870586635 0.49804633649016167 -1.2106054661533603 -2.2936384498706692
Ni 1.9683587118324493 3.3865020562202686 4.12608141769305 0.6302365202038823 0.5995370342374965 -1.0071941822101236
Ni 9.337246884219981 6.556822875417248 2.2117369132420825 -0.9664110867554904 -0.9310666458179255 -0.23167824920873004
Ni 0.2920623831018266 0.4232250218894675 5.566072204080578 1.025380366200847 -1.296614266215012 -0.8706619194776232
Ni 5.832325601964408 3.1466555422731077 5.554046455473481 0.6460493188664229 0.09637240268416306 0.1247874634917464
Ni 5.0234354814193765 5.468990720671456 8.622103383423399 -1.5241448118039558 2.772898506892263 1.816117229917053
Ni 6.509566594702259 7.617526768424496 7.8478431110251075 0.2264342272009713 0.8995572623557345 1.9998042959584847
Ni 5.462055466900512 7.853956718264954 1.2019351833539071 1.3215004879337304 -1.7712481373185043 -0.6265531578150242
Ni 9.00336130006415 7.171618731791833 6.94456205130498 -0.7677316610702842 -0.20547845088491062 -1.1931204219947193
Ni 5.118607216902552 5.301644068434187 0.7657457861421583 -0.5856268519143075 -1.108377890240001 0.3414684679606958
Ni 2.8540379675039422 3.086345758476531 9.039467326724385 -0.15265873598071775 -0.31208358704067546 -0.494738098052535
Ni 0.8026641751918946 5.569157324332364 5.433736049795418 -0.31460763901410976 -1.3495190846338434 1.638044938959237
P 4.626984067059553 6.278855676083889 10.898017853850243 0.17640338789582521 -0.017299667620712143 -1.0594335991308141
P 3.582601694975086 6.669625195788002 0.07821982134614183 0.2840670472230914 0.11969359390860676 0.5538616436875687
P 2.8448002466176128 4.833426239550421 7.4947653493655375 0.33158848984282246 -0.9366469681191805 0.02590180746742636
P 1.862101711285679 7.70919838252662 7.155669504946984 -0.6060298410506918 0.5894115157677204 0.455250581480874
P 6.333650679773451 2.0434209966223693 7.400014185496584 -0.8052401995387034 -0.3031423186869876 0.3516173834692396
P 8.668268777501059 2.3399286267195474 5.148544859887532 0.546898067885542 1.6280960552766413 0.18493379396433957
P 3.498505940413911 1.9756281947007868 1.405096340205349 -2.2261235948481466 1.3002325796938896 -1.5533628281288085
P 1.320771267346795 4.671195149331611 2.028947948291014 -0.9209110454411624 0.2310778966205698 0.3865766731532439
Ni 6.33127393952531 0.9407806360336667 1.9601097520259132 1.1474159779790691 -2.4796312812271424 -0.3960905261809501
Ni 8.223326291594203 3.220241648549534 11.520238238257791 -0.45982817354922745 -1.7258427126005118 0.19686756928744806
Ni 8.704189121329406 4.073639943897644 3.1455915796464007 3.254991662487278 0.7882022702198103 1.6855913212796325
Ni 0.614425419124972 6.797105744019342 13.590317719054035 -0.6294770163300384 -0.7032149694441373 -0.37589425373873325
Ni 0.914631851233319 6.723213261070304 8.880171882077693 2.9887760416233107 0.07467871976081333 0.14196963169798776
Ni 5.020733796215435 0.32968079642777315 8.29173091844685 -0.5112168124338485 0.09389051680257378 -0.36744046654442525
Ni 2.7040526600480157 5.211383643854397 9.748272544054537 0.9564043532517658 2.2046003760643904 0.35310785197183703
Ni 4.00519725206446 1.6524472258031835 10.663063154109118 -3.797664379437563 -2.586877650511332 0.7253922768721248
Ni 7.552324242007723 2.169221115225142 -0.032643970259720274 -1.7932899476098922 1.2602933202967908 1.3836404517975849
Ni 4.27964576173358 2.240254082563136 3.3756006171602415 0.32680135286682427 -0.10309326634776438 1.3370674891340522
Ni 4.070279084640507 2.665235664042245 12.869228653980462 -0.8438244875698049 0.14692491882073405 0.9368765676314832
Ni 4.275802127113539 0.3085974392812759 13.195021251908543 0.14055938161402246 -0.07125581012219342 0.29293786735016
Ni 1.0988524308182284 1.9187256908693182 1.006115925675238 0.4975593695514141 0.6449738264140569 -1.5796220189356538
Ni 3.913479217254364 4.647502019982956 3.032292557700354 0.3643523145374048 0.21793338881881175 -0.947479282847994
Ni 1.538521524299521 2.1145932260842777 10.901699944406545 -0.1623798199232236 -0.4105750929503703 0.7292584446957505
Ni 6.526723688368526 3.8115207742657553 3.272057371201485 -2.420230827781638 -0.8622528694783215 0.8952020707108324
Ni 0.9054284816708889 2.0007975025629356 8.478746953065803 0.5047528019760599 0.6550656634324202 0.4483433128380795
Ni 5.237685616991051 0.6462375302978429 5.50249254561449 0.315563832279792 3.3687709477939785 1.9587332369497878
Ni 3.9872510063626767 7.055353426606406 4.212040499472201 1.6085901240332297 0.6643298623431656 0.02431389415501619
Ni 2.7565359124805973 4.042686615822245 0.6692250648853311 0.5302653444248674 0.17877368790021467 -0.36546380243402865
Ni 4.022391482297104 7.446689278947771 6.782494361978232 -0.06865951014992691 -0.44445863307169264 0.687658509766777
Ni 5.37349404023248 2.8046927549302345 1.4095805805953963 0.7813793337607059 3.145424872600028 -1.677698548795117
Ni 6.150725237940947 6.7029274116867565 12.745181381310694 -0.8624367033543535 0.39006463170184436 -0.4517420541069833
Ni 5.143925071030209 3.3838746441490817 8.76058099737319 0.8765746854176323 -2.0034244092095754 -2.40384672999666
P 2.9030396668386604 9.067978925560482 11.31309882673319 1.021139845756938 1.354432976995693 0.1998744744345719
P 7.758209366002933 5.028606748287401 8.713158530523662 0.8526803952985379 2.389627758183801 -3.512361917145473
P 5.758980883369435 8.011127951314869 5.617177689900565 -0.2879918361987943 -3.9438958717356987 -0.49805404979964546
P 9.368348758560888 7.213824439479524 4.38033134890961 -0.4450890675668399 1.4461776510998579 -0.17468666231503466
P 5.400910110360449 5.109518042281731 4.67031872636511 0.1427589603685025 0.27889810142764226 0.015421219651076668
P 1.7965092509219456 9.517637755397242 2.011594959237107 0.9218186448570963 -1.612413354434062 0.9423059661771707
P 5.823487099166634 1.5535246971159107 12.276847500656997 0.44172966417630377 -0.6170806995482147 -0.7531283093348127
P 7.74704054366499 2.424145075121448 2.151785497311046 1.228134219065743 -0.07061714809692998 -0.03803021529984418
Ni 0.33336103015575386 3.8566788389804336 13.500200270254796 0.13408225853011102 0.7842998498416105 -0.12887551751819096
Ni 8.272968596698929 4.266230177129815 6.590492743323139 -1.332914386197627 -0.2533282233783379 -0.6400406507784978
Ni 0.793095010450649 9.013072512171787 11.343305709824408 -0.39784530408852775 -1.084904489708409 0.47639250566581176
Ni 8.04983353762151 5.501085998162952 12.277513173609307 2.4670794127040607 1.029089439621318 0.2271525934242346
Ni 7.748479585612106 8.089727494052218 3.0108499042741568 -0.5465571396063554 0.17908093472798836 -0.01868832043812265
Ni 1.1135677952451946 3.230556329860802 6.228962699156118 0.5212466858660249 -0.6664312249568846 0.8308306464132982
Ni 4.791545476818531 3.684439444122969 10.952954904906198 1.3608849032686239 2.8547197512351286 0.5677970228217383
Ni 8.45439929173475 1.5066583503478814 7.192711373079925 -1.3627718358786916 1.8888653083140567 0.44234364361121886
Ni 8.606371405491856 1.118766914538003 10.113158805407899 -0.3028841799295945 0.21387747358188325 1.1717638106958141
Ni 0.15806993795624286 9.065973550976112 8.434245277161843 0.5537983945498011 -1.496728881684848 -0.4417543467666521
Ni 9.151164834245415 9.110899512150933 1.234023961946288 -0.8228833665417633 0.18448950733806938 -1.1083496081052266
Ni 6.8312342485199915 4.748485628104164 10.405904501331065 -2.081155028422835 1.0854917296704467 1.8931320540102106
Ni 5.494809918445204 8.812590758584461 3.5447335382402527 0.5728204441782586 -1.4441230825636744 0.7298857938671043
Ni 0.4363240172648662 1.8517963141160054 3.2322980348238928 -0.9130786938809372 -1.3565207127626573 0.5089696682708847
Ni 3.730460934005917 2.702910710631917 6.687376474516303 -0.2878797361009623 0.46410880320245235 -0.19584401311894012
Ni 5.97446580977315 1.7161642895648683 10.026832071621612 3.969708719033744 -1.3830480696292247 0.7790470860831036
Ni 7.4091070737740425 6.177491418157316 4.6963273206273835 1.3987837351969263 0.3640345261866698 1.840846614342933
Ni 0.6504088951161622 4.393246518281441 10.647517787423622 0.5643985386631506 1.0332888224146461 0.7152356480540973
Ni 4.134905994278434 0.0667622622046155 1.8902382308013663 -2.802132464056716 1.5609563242053506 1.1417060720784853
Ni 7.421835631899828 9.01212552972917 6.237522677706063 0.8522430506508032 -0.09770063457728334 0.5074023237837648
Ni 5.117149606672246 8.456386098035932 11.401110632218842 0.5748732129422293 0.305500534506519 -1.6950784348344612
Ni 8.38963311997291 7.062427942501264 9.921305733018315 -3.912984526868822 0.9122428282432031 -0.5861642124750163
Ni 2.4334756374237196 0.6418396324246227 6.725274340504239 -0.7228682248986906 -1.1986732334921484 0.9067794911357867
Ni 2.486683052900657 7.031372488868329 11.746415710535663 0.3129839873677578 -1.7734577433753134 -1.237421815015256
P 0.3173635257746145 6.691545054092145 11.478821682605615 1.846209421316743 -0.09612223434656994 0.27326764261474223
P 7.0472576551361765 8.984003864840032 9.827166394080427 -0.8911500121286459 -0.9960268527393942 -0.33510241653335193
P 7.597900093094145 7.673445153246968 0.643767948633759 0.19879846776157375 -1.110741505376171 1.0361846559052026
P 2.778158678253723 3.9643841656159142 11.517154046420163 -1.7430467351836239 -1.0987041145956626 0.9380993842949908
P 6.56269973704644 4.286348911964664 12.855218884314661 -2.2696024919673876 -1.3638612122881284 0.5747377158056296
P 3.3331832310442007 1.139739790399528 4.913453683264972 -1.9307393228400234 0.7256506727398341 -0.922797720940914
P -0.1873159123924491 1.2834118815713296 12.643079034127373 2.535633764734691 -0.7881426206264684 -1.4233817362512649
P 2.761345097826445 0.8147391297494418 8.937637004889778 0.2900847141720811 0.13479214011294208 -0.23284398738205708
