# total energy = -340894.4883875751 ev
CRYSTAL
PRIMVEC
9.05735550436729 0.00000000000000 0.00000000000000
0.00000000000000 9.05735550436729 0.00000000000000
0.00000000000000 0.00000000000000 13.25635531216971
PRIMCOORD
 96 1
Ni 6.31426278379792 1.907116730531929 11.51386040078797 0.39236216948676944 0.3179819548029814 -0.6795340808874297
Ni 4.745809625033275 0.20234494019175298 5.782356008172999 -0.6981689223797976 -0.022679958096019005 0.4881794709984108
Ni 2.802662735145077 1.673980405285482 4.869443430520708 0.6569112012815912 -0.194330147577575 -0.4911935752343862
Ni 3.2967867531644983 4.517220092144004 5.0025503239092775 0.8685626137464332 -0.2562184004419394 -0.8966586006517009
Ni 5.063079723598069 4.8340644950100184 2.4666891978998673 0.8368683679669459 -0.2720265711187896 0.3384325093478494
Ni 7.256807405027377 6.300622406726391 2.5187472531829473 -0.3506174814498155 -1.1865862204206274 0.3654126374811191
Ni 5.159486213338674 4.528116090561699 11.537946625719123 -0.5727643941293427 -0.6104166572644778 -1.3537639759531266
Ni 5.486764689502431 7.890858504971134 12.23252712535167 0.9479716491033802 -0.26632360719674136 0.8212278332162114
Ni 1.7975951903267995 6.812027858645199 0.27491065932965053 0.23755553392511347 -1.0907403796638955 0.3572437285170815
Ni 2.5790456903117622 1.7956659736493519 0.2516667684407633 0.35574400404310347 0.41445668739296365 0.9699016164072523
Ni 0.6945940856654863 8.955831397698502 4.54495461978725 0.8508533693921282 -0.3165213110970549 0.5470543909577481
Ni 8.839272292430572 2.3269342057261038 1.6138422833453565 -0.4023434490691974 0.4223242630664985 -0.456446144450872
Ni 6.861988230442379 0.7267495084273329 4.738484036072151 0.09905689149486167 0.5885136865437993 0.07618024400700428
Ni 0.5941434867864762 7.318750657877434 2.480953626751096 0.1748291014301699 0.7424083518141472 -0.31211341183734637
Ni 7.573678979959271 3.9918844277842855 3.8176444610672693 0.6833624534945844 -0.8865767909356668 -0.7466583853397527
Ni 7.317274308964645 3.8781149879466548 12.709238377819952 1.6578995117913187 -1.0843691860302291 -0.43702351694988606
Ni 8.09476674468649 8.721553845685115 6.655273116321666 -0.3243873441086929 0.6520705853598383 0.712907771251869
Ni 6.69546875337727 0.6595439321519392 0.3622235643559033 1.0551928215765893 -0.27690241115385217 -0.07127406495463855
Ni 1.854973536109093 6.323066533142891 9.470445870597684 0.21205301877863478 0.6320458054984793 -0.7843746689436041
Ni -0.06283540234643455 5.061585259974694 1.2753806906011103 -0.12607558617555062 -0.8627493494987657 -0.30190793205925426
Ni 6.29711721022793 1.7987183023831534 7.04349944198876 0.5830362083689958 0.1106379114642417 -0.5471384660311222
Ni 3.5660075818989734 4.4735636396308776 0.6208626849013564 -1.5379765754807255 0.15029023574854117 -0.22206515159899823
Ni 5.983741774439204 5.4484520766122815 4.831450542272407 -0.7398729869868031 1.0891370397325177 -0.2917438470420588
Ni 5.364191500319829 2.8179153214587918 9.112616935030031 0.0010006733503724703 0.4118429039192004 0.7708959177308787
P 0.19968479494214605 5.6737900189513 12.376027333939161 -0.15686120409783952 -1.1622522716609531 0.5996864153311672
P 4.016094738482955 6.215836503826935 12.657313465659682 -1.0092194401702683 0.5652426318310007 -0.23832275110844117
P 2.342413225922148 8.54818700801836 1.5958797363279222 -0.022324631639129292 -0.14081469215793815 -0.7517879932568343
P 6.326807220878973 7.569358621484424 5.791541977911342 -0.7355082822602041 0.5633431008154427 0.2251327347807284
P 4.624667497986996 1.0533523058862189 12.672996276349823 0.7422252892690637 0.8663005571851338 -1.0396762139982287
P 3.9439710182833645 6.238398375862246 8.178044597929631 1.2218931232520376 -0.08768310244028125 1.6187027869871995
P 4.974788624200152 1.2770508669171727 3.549362880076697 -0.9589078363999097 -1.1996556520100758 1.1475103374650883
P 0.03987410094269454 5.556904848892815 3.598636704342654 0.787477990459276 0.1567709583768784 1.068138840214296
Ni 1.7455425694568953 1.2831826964506552 2.6143521669801064 -0.0816770054555174 0.3424292892120683 0.3451405174956443
Ni 1.848008429888638 6.60226856741045 4.649759089355692 -0.0631393516626461 0.3383162954849593 0.6053510698161123
Ni 6.179561795877751 5.565518393776629 9.305802171813792 -0.35158910133446547 -0.10561808965214714 -0.3341832471531922
Ni 8.655235890228452 2.0825848746267 10.23231527417432 -0.09030228523068319 0.8957052355994962 -0.3553704227537686
Ni 2.5712654221149207 5.087099829835581 7.164291049385192 -1.8540363735603296 0.3899723290983542 -0.29749849013764895
Ni 0.7721612763962776 -0.1089627013835404 9.224606604552552 -0.239813990941987 0.7537592580505922 -0.7121644653279412
Ni 1.4153838543099069 0.8582876678791239 11.490900005119759 0.059800774207716366 1.1956298186801344 -0.11890503656904039
Ni 4.040060500588709 6.91357892619233 1.596263768192353 0.16817482933844585 0.9324797241153682 -0.49763418865340747
Ni 5.789878141743984 7.526571675079444 7.92589507245174 -0.8547509046743215 1.2717308727097711 0.4934857137026727
Ni 5.141398674818194 2.8475872173992482 4.952799177019371 -0.27239835263591156 0.3159649243729526 -0.08697116397492119
Ni 1.0134274837538826 7.460416752018059 6.93901288559111 0.5527822945804609 0.24795410355061814 -0.2275202611762985
Ni 5.119334957324008 4.550397184582922 7.14681941102465 0.17820084611588022 0.11548032715820757 0.10981592978357863
Ni 8.309996678518319 7.331920052473717 8.924496571326216 -1.1645786058012846 -0.9036522583607147 0.3904811504139727
Ni 4.561637362501758 0.3159703680802223 10.48312521680435 -0.2739163319423347 -0.3563533554923282 -0.3988606327269195
Ni 8.049398452022952 7.373475198558826 4.655803968278359 0.6239630284903448 -1.3196030138007016 -0.683307688997249
Ni 7.382414808233194 5.980290922072503 6.969820573885331 0.3669807532991873 -0.2588604660504768 -0.3418021971510307
Ni 2.0349794152057474 5.196711943593643 2.6762990427722797 1.2728289908699564 0.9137353536283295 -0.6378053336900759
Ni 2.5310417072579097 4.946864797831279 11.530443512594253 -1.18893903692352 0.5565412474022609 0.5957564841491416
Ni 1.287258506332586 3.4103025870539203 4.049856030338282 -1.1363952013885332 -0.601071468604152 -0.4439708948019967
Ni 3.734927258116776 2.9561305632327146 2.723756867301954 -0.9715219256194945 -0.48930844239653154 0.06464473256357899
Ni 1.2305504048419877 3.3699067824463387 8.509996669424668 -0.9043557121856425 0.2767414600959557 -1.2970187007422822
Ni 3.7714193425929974 2.5523627216180547 7.054289469349525 0.12103005333184319 -0.12818414787812116 0.40691512760027987
Ni 4.180286475237717 6.797762524058441 5.98296374761952 -0.3540668734509967 0.4470911855985333 -0.3590555849148397
Ni 0.6259049145930696 7.481004120599456 11.448479881604152 0.5780492966773657 0.2313550615413564 -0.6093799884698473
P 0.37441748178711126 5.674568951506513 7.921096485617413 -0.6014936437432351 -1.3628435696568915 0.5904111606768283
P 8.583284259779433 1.3600252987579924 7.99934841240837 -0.18168777622321614 0.8477590467375207 -0.13183614280841166
P 1.6584742130235584 3.057319336568119 10.590250180798904 0.6877104460506349 -0.1428952288360507 -0.16006068487174369
P 3.952249441021331 6.175975083181651 3.6807724250833247 -0.7783932545491885 0.4331077268352476 1.2043060062978936
P 6.940135091911934 3.8243958137028056 10.419468312332823 0.09843005654414015 -0.22245158840413948 -0.6391183960745446
P 6.4440999719256515 7.6979730666475765 10.204715701124945 -0.80858829007533 -0.1482721768772479 -0.6878091764120283
P 2.556465703565865 8.654900768082605 5.6710556033882895 -0.029520892277252384 -0.692713298581865 1.03644716553797
P 6.86216032019295 4.02721717078298 1.5939967121624705 0.7523844891902527 0.39783373412430195 -0.1261645463449311
Ni 5.140012899458338 2.8535469571821612 0.4504512622667673 0.7364531626719769 0.008381539195475888 0.08963122730558758
Ni 1.5664786553107315 1.1701921891682379 6.937050156699077 -0.7823959479506783 -0.24992485412374377 0.8102772477419786
Ni 6.826791347773082 0.7116409340627798 9.17783895049622 -0.4904453842144521 -0.9007769936954487 -0.08982843091805821
Ni 2.7178768322456213 1.5045444598159685 9.23059895081452 0.2690260937295689 0.14487137872581501 0.47563480156418086
Ni 6.595937476060517 2.052025357867512 2.399334175262136 -0.42906543844507394 0.17500625043798249 0.5967355602329594
Ni 4.146819547429419 6.714362396518842 10.481772953659076 0.1421390673963165 0.49072640578998067 -0.7077565660682327
Ni 7.985535039850741 7.261653090109229 0.3127984822565507 0.07677956815390002 0.419414031398239 -0.14069513586093835
Ni 7.704521534524546 3.7829040691047493 8.085766450731656 0.19197707396436614 -0.5206000534209615 0.10370287490730527
Ni 3.1894208635191457 8.610519727146023 12.67844427555867 -0.7432411321280877 -1.21678382704993 -0.12327822593607157
Ni -0.048326424902289895 4.739840827895069 10.264886429544125 0.1548151202020882 -0.04837607731054249 0.131037043945884
Ni 8.507809318121366 2.347666491992192 5.830489511407544 0.5278803891324586 -0.6056791425794924 0.7332230857704534
Ni 3.6538367561769376 2.753037485493745 11.401473113368079 0.17078141372335748 -1.0494325220540441 0.05603127986295511
Ni 0.735064160586472 3.2254329081648283 12.621084044486963 0.5690267814637813 1.3358477577943382 -0.12819597495266308
Ni 3.1701830408764318 8.391096237813452 8.056841786602886 -0.1533076824186263 -0.7575745180316243 -0.2589473693373282
Ni 5.564431511141447 7.989710480640897 3.6258386594946606 0.5142530281570111 -0.6372108946391865 0.7788753363919295
Ni 3.3254079958909464 8.489431944231503 3.5963832343457107 -0.9111135997347662 0.1422568239211034 -0.14420623433799035
Ni 3.4134273746300674 4.290650349485112 9.365773638416522 0.6459099650750811 0.03347242072583267 -0.2261290372557267
Ni 7.214708817624678 6.080003346495119 11.490410002198399 0.8587304581473597 0.2894015720621274 -0.6037042782413086
Ni 0.5208423103987724 0.12608291435870878 0.4666630225060298 -0.15000201508416103 -0.6005469635592496 0.3829586167846824
Ni 4.549554850540656 0.5194927644600886 1.5471620336769671 -0.8631764097338553 -0.8244818213771349 0.44108020351776295
Ni 5.934777711724275 5.537159814353683 0.1274804642804464 -0.12620568399551166 1.8120204341398602 3.0201051907538954
Ni 7.8956860753423985 8.925733806059265 11.226581922805483 -0.04974081886855304 -0.22322034824936393 0.3292724401151361
Ni 0.12532662519172824 4.65997306891981 5.795201149449786 0.08669528460571521 1.2353060542238339 0.6233505917173264
Ni 7.8987565187867865 9.009668317561163 2.7072525544867214 0.5105331561032627 -0.6266444319772497 -1.1305932499947753
P 8.790371631202694 1.5982971444556722 3.812434670302632 -0.5307379131859118 1.448453334507912 -1.1845010557568247
P 1.6757103601464796 3.438896657714489 1.5773474816625472 0.8881832161908381 -1.0222837295533942 -0.7154683328901936
P 4.664266255328778 0.862782833311129 8.252850201031531 1.0391483665192167 0.6426948005718932 -0.3017143279912094
P 8.522002193865777 1.545945630861093 12.437085683177076 -1.6710828432508125 -0.10129092303170298 1.0534434429856503
P 6.248343351974158 7.923763876751256 1.6203644848919752 0.11600046132773573 0.39296329340587804 -2.0811318884943835
P 1.887625301941006 3.2607475364529366 6.221817075527023 -0.5704905104935014 -1.0192809381713284 -0.6706226373304127
P 6.820061732790251 3.7496182884023135 5.906621111324366 0.7371301341343434 0.6019263604052794 1.382245628332587
P 2.432751287616323 8.385516906952851 10.368404754660935 1.2465440890314985 -0.7069140155622793 0.3179261618643815
