# total energy = -340857.9031793919 ev
CRYSTAL
PRIMVEC
9.35358746578123 0.00000000000000 0.00000000000000

0.00000000000000 9.35358746578123 0.00000000000000

0.00000000000000 0.00000000000000 13.68992073127687

PRIMCOORD
 96 1
Ni 0.832136311889643 3.0086188774897735 9.60974966385665 -0.3439727224397882 -0.23225186232401293 -3.2997085457786786
Ni 7.414560858343161 4.741773191338545 1.0891382918543635 -0.18618720675546643 -0.8131913360649802 -1.5711952283245394
Ni 4.943773269926932 1.7425079014848326 13.517236153508023 0.017668363814040536 0.389172201794562 -1.6050872530862936
Ni 8.90955412380253 4.595557909411629 3.0215567599079742 -0.02841274681473816 -0.013526573731525092 1.8182407040179591
Ni 9.250370796497709 7.476322597504076 7.601602679583959 -0.409080767793031 0.1670260604459833 1.4938402472831436
Ni 4.801093644126448 5.3587545389884434 5.013797033046781 1.3709579712339097 1.104091604159821 -2.015567215219696
Ni 6.598525812210235 8.357926292965795 8.006112607286898 0.2632683653101853 2.0665015401757185 1.7472373762262037
Ni 5.517728114450947 8.7533492102803 12.491203711357876 -0.8511737288460244 0.11909864063708522 0.3239443430340034
Ni 6.089737412746661 7.186015298043631 0.6505597919045962 -1.4019258803703338 -1.8758799517979823 0.05204144197727166
Ni 8.968247886218817 4.039571306736488 6.087387791532483 2.013070159829456 2.4077887453635434 -0.41338685136755254
Ni 7.802594441425178 0.7285415873852058 1.7179622168102797 1.7350842858034374 -0.34338162582300863 0.1341668478241173
Ni 2.0269879158480117 4.028506012563027 2.3647010681655445 0.4474418840697327 0.2170399304702649 0.14689355136216636
Ni 5.576290926640329 7.471122002778426 5.63041826757269 -1.7344016579141162 0.07296739349666143 -1.4763112372604443
Ni 6.494860000439763 4.594023921039315 8.154333298402985 -0.26599990530873546 -0.8415770862965247 3.010131110260319
Ni 5.879889674131618 1.475023355856378 11.26413554550462 -0.8167134902856256 1.505957856482284 -0.8222256783531064
Ni 2.8646765173584208 4.63402921535875 6.232158879528391 -1.5690043913208074 -0.43459099624899344 -0.6444014988503547
Ni 7.305067761475423 2.7219781843826647 13.17979331987317 0.19115612072496757 0.328938196704169 -0.30767697333254757
Ni 1.4830300268728465 2.6507506145340547 7.065846951606856 -2.2679495297449974 1.4578592012028442 -1.2163266849078538
Ni 1.4023179191612707 4.336267106552364 0.014552311644184713 -0.11954755524904571 0.01667463244220354 1.4641026110093946
Ni 7.007296299081401 6.456519644719546 6.957874748088742 1.881282353760476 -1.8288287639464504 -1.1776351818749267
Ni 5.63625677697512 1.808394572793251 4.596678469210429 0.21419526193261823 0.13558069745250845 -0.9117028965793331
Ni 6.368623981703475 2.5760902780230106 1.9066914252606229 1.07289769505552 -1.3612559134547977 -0.6854159935895034
Ni 1.8362589103610785 7.679248681268434 4.310381052769563 0.341358938966025 2.166100163106663 2.6691874044548416
Ni 4.753577418935254 7.6179733286645925 9.057128482012965 -1.5751400719049002 1.3674658989202513 0.7664332539738349
P 8.594955557251232 3.223386603201385 8.079668285098125 -1.057308068147379 -2.036709653625267 -0.5178934531230759
P 2.9401225552308943 3.240812336967368 12.662547406469072 2.652725916464709 -1.4888476791645586 0.7926970727663702
P 5.464347189811943 6.213934349378287 2.75141392467335 0.10311332095242243 -0.5081831678138474 -0.26198795593586494
P 4.5479668555193475 0.8470506073753432 8.952236414903407 0.8361147776303729 -0.9933691034015731 -0.6392850035593959
P 7.012852330137221 8.822172908106442 6.041074437711287 0.4839183817292118 2.726340713737382 -0.005014679605772009
P 8.204003654826764 2.4187722875720903 3.2333266607822275 -0.08298004053765709 -0.1087016136734773 0.6846762872100015
P 2.0193928026875296 5.808512446880831 10.132718102176494 0.37700342764251205 -0.45256866377333665 -0.5817239173154756
P 2.620697537459389 0.7538131104603172 3.809973467827901 0.6130042154859959 -0.16002726053064698 0.2717229238354418
Ni 4.229514610861992 5.544151999522821 12.46693208680106 0.7422067773263024 -1.3721085398985853 0.1214159759163522
Ni 9.34840574851127 3.052908114946525 1.3785064911161484 -1.2311439524263441 0.8200168436272457 0.3533734469283979
Ni 3.279003035285408 6.129883010880638 0.6581072017681343 -0.9638171007760692 0.007893286705147697 1.4567297155840913
Ni 1.4149733232328618 7.806120743963974 10.266291075054509 -2.5565360621049975 0.7419319263983609 -0.9031956304392703
Ni 2.036715646989516 9.213227699994908 8.580171276633672 0.3115685950774698 0.7534332421697412 -0.6264593125496373
Ni 3.2299434681342643 2.270545984303421 10.443657545244564 1.1707435969614162 1.426665292098543 -0.34670734776213197
Ni 3.281332078606787 6.667798482242907 2.9791597532299976 2.46654616590841 -1.7941623229125165 -0.41679484860783705
Ni 4.522094832118 6.015460573328695 7.536972195095063 0.9317150780352018 -0.8754032908173505 -0.2538954087357176
Ni 6.826669168241414 8.93572546200823 10.540472789430384 0.4889747132061967 -0.5724028970248658 -1.1921955961876047
Ni 3.1547312699526926 7.287941342513794 11.434985371188631 2.324914377165815 -1.6888486518746655 0.9807773827794916
Ni 5.537819620693208 1.2379753843956673 6.850272011282252 0.060741026633798614 -0.7150574706050201 0.1750540729567824
Ni 8.10428505703871 6.856591295089175 13.146690973229148 -0.08758900006457819 -0.83464924882844 0.04640969761279105
Ni 2.3044714466594165 9.109711545626613 1.8194860570120928 1.9445050091655478 -1.6617229993024674 -0.2060330378368
Ni 2.1907224674172707 1.8502518774646268 0.5808718225808824 2.581978670547818 0.836982782057623 0.44417863993742857
Ni 5.745974359946124 6.663280699414689 10.843635659737833 2.079280694218258 1.9130290500444536 1.9188394860786437
Ni 9.583405284279683 1.6276551989016317 13.478835934826934 -2.4183901750284735 -2.1593587306177713 -1.644013497837846
Ni 5.660342265137979 -0.20037161898094905 1.592822438544938 -1.471061558825731 1.695249670305003 0.543481071784193
Ni 7.807664085923924 6.57597431241969 2.283451129164895 -0.46122968188244434 2.4658923343744954 1.2654946619920722
Ni 3.4226834949629508 2.3390516601499365 7.785403482708861 3.284395055350059 -1.1704304365963714 0.48730452459262524
Ni 1.0548882600073968 6.462253393940452 12.640259677849864 0.8006911467154405 0.559058871617792 -0.528177094437271
Ni 3.538050644866135 -0.046811900042197735 10.582349736635795 0.8085443242112721 0.353995653893429 0.04841747207143919
Ni 8.21899745580737 2.0299623567162794 5.645805854592775 -2.841958337804402 -2.16557900049587 -0.3642013907818373
Ni 0.866321803981921 1.8392988263427987 4.864206976700774 1.9235680019025647 0.5069336116774624 -0.319608691773127
Ni 8.836727090468154 8.514701775333823 11.757889923560752 0.5003330756418093 0.8820231101267132 0.1700010839139072
P 4.585951774909394 3.4930785955119505 5.798557423559771 1.0352377186109012 -3.2068374713795547 1.4593985206655058
P 7.150761626243314 6.4640960507047565 9.187689599672169 0.6375412813954118 0.32319126691806277 0.26355041532697837
P 7.5170948860096685 5.339822877613054 4.8770756425704676 -0.9232381509124423 -0.11884255876222112 -0.022229500822161716
P 8.625092816614623 4.038243097292168 11.902564669604008 0.2329925971447794 -1.1536727575220582 -0.43649438391929346
P 0.12375638265396807 5.946552693213829 0.9109318694945899 -0.7051152717906437 -1.376041042183772 -1.907771144079624
P 0.8770915247860824 6.25135805351017 6.193840037059736 -0.6377431129935727 -0.2427555900688142 -0.6184055890072253
P 1.826175742889404 0.5577011152888306 6.354245646789321 1.4070775997746026 -1.1031323255703456 0.32147814088169796
P 4.230955063357945 1.7507109978416588 1.7342524250372449 -0.04962306234376615 0.4695515714845784 1.7620633854954428
Ni 6.851334578837708 2.0094312318551237 8.670388500101016 -0.4109270769731504 0.10998947924696542 0.060162271312193163
Ni 4.2633745981045355 5.271420091230535 10.225864869291449 -2.0104412068470405 -2.1318422703650577 -2.5662129230731288
Ni 1.086924297660908 6.533808339356324 2.548501871290447 -0.4805389237340175 0.21334576944812939 0.04549644176990229
Ni 4.221405050381527 8.595310993581403 3.719387713007699 0.403446452325389 0.9007631097383777 0.47417467207888664
Ni 2.1773561906853387 6.376677420658124 7.880630487714077 0.03156800461426821 2.5313839883194014 0.7205933128215847
Ni 2.4640717124935367 4.2522905967558025 8.483397188233452 1.1980831653166333 0.16580864309911444 2.3378074310784
Ni 0.8895056062966634 1.3425391405792004 2.626191834836811 -1.4550885804362423 -0.39487773681977156 -0.33080533181989485
Ni 1.5424159547742018 4.140711649845223 11.459476805054894 -0.6874875314065515 3.7366539011924615 -1.664196400543624
Ni 9.483508968326545 0.8989910795183936 7.482924359657608 -2.5043467816959515 0.08326800409172111 2.859089855278367
Ni 1.9097126340670707 8.982596289652536 12.355208159282121 -0.037826069708838075 1.0529526193921608 0.7785449496357044
Ni 3.7174524557257977 8.514131206488024 6.754894413516094 -0.2882762002084326 2.1459869372965557 1.1231090258025884
Ni 0.17880972876229972 4.977156224200036 8.534830695926628 0.051122015486795826 1.892091528560838 -1.4490997098426592
Ni 5.100913542212768 4.153170628576457 0.5682360610433268 -0.3238741519177003 0.14419415015313233 -0.5203313731406071
Ni 6.983884269228338 8.763451084927247 3.932443732181911 0.3000868196901154 -0.059443905088929876 -1.1025386578504044
Ni 8.255747701629456 2.087851710595865 10.538952831439524 -0.7527652695684391 0.10494934571989668 1.2506786800251621
Ni 3.240774922616824 2.840637797133742 4.344044614671749 -1.2383091027162156 -0.4840284249445148 -0.7623364581966419
Ni -0.30202921548595785 8.87445010940439 5.7417446676170965 1.0050989902439915 0.7077820199895294 -1.5484101121092235
Ni 8.965825307021076 5.891600365851967 10.537323436473322 -0.5370911090974493 0.4696047933200171 1.1806040346952635
Ni 5.018199766747075 3.885274525092016 2.9771337661480266 -1.481890788230751 1.4065574656050743 0.4837471462586702
Ni 1.1854082218810011 2.033900217111061 11.429427469415284 -0.05973881062152937 -4.353148903440536 2.427619921156858
Ni 6.667358863624012 3.7585147054481083 6.174523943232506 -0.8130252428007612 -0.4343644820604842 -1.7036350661552209
Ni 0.46811806506321374 8.52589801973419 0.4608325556534853 -1.4837309267632834 -0.4016636493933534 0.6949321606100548
Ni 8.94603311558317 6.919353868127149 4.548681469614742 -0.6828268927060885 -0.37218877986268806 -0.676069519377597
Ni 6.708159212892513 4.465758173786001 10.685229847044837 0.32865666090800816 -0.7722033236883926 0.38141878310138827
P 6.417795791906251 5.5326003187922845 12.757596693309202 -1.1562178925414153 -1.0521638049422783 0.21813367775507594
P 0.05703817740470393 0.33168008829227325 9.9942176593318 0.8802788737420969 0.1610014515184582 -0.5181994143992689
P 7.429489184210316 8.890837594942772 -0.0467913221493984 -0.05089293019512525 0.27445832048873375 -0.5510899944797025
P 3.3750269659572165 6.7533089804117825 5.828771382341777 -0.8821292966872742 -0.19053494220120087 -1.6098214253371692
P -0.09862235731710682 8.520164270513284 2.7514279550548046 -0.22434160633800074 0.008536319605785297 0.47997302392821856
P 5.114513658635601 3.266759189069803 9.400116122398474 -0.26274951669223784 0.5927860886669082 0.6080419863847142
P 3.563660767813672 8.133019278256691 13.687635136267977 0.10119193555999347 0.44774553135308054 -0.45727609655133505
P 1.3755105369963179 4.271512219347909 4.435547956439049 0.2344085036556995 -0.8039554192890089 0.08134096227233732
