# total energy = -381171.50298291683 ev
CRYSTAL
PRIMVEC
9.23844829148569 0.00000000000000 0.00000000000000
0.00000000000000 9.23844829148569 0.00000000000000
0.00000000000000 0.00000000000000 13.52140291125107
PRIMCOORD
 96 1
Ni 1.204869175888876 4.327289137214283 10.238000256100245 -1.7586924121406806 0.6769750619110018 -0.5435317225164703
Ni 8.87340939695887 3.945103773598959 5.533445228937519 0.22066004372135545 0.05501800810709234 -0.475087156590827
Ni 1.5564752759598375 4.978220958988367 12.522103103106852 0.9882690631708463 0.6297544383611412 0.4737447836303196
Ni 6.624743389560561 4.453911308253264 12.86873799420101 0.46763609962942043 -0.21994424860125347 0.8292830994205203
Ni 9.211749085413608 3.65411113217288 3.0837995524671435 1.139182277215367 2.9909535088906036 -0.4477640432958418
Ni 5.145399917628482 3.4160732758332917 11.20530827957669 1.4724011035727609 -0.16942695657799206 -0.5546147198035093
Ni 2.6795934237205983 5.0884633613674835 8.523716579510277 -0.6029807698117228 -0.26655680625347 1.1762812389501935
Ni 4.3215890146744425 8.074837934489182 1.707793666728967 0.11034480570385512 -0.38234309468787053 -0.5821157534372555
Ni 2.252546155642609 2.481345563781484 2.8724460299104964 -2.8814710511870443 0.8539510344808454 -3.054479554468707
Ni 4.17838382911518 0.8898667314339621 10.63832900813695 0.6059732767811434 -0.02512790541587931 0.3207191512284864
Ni 8.44881031765407 5.4483101572334816 11.589491919537826 1.4932728048154476 -0.5795528778060857 -0.4534299833323675
Ni 1.7051773381985247 5.507205264513032 6.526523903669854 -0.8828348073947312 0.3758978532831591 -1.2055231665344464
Ni 4.594206382629302 7.678600891160571 5.036100760810658 0.36005163027952186 0.5359071160916771 -0.17933187439652984
Ni 2.4383775411999644 3.238177717280349 0.652374867383036 -0.8411217439266612 -0.25053574823486524 -1.524065621826588
Ni 6.944957242645498 7.584008420033465 1.1107266171891435 -0.8507867778202509 -0.10589885411735954 -0.5971736762116425
Ni 3.252155489408029 0.6381652102055183 5.733128743727024 -0.5354864836144907 -0.23947434821438116 1.4909179314300258
Ni 1.5383771559346395 1.9897954503661115 9.384015657477855 0.45817443999588836 0.25596180434644306 -0.39450184153759155
Ni 2.990772074465237 3.500697461351829 11.292074861232972 -0.5084881006487759 -0.897978347904389 0.14748876174400405
Ni 6.455504256971687 1.4321996707638374 11.735847415933534 0.19538558542528286 0.06749094376312247 -0.4226649342353689
Ni 7.953204525478585 1.8218127467325351 9.493904227290885 2.1017428798765154 0.4131850197693916 0.3458192887302238
Ni 5.608523325930258 0.3296869578699483 4.237837862510872 -0.9058680350651108 0.6818064218613742 0.005319098220068258
Ni 3.481712450299362 4.463805686276229 2.199445403074547 -0.7511004802715064 0.6001970364189985 -0.1935091943381764
Ni 8.665184012962985 9.0498452806961 1.5919148871025954 0.3561612940861802 0.091309643449275 -0.6911559813970742
Ni 8.030752059675375 1.9561582604673133 2.8779761650034437 -1.2879735598208786 -2.645938718339546 -0.14991151225288377
P 3.031532107926786 6.243869885589739 0.41668542457606894 -0.034365879074379525 -0.2795365063425896 0.4602650039763299
Ni 3.696718855274571 2.352958849136166 4.271776225821014 2.861357054045988 0.874820421730687 3.0406454767990927
P 1.9450721226264567 0.4815550363070201 11.037047498652273 0.336736095482033 -0.7380336197852193 -0.6642457872697914
Ni 5.093174969949847 8.59340127044344 7.242942465514696 0.08930726830726556 -0.7741457921267442 0.9655492529758273
P 6.263187480777431 7.11314319213949 3.208831786570782 -1.1477687333327975 -0.16316374927709962 0.12173402137740325
P 5.795675809580316 6.891106328083538 8.932062456895562 -2.001844980537598 0.6581198768777118 -0.5181024838100883
P 0.488117106063987 5.967843530248816 8.606886633282022 0.7362952969378738 -0.2859830332988817 0.25371157485968565
Ni 6.9497242819170655 3.514665995031308 1.5426970543132934 3.1699994766155988 1.172401187169497 -1.284181439768298
Ni 4.723387603819882 4.853705154139148 4.349240613983999 -0.1049496028302128 -1.1746581015244737 0.5683845198940921
Ni 0.5035425430247187 7.103461298425142 13.13631301712792 0.016566388999113404 0.8198553783487171 0.566526897860063
Ni 5.336506457108444 9.218289906739713 13.486328256418718 -0.3735419514564728 -0.1437182389579783 -2.5328993965226636
Ni 7.0608812906680525 8.256142480428187 6.077369952892377 1.2487940614079396 0.451933344182183 -0.059353402257652614
Ni 3.644438476906733 3.8318403986582097 6.665375932436939 -1.3826683176923025 -0.753826878063734 -0.9492584862356039
Ni 6.187543066909988 0.43443433125928005 1.9903100319308915 0.49810547186287124 0.806478957041811 1.137962031655021
Ni 7.852708685951221 5.343379862569776 7.301692529157496 0.35631016095921864 1.215300043415552 -0.8967745574042748
Ni 3.5526729709290437 0.5340405082249146 8.539455199865012 -0.6023418506761433 0.12621365441531168 -1.19053826308984
Ni 7.221131413157631 4.117724178229294 9.19820459650654 0.8057022267767867 -0.1856156505227126 0.6376425828599663
Ni 5.288521957153939 6.636162111536643 13.063230424946534 -0.5090254612094847 0.278707582683391 -0.5959693714908961
Ni 3.2148044433325436 8.031685142943648 12.6519088433958 -0.5202362423236395 0.30134948845262294 -0.39411180518802447
Ni 0.396466156843987 0.7564718540190374 7.3224208353854365 -0.3206841842254929 0.9623325458107428 -0.08320398362300509
Ni 1.4831404741425724 8.712447913957837 9.032066810978646 0.266794890406205 -0.4329526893146221 -0.025421525396898157
Ni 4.41619072424975 4.390406215321558 13.338214683330415 -1.954940345566259 -0.6742113831229356 -0.4238180740032056
Ni 2.0852655740722867 4.566842099058788 4.203344268463868 -0.06028645559488327 0.5569999322062342 0.4201269983048635
Ni 1.2478002446775924 7.375459690350555 3.3310518370421236 -0.5253229128179276 -0.6265971236790822 0.4516039858672222
Ni 1.1122352557803201 5.278156418272737 1.8565557788809588 1.707670412566859 1.0527189061148 -0.4372063223846535
Ni 0.7049591906966781 2.2193524112574448 11.805104366715005 -0.2713390581334617 0.8772051199127796 -1.084042655928746
Ni 1.0984052988238517 8.856835620886791 5.218207204053486 -0.5359875916206253 -0.19239333556617833 0.18098946460461085
Ni 0.8086931063183915 2.1255174928827962 4.55417064350669 0.4072470570184018 0.7913922379120176 3.6058917081745188
Ni 7.535109313707087 1.1849510815681372 5.065915080844001 0.7956420143273071 1.1921868544368563 0.9175598695807424
Ni 8.858239865013298 9.071093711557742 10.465701212748055 0.6250333787363881 0.04020536857429205 1.0825323899318067
Ni 8.195362729715692 6.077356095220075 2.5164276469788738 0.04715017532324138 -0.20483078999858273 -0.5265369877306867
Ni 2.675888805992112 7.774135684004151 6.930868609139409 -0.4798457543217349 1.7756028147427745 1.9215468577074777
P 0.5591672396412156 0.5886203363499108 3.3155016810306823 0.4319990671521011 -2.198732347319387 -1.7425065464094376
Ni 7.322153844232436 7.637739234768815 11.736604968685992 0.39592880379210527 0.7864107255370263 1.2495769623205513
P 3.6866766620803957 2.7397080061626427 8.573826846395768 0.5378554980672995 0.40785049493035563 1.0165941353677845
Ni 3.6454639446570116 6.5464013488185095 3.1922681727917226 -1.035197609401585 0.0618892813056289 0.04500073308040637
P 5.785541231904133 2.780440324279589 5.001999800812184 0.6958551866449564 -0.020299116568668264 -0.2838590449773434
P 5.4069034323978835 2.051332753831065 0.5517857195288454 0.009575816613893185 0.2715594016743839 -0.5152711850088803
P 8.934586400943996 0.00035660410054754767 12.719813285360685 -0.9824632551223468 -0.5805610073556259 -0.11427293711366769
Ni 7.637480558219195 2.5692493984112748 7.057861241951239 -0.3519732241467616 -0.6876878203428156 0.7566936580885678
Ni 5.8957097266976435 4.183418783384568 6.789177605240243 0.8246612843777926 -0.09048380511386997 -0.8803210398339418
Ni 3.078980777885651 0.23680452350479314 3.4119769479010946 -0.5883882167095287 -1.8696337137779544 0.7379279474452904
Ni 7.9408804355788325 8.47703377690725 3.7106513590060675 -0.13285892764597118 -0.6627576327600392 0.6861176476422184
Ni 0.1234977278575002 7.601330510409802 7.135784780989799 -0.40127849813979277 -0.5823895759239326 0.14311068728096643
Ni 8.826727518200665 6.198869404404062 4.846516717594173 0.4428144126000503 0.4017826914697209 0.6077442526386372
Ni 7.721929213221919 1.6555668713606926 0.3277976952129023 -0.28121595092754154 -0.24409667747774091 -0.6997048994083498
Ni 3.483070502184867 7.261383331968141 9.16361677028789 0.5692422399086972 0.37564305695987565 -0.7194671696369415
Ni 6.236257404272351 5.584531075953005 10.85994459895495 -1.4620063906019982 0.6680265944684625 -0.20394144541509393
Ni 3.4972792355175644 5.837830848720172 10.953634473692848 0.22893308236342508 -0.48710577831825785 1.0715090422381095
Ni 5.086033649490696 7.892101429079064 10.841001160919388 -1.365328026641642 -1.1772346040023984 1.7293381273482797
Ni 6.448704759095962 6.233190239469714 5.318197700464271 0.06495043672945588 -0.5561524966042745 0.04735534935551199
Ni 3.1892786109539717 1.4467687035763628 12.592050165968915 -0.5015510072093105 0.16827278836889084 0.9165851643722988
Ni 0.12029475786631277 3.785481865587028 0.4441901325592337 -1.7968534965914345 -0.6389142504835384 -0.4085804311178447
Ni 4.947383018894385 4.8825198740771745 8.895974306689114 -0.11486403373044733 -0.6822946743517023 0.5179348478839725
Ni 5.805791910360098 2.0776253774102966 9.170093846321409 -2.148380120119081 0.4141653814047899 -0.4380437306842843
Ni 1.314834424821971 6.971813411564972 10.833334172757615 -0.18964611183834434 -0.1665097829311971 -0.6781899081547094
Ni 4.304775038949144 6.050564595438006 6.785756607871519 0.7079483703640645 0.4410292956751695 0.241111626707488
Ni 3.3529469592778147 1.1279313792733328 1.429658173663821 1.4253020932024292 0.10196815160438569 -1.7421663894611996
Ni 7.124377145151558 4.435905572710073 3.96608428946278 -0.5327721700071212 -1.1417402677505306 -0.14221054406420025
Ni 7.796280244341262 6.742598273257065 9.376078906628623 1.686300431531515 0.534415619147815 0.6205010380836733
Ni 0.37704601488126677 3.8742633527958867 7.732876774339764 0.8004895722275955 -1.3656339879178352 1.025946266006646
Ni 5.019692352961371 1.7662896730462458 6.859867439337645 0.862669645300766 0.07548990280819903 -0.3012443303333263
Ni 0.8581908640881752 1.3615902111657827 0.36480876639460147 1.249272543706255 0.06488641626073986 1.625078608606556
Ni 1.722046744613028 8.504915413577004 1.3984645533141113 1.1224238268101057 -0.16758296139071785 -0.7513622185733253
P 2.5848808527668816 6.962113040954223 5.103653217899097 -1.35017214483681 -1.215143720343346 -2.223074523609178
Ni 5.5812606652899515 5.351685227502218 1.6168762502961036 0.6477555029242521 1.6287321461987434 1.5429439467883297
P 2.0227489950980573 2.3426302640477683 6.812163788208439 -1.2411704834244106 -0.5480712622580368 -0.647849091079323
Ni 6.5148150944202685 9.078927915631946 9.780652725613555 0.9586435269949297 0.43017666923138176 -1.6163232310114295
P 7.852911931811637 3.246575466694798 11.607394184461171 0.679226834059656 -1.0780874667865754 -1.2584480395579358
P 7.403941826153354 0.3014043725482835 7.795332379555869 0.3900232369409477 1.003494107650717 -0.29413960096774505
P 7.976420745806978 5.918759654958423 0.14350173974650549 0.20942766534064577 0.05983831231387113 1.0714586486161481
Ni 5.1884603246920085 3.0072996582963136 2.488519218809338 -1.7711928586005368 -1.5043054084805254 2.020727162154081
