# total energy = -340861.15335796616 ev
CRYSTAL
PRIMVEC
9.34502241648548 0.00000000000000 0.00000000000000

0.00000000000000 9.34502241648548 0.00000000000000

0.00000000000000 0.00000000000000 13.67738491586869

PRIMCOORD
 96 1
Ni 3.3068483072260224 2.4245006397172935 10.854961184848952 -0.25794592465600735 0.4511594421306359 -1.0238644437769528
Ni 1.4917272314797165 2.22291916209276 2.052729483626186 1.319627953501366 -0.5474688527873475 -2.337671419721168
Ni 1.0280272212933863 0.5653962816666149 0.303923490150845 0.5707800167094622 -1.3598235518836452 4.267482317209651
Ni 3.834402855292304 4.450931361379224 9.288270987393586 0.8981832648263435 0.8864798603464862 -0.5005814442071895
Ni 8.825925070949214 2.1061904876220336 13.038951787239311 -0.2469637146128908 0.7467290906766881 -0.5741376203277855
Ni 6.763301077633684 1.8698548717894603 0.444080135712606 -0.0627256611639952 0.3608712979673398 1.0565591057964965
Ni 7.142914576500857 7.645648745142413 10.772103543971946 -0.30500662558923597 -0.5707386219485655 -0.5720987355208857
Ni 7.770544969167812 3.8739416449557136 11.235205472726355 -0.4291202029424093 -0.579105505856022 2.1470241203118183
Ni 5.422000671304499 9.384551818408273 13.670450084666767 -1.451858503534719 -1.0476993414130213 0.05079728515752542
Ni 5.1531069975217205 8.970997198279578 8.759311882464528 0.11733460675812696 0.3248591415387889 -1.0438599130622732
Ni 5.125071930400419 4.1859812870381745 4.817092700539359 0.8026485275521273 -0.5560671359793197 -1.3918970353794222
Ni 2.8945552651177855 5.583847113795773 4.514015869415577 1.4856412564121189 -0.4562512548312465 -1.1292848155959971
Ni 3.4471077480338947 6.013297616982247 2.0574889035211457 0.5637462497911323 -0.5431735678461033 0.17627843228218673
Ni 5.93985508614681 5.897662310129252 3.1843827235200397 0.7834465007023798 -1.0699779503055638 0.8603584806690859
Ni 6.631676437499173 1.3013410906589566 7.064081836760232 -1.2060648979705293 -1.3036284927493162 0.06499543103477838
Ni 7.44759034095279 6.3669880237845895 5.962108387925462 0.019990841299630087 -0.22266370441494554 -0.3811501028210339
Ni 8.826644637671995 5.148602696737565 1.7707294159641993 -1.1523956905818475 1.8023062921758897 2.0249070045633837
Ni 5.215456986799496 3.873820159664854 11.08772232962356 0.2532099526329188 1.44566677290171 -1.0039767037140905
Ni 7.270492821947528 6.62328460740753 0.7482895835480883 -0.8323370557554955 0.06550502368134525 -0.2990753477064656
Ni 1.6218099429225568 0.2749071956802977 5.69362215711818 1.086756198205167 -0.4000248282383498 1.2015222729051696
Ni 3.5073364172328243 2.8534371666732095 5.7874349677239545 -0.3786342783777156 -0.9424265509154351 -0.4137786874893325
Ni 1.8202047679176352 5.837564471243554 12.721486425166638 2.774621146010325 -0.800688575612279 0.6856983007166126
Ni 2.5759367272841915 8.544929593192407 9.905462990069044 0.9619360817032724 0.126390289202492 -0.23522585735067233
Ni 8.571927362830221 2.7124020890083145 2.097795854023679 -0.5083657161382987 -0.07526313150937361 -1.9834932175032873
P 0.35604909044948124 7.959987262728822 6.820501959583513 -1.239509036561588 0.45028192462168903 1.3734401142258152
P 8.69528165816395 6.076469968228914 4.1037077100595285 1.0692516136625005 2.9044024631722367 -0.5271671651155179
P 9.023656399355756 0.4753831571580141 9.96156770089443 0.676767573885886 -1.6559246474531353 1.070338676079092
P 0.9425763367076586 6.793233184296861 11.102508024023333 1.0633992686467815 2.163018438857546 -2.2596456378649923
P 4.045357390357726 6.571924364441306 8.798798340002643 1.2156486850042223 1.644979461295541 -0.4296961300505374
P 2.9246275471165686 0.42147172308375097 11.693001297776938 0.8346065685159626 -0.11326712155697267 -0.540311930027592
P 3.414418859770457 0.5734657084863629 7.767674178294591 0.06880811991264925 -1.8912739177555493 0.5170524452790192
P 1.4462917326984601 2.4541150156197618 5.931197857419752 -1.1722620904884715 0.8426248108347487 -0.33342605727219354
Ni 6.613285433467599 9.152608363091371 2.127326124724783 -3.4171855916519407 0.7813106853062995 -1.8047616956949177
Ni 8.019272084668001 8.95252208904664 8.063023610417504 -0.7115119193456069 -0.44307049447491437 0.35144177712332375
Ni 2.034402025746754 6.169480975915019 9.242424307627884 -0.11312236844899227 -1.669383086950886 0.7325039482162418
Ni 7.6399576265167894 8.654705571017052 12.883741245135647 -0.6030327060955808 -0.9854791591305352 -0.8388951685889875
Ni 9.011937741299052 1.1028060903282717 6.648385337503468 -1.1541155014864317 1.1241865751374833 -2.0594816572144596
Ni 4.9238642536708355 6.00125188314246 0.15899994867622527 -0.2634920512852172 0.30309526749913607 -0.5931221318500882
Ni 0.8629679601100103 3.847541956749821 11.250634104665444 0.23531713151289796 -0.4005243935825876 1.0200442986999143
Ni 8.77786362088093 4.9909988944039805 9.511759066466706 1.2928745966669217 -0.42559599183923474 1.0105936948099756
Ni 0.2612662665213097 7.818372793676753 0.6524031124775748 0.3017233268522739 -1.9203590080469637 -0.6732490192096663
Ni 7.140634391041658 2.704916726086927 5.389669697397977 0.39319006470470347 -0.41845372436749867 -0.15524783686413263
Ni 1.8542393394028955 1.9411387024565567 12.738746681490987 2.2061443235127425 4.043699411588597 -1.1274855576037293
Ni 4.246424891751702 0.47849878761742815 5.781744783600567 0.5561434977432099 -0.13364285699984726 0.07322758913658356
Ni 0.9744989331364475 0.010682295075453329 2.8525961146595704 -0.2169810522078715 0.7314657367597145 -0.5730605852135228
Ni 7.900665060700147 1.8764804926524614 8.984714756622031 -0.28994793148390063 0.787091810764451 0.10400960751444668
Ni 0.3769324119481389 5.6132278641388975 7.565248845149707 -0.17051479032553216 2.0613097115621337 -1.5701066232460508
Ni 1.356130956836354 7.150128933773406 5.120731167507804 1.1066621931004748 -2.8928222145338047 2.411239422916305
Ni 3.4356974757155245 8.58596358643562 2.4239474143927664 1.1627973455311458 -1.2516431008209605 1.5935856802045976
Ni 7.741967890748832 6.670131204567225 8.406120499856945 -1.95042291731188 -0.30526862100137103 0.04342361840127361
Ni 5.235371229477994 3.3537322844752127 7.157922682433127 0.2678063623898549 0.3181138523951554 0.23304453342863732
Ni 2.4184263751743447 7.428376974952325 7.202893733602407 1.2806317747438267 0.6668827106720063 0.6063609991378655
Ni 6.644890299135679 3.829066847516883 9.177265204624556 -0.8780026761134104 -0.9488134282783853 -1.914832164691464
Ni 0.45738370956390106 4.554605039593798 5.175125739238791 0.016734024925229248 -0.30512386789339063 0.05819049229780301
Ni 3.2866724039210586 7.797243698089665 12.814355388512663 -0.7496352085798895 2.3460979532219657 1.7263016545148013
Ni 2.3448436690033017 4.846328603035689 6.555406102893434 1.1852016813682749 -0.4896987358564147 1.6725067201815325
P 6.8517517144013915 2.4496667849698484 3.3209237799253906 -1.6428744991373962 -0.640551271866329 -1.0626850161885764
P 4.5225796479188975 5.825014106195585 5.959591773400207 -1.1142742011197777 -1.3611602684171977 -1.015605031981638
P 3.2669730967571575 0.40225181556762385 0.8350674613108908 -1.2051200175587566 0.06892973309217806 -2.1144127620347004
P 6.791681910582816 8.827336169327653 5.614635224508388 0.755700183827047 0.7953051998131787 0.8135134952910892
P 7.916364698288076 4.3124287847776195 -0.03568209892975545 -0.8452439936251508 -0.7389471327384242 -0.7948845673359923
P 3.7011521812647574 3.8041156377789243 12.760015017911444 -1.2769314430741041 -0.004062342994831714 -0.4062481834402422
P 5.849273784277885 1.7446222269586056 10.158671978299692 0.3076654033683217 0.593315478807817 -0.347983129150762
P 3.780080240233595 3.4311464498195003 3.031988771159831 -1.0819603194784204 0.31056740750646517 0.20364988231660408
Ni 7.911094105669272 0.5893774780821764 3.699800891029511 -0.9596958795188439 2.188571604736302 1.5980527148370156
Ni 5.80208142129036 3.8456636072526935 13.28886478607873 1.3244613703342674 1.372448439736507 0.042890114495306775
Ni 4.89093239482568 9.237059330283104 10.986236321146684 0.08129673929796322 -0.40948571654093346 1.076372540977998
Ni 8.960568153310454 5.861674628967874 12.263115881240067 -3.173455039264367 -0.35610730091979315 1.282959394435739
Ni 5.241305318685336 7.787281904239229 4.596517464940144 -0.9161061678533513 -0.27817485010837256 -1.2581976141100268
Ni 0.9390812983398696 9.258655676988882 11.89754701649843 -2.1554403693999715 -1.8470923381423285 -2.587622499097156
Ni 1.6095959986800428 4.297289848532117 2.8141357405780942 0.3396416991646022 0.9072065513708762 0.28928330131670826
Ni 2.537949211334828 1.4048465584708025 3.854491849889192 1.4888083412861908 0.27761434961921216 0.7700762500430608
Ni 3.073325543127953 2.512885861328384 8.237574610825916 -0.7262967909642654 1.3304916356887473 -0.14954333028018763
Ni 4.835460342014999 1.440049257752784 3.2268502431953876 0.7906664154895866 0.19126770660216738 -0.2790001742231453
Ni 1.1537364622653032 0.8521389481832888 8.328816605776666 1.014439293808311 -0.4579147585765985 0.6267837857685914
Ni 9.112677082488263 8.475767082604156 4.750457084000974 -2.633123054632117 -0.05485834260077649 1.1391215991807608
Ni 0.6825052985479538 4.044749963903431 0.3156057026202914 1.5255198377746113 -1.6406736348313355 -1.6930104965618393
Ni 1.5795330617036336 7.144746200886115 3.023222205671 -1.0369480164337885 -0.9046637303443645 -2.480147558741929
Ni 0.2748277629901207 2.1886135849586608 4.023804965257106 0.15944850520904152 0.37233070475719104 2.1240279165269613
Ni 0.16889913087675695 3.3466674475606446 7.579281330746156 0.5607989942373502 -0.8123084192393946 0.42308068161654877
Ni 5.26674246958673 1.930214371301623 12.290142620447241 -0.2603434783539064 -1.5554474785719794 -0.49557833456564326
Ni 3.94572076180862 2.302407922404025 0.7626220443627351 0.41252784580136703 1.6039901633673732 0.3594530774635745
Ni 5.6027894741474 3.784350915458407 1.793816293738591 0.35622197212078655 0.11285548794085079 2.5332871188793855
Ni 0.5015781893739211 7.790982533099241 9.037086131009097 -1.0969246540977367 0.7130129293711656 0.7297171294997239
Ni 8.34395554202217 8.028243306146818 2.577681442961374 1.6301997318832055 -3.3892294727586467 0.33989803814978237
Ni 5.264705254709249 7.390669809674174 6.929332221143932 0.7236997196610504 1.2860796852322756 2.0448682781766587
Ni 7.726314978272772 4.351248007718248 3.7068722694597405 -0.944521999991883 -0.7655948172329395 0.3239641405283453
Ni 4.0768127356678265 6.6546091224043975 11.117088127930886 0.2045901347426864 -1.7155575286244196 -2.6064339753767047
P 5.495882418191503 7.571253022024852 12.371440577090066 1.961828073825028 0.30741446369978026 0.7353712424617077
P 1.4069211534377788 5.933977067073711 1.181211762546416 0.9717828925903651 0.34382462689769816 0.12956791559952524
P 7.394884414764743 3.9308621762343297 7.086089364450453 0.39103676580712654 1.222653655567146 0.837970342781873
P 8.368131114903106 0.3949355975512015 0.780266381106645 -0.638331638507191 0.6265256470111984 1.7099532950637648
P 3.0184982968610607 8.425388066987178 4.542054674545828 0.6052834498029706 0.11631079347930291 -0.3308027607167335
P 5.350081379115986 7.33479592090142 1.9497931276769027 -0.37212758760744946 1.1587820537241655 -1.1427103449732836
P 1.764358914212002 3.9763724351945764 9.368995159662663 -0.9874352544156414 -0.9086772223791318 -0.7829983574213677
P 6.5147141374691016 5.559764991138576 10.2814132401657 0.6510596275968207 1.2878254642787885 0.5716580484390413
