# total energy = -340887.3537744301 ev
CRYSTAL
PRIMVEC
9.08145602583058 0.00000000000000 0.00000000000000

0.00000000000000 9.08145602583058 0.00000000000000

0.00000000000000 0.00000000000000 13.29162886145074

PRIMCOORD
 96 1
Ni 6.464988730017854 2.1303915515040943 11.586858249450101 0.3763683651616744 0.20144618979706597 -0.6415411465834241
Ni 4.838263817491915 0.37066326493480123 5.741664370654488 0.014676628175568272 -0.873980956548527 1.2469464666762395
Ni 3.168656269073099 1.5781936109140084 4.680899437353126 -1.66620366078164 2.887731944495091 0.8612827922555683
Ni 4.149853116258614 4.566401346486162 4.983004973596164 -0.4520958379019762 -0.15808170676850195 -0.4566924561337231
Ni 4.124824623136893 2.572985397941039 2.21958234854584 -1.6014823093438548 0.5281927781665549 1.6357787686328797
Ni 5.123730309795323 4.687611541586168 2.4519995148076896 0.8416020259971894 0.08578125743187807 -0.4160217178872384
Ni 5.426387998571671 3.022390336482952 0.3979848257318619 0.7190442231669101 -0.2644646996111316 -0.4531145089744777
Ni 5.832274599290908 8.055751076229564 12.370877612779253 -1.6117446105018112 0.570877718629591 0.766697563378815
Ni 2.4186006435617697 6.513601764735044 0.06569525371644899 -0.11004990017125563 1.4963774118827005 0.7207393514811458
Ni 0.554893316772425 0.22461710358324063 0.5846577892711341 0.039486231020080385 0.2918418060725038 -1.4017194207864827
Ni 8.02044237475741 0.2155329230064416 7.232082075393357 0.5252660914380631 0.49959876857894603 -0.6342878074551206
Ni -0.14155084056228187 2.7769730657567533 1.006277104607234 0.25808270734418776 -1.1918909204629924 0.48111819327625527
Ni 7.1349277494624825 1.0417247523583284 4.973927150038662 0.5063743967398828 -1.243422512683381 -1.4844971155053466
Ni 0.9525993418007903 7.622892550774652 2.269505837384026 0.6644121376443267 0.09247383896070525 0.3726137832152486
Ni 8.128765983594818 3.794659203712616 3.3294734188362995 -0.4133441710550752 1.791696377870527 0.3222474149475547
Ni 7.711618377262033 4.328449032707009 12.580580240943844 2.3831259525095407 -1.6724172457915196 -1.2032405411478566
Ni 8.297054447324362 7.622965202423772 9.040620464278076 0.16758604671451138 -1.1454691386653433 0.45800166186345
Ni 7.138705635216704 0.7457882492711634 0.3755499964837121 0.04674651212691949 -0.08989553671056776 -0.7181116840503117
Ni 2.082931861716679 6.630679897291369 8.881081075393768 0.26320048818672737 0.010611714077575272 -0.2708181526329852
Ni 0.38941738000942644 5.112333082339678 1.1505887078360628 0.06618662312940214 0.2947486953066537 1.0560034904033426
Ni 6.273796833903339 2.2497491295515495 6.754553683477225 0.05574588741205238 0.7176216317877706 0.9034167453111409
Ni 3.7233152842771133 4.584800376625715 13.40886080520792 1.4015564128460571 1.0552416725366538 -0.36836066436584947
Ni 6.333462000742856 5.666656083666513 4.684542009410863 0.09438776815396648 0.7020353473137393 -0.4415838826270589
Ni 5.235314161386976 2.677939786550522 9.38379688591407 1.2098796437309292 0.5912172015178915 -0.37771073812218176
P 0.5773072586714529 6.002479250265983 12.443410294823478 -1.0856899617241818 0.055520915885439864 -1.4382270287942134
P 4.536259993557644 6.350026576742138 12.063801795590818 -1.9113462630253921 0.2755278994038287 0.6956641536800728
P 2.7592460633715574 8.65417362857203 1.143241809818838 -1.3274451355529395 -0.3813599048389948 -0.11673836793502476
P 6.656180626132368 8.165309763102004 5.895727641486403 0.23614245562767072 -0.28917582920456647 -0.8575608633192907
P 4.5617425594863645 1.4327268464641771 12.522655081100742 0.07766891273738882 -0.7579632688296107 -1.4256432785919317
P 4.229742685921816 6.240440645501277 8.074212768416482 -0.6662057392096397 1.548781122295397 0.13370739168919551
P 4.988425694766104 1.0011397248688605 3.6225937623744637 1.5575293008016724 1.393054546022633 -0.5574694156434851
P 0.8007419566652711 5.779692968240558 3.511315955854729 -2.242241840566248 -1.065379532301604 -0.6853895112269421
Ni 0.6828374116002094 0.15905080654397902 4.663381308459148 0.5274281320863884 0.5846701444279931 -0.32937605557253596
Ni 2.2873917652516713 6.809966004406401 4.5459762434817845 0.8190279973514153 0.7372697450360013 0.4549271367031843
Ni 6.392500547108717 6.03703419087852 9.247331660790163 -1.4796778397398322 -0.3388408005298616 -1.4859307626280795
Ni 9.070867162097818 2.9603004208540655 10.468526873823164 -1.308376806067579 -0.24845058357106248 -1.0301916715465613
Ni 2.432731389315543 5.52789143384797 6.518068933010289 0.7642853543928967 -0.051070336313253986 1.4629538421169321
Ni 0.9950279048866694 -0.10300369183062037 8.731816445986206 -1.7469434991348691 1.0204348492701136 0.35498604283115637
Ni 1.303134467346991 1.2242166134907644 11.451110459361251 0.8515498812385205 -0.3592149933108394 -0.6255388576178968
Ni 4.45923108257853 7.177138357601002 1.4230950540821388 0.11542067756486574 -0.011315425012819224 -0.2014140510075499
Ni 5.948916821952517 8.184889382539753 8.120002378419759 -1.4166940398184438 0.47608705861025097 -1.38762951835232
Ni 5.850310371184864 2.9891794513791288 4.272899581790119 -0.5782881521610492 0.7694499293129716 0.4389611002922311
Ni 0.6680337299464655 7.60232305261765 6.612492465079878 1.3892907081048267 0.32948815567036804 -0.009535707404577126
Ni 5.5670234283550455 4.948294740083634 7.02183455986037 0.11749555781602347 -0.9702839394473355 0.31887695581342496
Ni 1.0031921339564907 7.879207568868799 10.994901693879283 -0.17197929068620058 -1.5588133097204184 0.1764823207628767
Ni 4.762170296495215 0.5801497544432596 10.328073981308203 0.46655700763262875 0.7194167760149803 0.3225086390287414
Ni 8.511958025420302 7.258871462860616 4.474254535470861 -0.338197767629224 0.11375614537824924 0.9662264815485101
Ni 7.652507179247052 6.527069564190599 6.799040104524418 -1.0496834617225856 -1.2893375300479408 0.223054512095461
Ni 2.632323632359518 5.662642080052652 2.2549518957741306 0.06330081694117486 -0.5840250546448265 0.7189424074817231
Ni 2.4727261221559136 5.726857056418289 11.112040672191746 0.9965945523174063 -0.32461411540751833 -0.10053784691576234
Ni 1.568194927703916 3.576967618581706 3.5646822247155723 -0.12955531719403493 -0.07142730270305118 -0.921474117033484
Ni 1.9249962579866866 1.3063674657328155 2.2338974478592544 -1.3077363442701027 0.6413740248779406 1.8533786853716727
Ni 1.2047096457021367 3.8905684620067014 8.031932233065683 0.5500404701692656 -1.5660599639805028 -0.04980561066821745
Ni 3.8533435732890178 2.9823047890811814 7.195077866059874 -0.13462578973840686 -0.2702615087985668 -1.5058411283987616
Ni 4.483760095612554 6.974694537329081 6.027753850849098 -0.022895673651250892 0.46352259168167914 -0.39712385254147087
Ni 8.309078295253665 7.241362415422778 0.4282042791831828 0.45775792128375997 -0.19010582508358226 -0.9863402215792497
P 0.3403993123483945 5.786304268310446 7.819691337909976 0.03572522131575138 1.3941446937630182 0.22191988427038556
P 9.131040890481172 1.8160823545001823 8.41568823331746 -0.48755109338579256 0.7759069977922249 -0.3010419845145331
P 2.00247016031666 3.790754177572434 10.07966709522073 -0.6098744116077626 0.5764814379696136 1.8479235757943724
P 4.310549482655153 6.316034686410279 3.5033805794796344 0.13951679928212102 0.6700230560732009 1.6289509470777686
P 7.20524546435417 4.257223172201326 10.003837844597705 -0.9212388610942263 -0.7623637118901516 2.895025907053343
P 6.449159751965909 8.056168823212001 10.173200644588604 0.3598354005036577 0.3385163273109073 1.030215068585329
P 2.568935068502618 8.701587911078745 5.801251436971202 -0.4232881696416645 0.12769795227032202 -0.8730466176597157
P 7.071175927359984 4.035299628509196 1.3371908360174434 1.231559185586892 -0.12065287249808251 1.7688809226379085
Ni 2.5593632137311033 1.8283786461136842 0.10556193802524624 1.1490419436182664 -0.3194400274057466 -0.6906368756688106
Ni 1.4999387033559992 1.6143196434387577 6.788885220268718 2.016815742914817 -1.113189195585715 0.8323450261752955
Ni 7.430483739537383 0.919279479223288 9.555391907824172 -0.1365849703473067 0.4246570249647332 -0.03138159963507498
Ni 2.664272195059887 1.9876219795278303 9.124264307909536 -0.003973639935767349 -0.8549596782510179 0.3399422611241565
Ni 6.733155048374645 1.925768181758583 2.3608861735011155 -0.4006701751318325 0.8538129662410845 0.19302402717164177
Ni 4.202616376431764 7.435642006624879 10.111287817354448 0.3676135017871798 -1.800069689535887 -0.7452993002086972
Ni 7.222917978002526 6.337830181146176 11.393544925181292 0.9768050283953049 -0.44826360864007964 0.25035679945483985
Ni 7.807718346135058 4.005112868299979 8.03905663540748 0.510485847805095 -0.26275954399456686 -1.1373465095582092
Ni 3.1618270140558513 8.475241698246457 12.150608710395826 0.8279152725387161 0.7702045480908091 0.7577362404204692
Ni 0.2215621017377591 5.3787285167491765 10.193682960766665 -0.46413785666817486 0.21357356918821926 -0.23263238559188323
Ni 9.027712082520742 2.4449550292799254 5.528081236281295 -1.686073917343006 0.8265428176712216 -0.8952699478342903
Ni 3.6460684183506387 3.311235130470424 11.44935592203501 -0.8869436873567822 -1.9990779593154218 -0.6761386820526356
Ni 1.3510482299414042 3.8132671073433873 12.470658295825803 -0.4349576355597929 0.16841317060149705 -0.6476673140858201
Ni 3.025223750798618 8.86125807293147 7.9216779066529215 2.742717869543825 -1.0457563587540377 -1.2246516598337813
Ni 5.819024754782712 7.98670476519747 3.814564847425787 0.13366034050134398 -0.05976272188092933 -0.7304532363348001
Ni 3.261287121700661 8.82723893823119 3.4678257705460886 0.2445543338404498 -2.675342111202328 -1.3151539768904124
Ni 3.6962071376993415 4.426247233878206 8.979452316447396 0.15746207090663206 0.7966941097409053 0.5970356079718814
Ni 5.469652055622427 4.5310744821017295 11.581222297769642 1.3558146878345683 -0.4428432089554567 -2.3208597474804673
Ni 8.101939362157385 9.115420785920447 2.5277088902096696 0.30274816857236253 -1.3772486893386282 0.5734156545600964
Ni 4.835612032299048 0.5910084515498061 1.3174087001077752 -0.09781427733701219 -1.2768363122571367 -0.45700330250592264
Ni 6.101194678507317 5.557487899408089 0.23115847644085166 -0.8330520795446491 2.8987300953778075 1.871098471248939
Ni 7.983689721759005 -0.5020292524361213 11.623356621676589 0.9815196602621549 1.8489687292294348 0.22816277985630382
Ni 0.2859923086139121 4.7968069702130105 5.770042104800626 -0.611376964295218 0.4312153949085412 -0.9699898052456843
Ni 7.647049224106937 6.353622833373561 2.592864705431405 -0.7493271904211676 -0.933978677258398 -1.1257564907277642
P 8.89920947814035 1.8516998254810937 3.3992280834473094 0.8066895303907203 -0.9993983403147886 -0.21033500764626356
P 2.3052095821982665 3.7046256475410817 1.2370496191621376 -1.9518930740995026 -1.4238350217385995 1.7510006999233783
P 4.7738944563719 1.0706673530763713 7.889618550187645 0.4374611187079369 1.4127466251349217 0.8132859526613155
P 8.545023607225886 1.7571346226957214 12.304632930966337 -0.39279128660438806 0.12180961181034505 0.5740180640307856
P 6.496564953016484 7.890132560605167 1.2965921863437657 -0.03276022515015648 0.14467186112049923 0.7904663836636386
P 2.302657693022939 3.5002202327429295 5.59165506184345 -0.4557007816444152 -0.27557700747420927 1.126966966096098
P 7.185947370056761 4.072143096069002 5.78946189061031 0.6438181155430589 -0.8129563372360388 -0.2541453199629946
P 2.612389836132312 8.993538563066084 10.082497785099557 0.3069357242911488 0.23097453827348607 0.7809900687420872
