# total energy = -340864.9696545515 ev
CRYSTAL
PRIMVEC
9.32833939592306 0.00000000000000 0.00000000000000
0.00000000000000 9.32833939592306 0.00000000000000
0.00000000000000 0.00000000000000 13.65296762893226
PRIMCOORD
 96 1
Ni 5.51045538566994 8.832183810010338 2.509074267737475 -1.1092698059266508 0.5595676929334105 0.39587172530192466
Ni 3.031887586707551 7.020993406264286 6.435448869602041 -0.5710296708264231 0.39206109330658284 -1.4530712928958975
Ni 0.18644552224800345 5.310847576340738 10.733949592120899 -0.9791881839155007 1.1194308056200528 1.3728906694802485
Ni 2.1864508464834658 6.459044904451009 12.883732601567669 -0.9431875974511756 -0.9960736468169297 -0.022557573585541797
Ni 6.2995209700955215 8.341261285402059 12.73139242148662 0.16284981758110664 -0.20222369139303883 -1.2798475882796345
Ni 9.112658994751957 9.06070947189214 9.273792067676903 2.5262875476331006 1.1437477850988624 -2.3782837939258914
Ni 2.268885382937441 9.057435224716023 7.681063913124347 -0.10275516628205529 1.1291709157259522 0.9560914499970372
Ni 6.559856269785184 1.195706561352333 6.7137514840664005 0.43669827239998343 1.7104808854324605 2.5171315921654456
Ni 4.276558602269109 6.767794286317442 13.614015654425442 1.4464409320635734 -0.5809317604314834 0.46707148537520204
Ni -0.15524502501165494 2.1146226320786212 -0.11629361045725645 2.218785409315521 0.6420741362687586 1.4123609596607287
Ni 2.4114597243612907 0.6413475965831831 1.2756653564942246 -0.6946953620089004 -0.6646890454547971 0.7448928087988977
Ni 5.789652587895524 3.4374184912298635 2.180911678468713 -0.2652506858475367 2.458307837159018 -0.22849368083316135
Ni 8.618079761046703 -0.28789494600624316 12.918301562209418 -0.3406367160880198 1.226986992835177 1.8259596699287712
Ni 7.079901870415791 4.643526151161599 13.551799361075501 0.24834953921682387 0.13975359788327543 0.37571659051028844
Ni 0.3331299300701356 4.689664118492296 0.8021094015947114 -1.351413216332763 1.2430329905544464 -0.8201045182450457
Ni 8.569171276874677 3.5713641185855987 9.755140917422365 -0.7141488427478216 -3.2271466152505517 -0.28547883996895346
Ni 6.138905620014664 7.351048715624313 7.535100585948124 0.27971751200514405 -1.35102755085857 -1.6501949440582095
Ni 0.6630695680199521 0.9136306335468356 5.9750850524702335 0.006599250484072506 -0.2813234230396832 -0.22528622963945713
Ni 7.298213000508853 1.0600351911829748 10.214003804723296 -0.13755119091531795 0.7866434103731226 0.7947526697438184
Ni 4.1130141535748574 8.101009900727155 11.43837448779293 0.6963364971567491 -1.676142774272223 0.004034060860057568
Ni 6.9048182657191 1.8163956172055202 0.5172956061362501 -0.5679458896947767 -0.2638682036777133 -0.5386733659829046
Ni 5.950463833106578 8.159060157641616 9.581229885004982 -0.8263499849341251 0.7681327531634449 2.496247035406953
Ni -0.18209105335395392 6.961599868457059 4.6881967706837395 1.3133418633823382 0.46410674631992327 -0.4974138451124853
Ni 1.351144682992323 8.001429876211347 0.7235582528883642 0.0006720863663601328 0.9600427213353014 0.40858300222100596
P 5.27356220322695 3.4738083437484737 4.303019370188691 0.5586336111549153 0.8324864368491663 -1.0037946696102713
P 4.203088600106439 3.1109359359110127 10.48865997126417 -0.338889651489926 -0.14155594119933687 -0.4004266916624588
P 9.841864624393658 6.910695119624951 2.354727561822857 -0.8392628363410514 -1.5643933749113572 0.9407640756113476
P 3.5618678689409062 1.7463677723305633 6.700712331067038 -0.43662653862178347 -1.318446017378123 -0.21370778077323843
P 7.288399587320035 9.228852791976209 8.338345246464014 -0.7998375404658935 -0.2846432314415356 -1.7887876888641647
P 5.213123891392017 6.276983701783561 10.440383948512487 0.5172766454746833 1.438704482651264 -0.5951779859378524
P 0.7708837178416237 8.023267519058326 6.602411221901218 -0.04288831472309388 -0.9151764569502303 -0.7061797084994161
P 5.583300389083892 1.100650781510078 12.569836774780827 0.7243525227537009 -0.11312751065531484 1.9996811401170593
Ni 4.665419764045777 6.212562188967995 2.4430352208468697 2.1700419213632305 -0.16381578103880173 -0.09074091542999857
Ni 6.905685801295678 7.586337423667611 4.120111154291638 -0.13662533666693888 -0.5223129223470101 -0.3060191260141504
Ni 4.380149812784148 4.8671917481466584 11.717823555185905 0.020252322491132863 0.1496906544913293 0.186622237410356
Ni 7.38583409374323 2.9088654449450724 5.114292932540717 -1.8454748571435635 -1.3172517399597057 -0.10919449414949581
Ni 7.4581753668223945 5.967973126410199 9.42097087749429 -0.3197616724112235 0.163726306648789 -0.10067591515552338
Ni 2.3804523237532775 5.913029206560261 10.780915916002135 0.8074732026342804 -0.25523109682800565 -2.1760570172090588
Ni 4.283694782011928 9.124431359242724 13.825131836236627 0.33014944340345076 0.35191897387005844 0.18328905927206499
Ni 4.636632508246641 7.91224162193541 4.707570799060028 -0.403690192905079 0.6178486880624908 -0.33319414376704554
Ni 4.520559979436319 1.6404724619508497 1.728301577156815 -0.368485619979488 0.26487659033756966 -0.07727861927750561
Ni 1.7167316376339152 3.371672354200598 11.029946201011636 -0.1826570821150209 1.0040270973360514 1.0775580766456667
Ni 5.104542019226771 4.881632017743892 8.829783628248473 -0.005877027606067299 -1.4711767442473564 0.13105864121243882
Ni 6.945508482762468 4.700205142164695 7.09270315075706 0.6794482060418428 1.1541273285609734 -1.0584064434178806
Ni 7.15237374024842 1.8248564211620388 2.8597778566540106 0.45801066072451446 -1.2844843157206975 0.9239665444380346
Ni 0.1792561709698458 4.69221075518483 8.104852243780837 0.8840378265638968 -0.04868512391052906 -1.462351689756559
Ni 8.806820054819848 6.6791004340367595 13.64687846176659 -0.7563853828195296 0.20433945218446095 -0.38497204767028537
Ni 2.7005169814733576 2.330601677288409 13.581849674047419 0.2106319700613921 1.3563114249653285 -1.7108884052835247
Ni 2.48140361418045 9.266931073950309 5.0527445483013445 1.633040286655794 -0.14336239828045633 0.760721034080406
Ni 1.3918535567147572 8.81779018211077 3.1570440525552033 -0.500496597802867 -0.1626155900831135 -0.7077370256842069
Ni 2.672737186343796 1.6787652957342118 9.907494157178759 -0.898404379698214 -1.4870185963756197 -1.740909377125647
Ni 6.772691664572318 4.179749094594632 11.151211816440036 -0.8855169822125846 -0.0628038227000983 0.12255523172711798
Ni 4.745242365430486 0.9914718956147143 10.752503659452229 0.4419461510624841 0.6554395018320712 -1.2720381195375448
Ni 4.480261552653341 1.390015873826737 4.319525866992506 0.8236061036404009 -0.559192826092495 -0.019112295349418697
Ni 7.180396072205842 5.207928006272081 4.618539260888246 -0.6214518320327167 0.8650635994542392 0.28691248709168654
Ni 8.870066196854244 2.557634804844916 7.016287258969839 -2.6634767272233097 0.4448471267593629 0.6733876016700596
P 6.553848819125871 3.168230597323293 8.402200529069919 0.2703173017371667 -1.24139699761292 0.9790177197759073
P 8.993704009025906 4.148900275758681 5.548265944299441 1.0233317112019344 1.221430324683006 -0.019679737817114493
P 2.5596590545235975 1.780761360189091 3.066061025753098 -0.24694803088360695 -0.15166320483666784 0.5092764008780262
P 8.830551350592046 0.5823402520326267 1.3502454310613325 0.8063519445456435 0.385455157954291 0.9446490124880507
P 8.120627398765256 3.53506754946232 1.7519218656885693 -0.15617446244346006 0.13770854242878863 0.29470087278785373
P 6.388634597655194 6.8813388351142954 0.5794596607848065 -0.4045993349829096 -1.2719802697164158 1.4681639255629617
P 6.454688569889052 0.41275383782278896 4.870600323412051 -0.653105711492572 -1.0777881903786017 -3.3145983184063175
P 3.454535994273096 7.914890870362808 2.42042519148655 -0.16610200596981717 1.5823090788495136 -0.7615581852697207
Ni 1.9924866825717864 8.28279125320861 10.250675373095806 -1.3247650176176151 -0.0005273332583797369 -0.014066248285079
Ni 7.321226014137003 5.647460708392531 2.199479738309342 0.47191030152474217 0.23892438924818205 -0.1104427647343001
Ni 7.630348529584761 8.277418129637546 1.7642501992155097 0.16480308465273555 -1.4621603996813592 -0.2590504705740958
Ni 1.8240728406412587 3.020059252179585 7.023646386027498 -0.2745297971566175 -0.011992910695818053 1.9500007421727965
Ni 8.405244366259568 6.646162067145395 7.09165184689168 0.17902822711318198 0.15879775899892007 -0.2816746357315149
Ni 0.0782946193691871 2.320228563727605 3.9270984810123344 1.3175157922543697 0.6014689611528867 -0.0909309199536176
Ni 0.5421463026524198 4.862201086496452 3.628371467140259 -0.6844240619898793 -0.03348707601385201 -2.3114945042154833
Ni 0.6235453934182215 6.74347530515466 8.925300228063662 1.0599861292001744 1.1346759047045814 -0.30380103531690905
Ni 8.058668567586428 8.792025308320357 5.916636475457709 0.10130583543003843 -0.6526323714005793 2.0092890955204687
Ni 0.5294047236841629 0.8509469903862859 11.205086708579481 -0.5272075314351501 1.3343747727932376 -0.2525116410143135
Ni 5.100390908134543 3.1854040704037234 6.429782836169638 1.8112071942099452 -1.1139715822776943 0.12684434602077507
Ni 3.7281175360997554 6.905368637751553 8.60354061105042 0.18492659487548796 -0.06389088511668997 1.009598677886558
Ni 1.6798846964781833 3.3799092780083226 1.7403845753540352 1.8894620613577913 -1.7536299100161088 2.077791768377557
Ni 2.710237111266845 2.8720371604684067 4.959959286301445 -0.4942688717256004 -0.44513971829911725 -0.5838414778791107
Ni 2.6092671641606064 0.3907995907316459 12.222969931914252 -0.4571118030593289 0.058778503590789094 0.3757487292998045
Ni 3.540851119972839 4.630139983931606 6.84883423601122 -0.5575984850221816 2.0463790583942307 0.3523792013359286
Ni 5.061538373979195 3.178202592284173 13.137090303286573 -0.20617033474561267 -0.5973829640089713 0.6046237047317845
Ni 8.472147217390939 0.1089382147354097 3.767659434546599 0.38263594333794104 -0.12037056537097332 -0.7322733202626744
Ni 3.496784044018491 4.487164523907833 3.513741099621754 -0.17411433475133242 -0.5655599059611034 -0.1869299984587619
Ni 4.657192168577586 9.129179484065071 6.94818664904242 -1.1626209678542814 -0.04587413682429519 0.18639598033216287
Ni 1.6274314432835808 5.17665941215714 5.5446754664131515 -0.04194009187721164 -0.3770767040826087 1.3681978919902695
Ni 2.5787168521897144 6.632915825008397 3.8801871943343444 -0.910764958146096 0.25586770197073994 0.5368604811438819
Ni 2.5132412370069086 5.770286955024815 1.4819475927593582 -0.37723379848576327 -0.05792798266503572 0.48617529608418847
Ni 8.225356666703332 8.023435429169922 10.916680569566823 -0.8422658848334332 -2.0239310138033595 0.741112515820859
P 8.29017929811882 2.6765991189104983 11.8347337688863 -0.5050785607465947 0.18255732331236302 -2.427048364924104
P 2.3987731825962797 5.053497345301666 8.727987190259602 -0.8188212806572479 0.06242947007981507 -0.6018479417588602
P 1.029755401058543 8.062735723622858 12.207227426118196 -0.4071262151698214 0.936662394738148 -0.9827121379083592
P 5.2644017738054485 6.1709484663108505 5.816574175788041 0.3616842807869384 -0.2657718484583294 0.4326834948136355
P 0.6708596643640411 1.7955934200467145 8.638246698283304 0.9204914414052405 -0.2756788231593962 1.5517705439410243
P 3.7476883924401925 8.969235774430595 9.343503681841685 1.1261850936247508 0.8802079112948453 -0.6214752290714844
P 2.972895167500248 4.48176341531817 13.300912736498914 -0.5291430578949662 -0.8444757480005586 1.05357096970245
P 7.579070647171329 6.097748985994642 11.881358675540623 0.9052232023922604 0.04805571785664627 -0.6239779408886802
