# total energy = -340867.267170876 ev
CRYSTAL
PRIMVEC
9.25416659784131 0.00000000000000 0.00000000000000
0.00000000000000 9.25416659784131 0.00000000000000
0.00000000000000 0.00000000000000 13.54440824143391
PRIMCOORD
 96 1
Ni 2.865941285677142 5.025289953764573 7.298850766710255 -0.062433326734556996 -0.3238751803589648 0.19408589277725283
Ni 5.114102188238319 -0.16635289433156908 0.03462631423678416 -0.6589089484379104 1.3651475351997198 0.8754351724965503
Ni 7.113927536761467 3.2409478687322246 9.110673098722888 0.14321507406931464 -0.21378645652997375 -0.36276028745993655
Ni 2.6869564542760025 9.120045718403519 13.804325194621267 0.12309902004572994 -0.3254947182402587 -0.003985209899993136
Ni 8.424807962926895 4.583625610480835 3.5555293725962764 0.06452337649436629 0.7255596556879246 0.711951835096503
Ni 4.001260921991425 9.00755207223671 7.749649897599395 0.01409041665479509 -2.8425232091689367 1.1851916540659457
Ni 0.5438941935502825 2.88182143513603 2.4932547221263377 1.1082771029960783 -0.6559282685430317 0.9583637909709819
Ni 6.802534093205448 8.235865648531721 1.4327818578450036 0.7097555987761325 -1.2269075457474934 -0.0021376151682930924
Ni 2.6443780348935175 0.8538884071539782 6.538793128442352 -1.424153838530599 1.513678107944677 -1.9119651275563134
Ni 6.069048868198764 3.6257268514543157 13.813941198876938 -1.4562165233930984 0.27655916888182047 -1.3977020720969735
Ni 1.1055582373283952 1.448665708970432 9.761874903616691 -0.06565234789248693 1.519262801121306 3.379517644787522
Ni 7.665809001289584 8.402135255366128 4.175158738149236 -0.19967418549830773 -1.0445512827023429 -1.3167660585725387
Ni 2.658944092730516 6.392111815523813 9.204955470926908 0.994198541281404 0.9981644679076875 0.5379588564143832
Ni 2.7486169646749365 3.98984128071388 1.6548291015288024 -0.335322502963958 -0.5265858386907512 -0.6817488291505615
Ni 5.342754130447066 8.697768853625826 5.796153682080928 0.8490764799973636 -1.5260471710329913 -0.7761044585150118
Ni 2.9351717041514664 1.602710562054728 11.780898945652314 -1.8564251855074805 1.7360656758801003 -0.7123349294675346
Ni 1.0161074653764066 5.543541777771946 2.45187656811962 0.892547920917437 -1.2466973267799109 0.3881609869212283
Ni 1.4247436889522354 7.828053045761161 2.6495298293013048 -0.10490203742172902 -0.021613207394401486 -2.396511115567195
Ni 2.6411390766705507 2.5745646039390584 4.067101539331257 0.6497511931980422 1.372957261052126 0.9612544822552155
Ni 8.685275729051524 4.304159040836918 5.836244581548175 0.2869991332682219 1.1150743284235698 -1.2595111907151275
Ni 0.9313393015981927 6.12995979112324 6.822575841272531 -1.8043274363709763 -0.8462477522993167 1.2770826239399875
Ni 3.6000743023284194 8.781778175763229 11.103976110801616 -0.8469589194337285 -1.0963986063909377 0.27486969699453956
Ni 3.193076066196777 1.656708622714758 8.813237714274587 0.44970702595482553 1.1922195074470048 0.5123709806429498
Ni 8.655208942576044 6.310110647484647 10.891153420136826 0.5760641479265369 -0.5879287605746069 -1.4081312378500974
P 5.135359008347332 3.0033378934953885 8.515681100247084 -1.951691499611658 0.9405234203554512 -0.3719285842227659
P 6.773707365021045 3.6259119347813424 11.092748030767542 0.07747376600744722 1.0045415750786246 2.9904518866638368
P 2.258877227196022 8.587431428218878 9.284556108214538 1.570346764281315 1.1488725079199373 -1.8643552389878344
P 9.11825041013136 1.357169766254799 11.739222807489085 1.5103598422047213 0.618305058873619 -0.6698055407457562
P 4.264625242184022 6.878409003120031 7.359584009640787 -1.3028785019571691 1.170375929209352 -0.2743981566747597
P 4.146995533692223 0.9841435747989011 4.977096106240099 -0.1155839426156074 1.364434311182779 -0.9531621921653843
P 7.346484737170474 6.966064466799861 13.126332578140353 -0.8321717338222249 1.4249827621897975 -0.25722730132242794
P 8.501562018644854 6.793390976850332 2.7426073090463805 0.29066655481748005 1.2592003443429283 1.224221000054266
Ni 7.5214440062087835 1.6953355130652237 -0.3106114664993297 0.25490688071936746 0.045556862694192506 0.8292303918057137
Ni 1.4718844123459276 2.3000582674594554 0.03360650510486722 -0.8413222899732413 0.037152697790897304 0.4446550653532148
Ni 6.106167329433962 4.378247896645694 3.6280052272100143 -0.7085862610583796 0.2866561481065063 0.40448697777476145
Ni 6.6958798260063315 3.5341013504097636 6.853673541879552 0.3308284717483464 -0.8744152158724682 -1.4632508045320607
Ni 9.537991633328788 6.477759125105403 13.904824515780112 -1.0679799460389283 0.9694141352478726 0.05816221016302887
Ni 8.149977730624995 8.513583180735237 11.345527435487485 -0.3412254987119543 0.00930893610575171 0.0779555907398722
Ni 0.9080095482264813 0.07037515885198506 4.189678525154478 -0.5928133423604178 0.806666904682901 0.9889087536373742
Ni 0.5122680800446006 6.6608713146992375 4.6811913609063085 -0.3498188968079201 -0.04024444934234359 -1.3893017638484202
Ni 3.6361840594313226 5.1036542344276645 3.542242240549032 -1.1071810417184222 -1.3249681347673568 -0.052894276895870194
Ni 4.806197565396755 2.6816075461249316 2.240177333249883 0.9494916852923324 0.5564067787069256 2.308190636653231
Ni 1.6433641148361353 4.220168227032216 9.55655456561293 1.5027462915235217 -2.019583278357625 -0.2090419998664529
Ni 8.16374793015578 0.6321900455416246 2.4177037080340518 0.09525191592647467 1.1445404562034869 -0.881920780220894
Ni 4.122388705364028 3.732991893632621 5.943462427478089 0.8553348022022496 -1.1660053109454822 -1.2283296229060006
Ni 2.5014011647654164 7.564494388075186 6.030417350765123 1.0970375255265172 -0.340561125655078 1.1820536226575964
Ni 7.138145690102906 1.3372085294349727 10.859080330396374 -0.525239866185818 1.4953016623200182 0.13983381630190755
Ni 5.255033887602776 1.4818141328409082 7.06672666128649 0.6976261625024501 0.6953273391659445 -0.9055067950709501
Ni 5.525699745046575 0.11544294898297869 3.233781442309752 -0.8199517947172652 0.10041726217749802 -0.04565636438653427
Ni 6.755087982322163 8.686043824858686 7.829710466954686 -0.29314921203001776 0.7136068542014227 1.6855100744197358
Ni 5.22654030940702 6.760658990465665 3.1839792206734163 1.6338692103149925 1.1583907318230178 -2.303429210708846
Ni 7.993415744293138 0.6320789955454087 5.964469385095615 -0.26814497667619624 0.3700169690223498 1.0436079449524673
Ni 4.761564721084274 7.655138947486497 9.469707916072204 0.7352740547622111 -2.5626046368965802 -0.4008594083245032
Ni 3.8471975605744264 4.495997909300059 12.99980036161857 -0.15212060408906058 0.9301827005510754 2.8972625096933458
Ni 7.76543935622804 3.5254394507049156 1.605201783636507 0.6209592086670145 -1.4244220045903209 -0.03747331435510965
Ni 0.7709692258127607 1.9849168865311484 5.503729428711875 -0.5745070878520622 1.8703852472319982 0.5522397918134296
P 7.9543816706232136 1.153346752366681 8.714540179304347 -1.7583234588370364 -0.02830193226848674 0.2999443805749802
P 0.414731942951452 4.245959588653383 0.6893484040106354 0.3948782510404038 -0.3733691733240344 -0.5027856509473599
P 0.5309355844085103 8.392112993207634 6.235696045020306 -0.04033880882836279 0.7013349788126051 -0.11216951761741971
P 8.32289182889966 1.859689507464905 4.178612393031554 -0.45727918187512856 0.8021139952048959 0.003410568343445739
P 1.8193413421730913 2.8644698732272795 7.396275853807189 1.582658234658816 0.5663764883251278 0.03820453609417937
P 1.6428643898531634 4.62043868422644 4.485406515910959 -0.4961074675962359 -0.17416858502803553 0.034820964333927125
P 6.6827111472883844 5.501185458381892 5.5285833432816505 0.7319976980037844 -0.3693847347549896 0.3256317580387553
P 0.5955157842912904 5.8750537789757615 8.927647898292758 -1.8127688822701105 0.10758035558484053 0.3033919728039484
Ni 8.900407334220972 3.583962798710748 10.690100178237662 -0.9360764403276912 -1.2487215562987914 -0.14653179714737344
Ni 5.357875438265143 0.6008822753584286 9.598921990002603 -0.12820985890973405 1.233677003260843 -0.1980163381799106
Ni 9.04037660028489 3.3430953569182424 7.775587475048912 0.08062362449033857 0.03182228671691939 1.6546727773239052
Ni 3.1370698514385076 8.367830060701735 4.112786582357884 1.8907699815359373 0.7784449337227303 -0.586897491096615
Ni 9.567604965653057 9.108033810479489 -0.3440791591089269 -0.15977426397957645 0.04364447616282806 2.171584840370318
Ni 5.471914530212626 5.254201012631156 7.575400423120232 -0.8183708233833906 -0.4704419445093317 -0.3578014007927644
Ni 0.5071625564685699 1.0551045223809257 7.801714762908631 0.4458334019320322 -0.550988950125464 -3.8717046942834292
Ni 4.863721463436644 6.840513191911321 0.11906965677606625 0.939845163341504 -0.9624765275877747 1.6376813849722311
Ni 2.907649813422601 1.1493952233346614 2.3993101269941417 2.0980176085061286 -1.1788988790786987 -0.17599098294875498
Ni 1.186273076244725 8.763482688886644 11.008001151571937 -0.22384769742071772 -0.47560831920161956 1.3219350043679878
Ni 2.57048351657812 6.500024649346711 0.8201134762215168 1.3319435376439255 0.10273896833213919 0.28452316092390356
Ni 5.917826535851624 8.020021472553221 11.642326133290814 -0.3118920398551596 -0.5265935520002349 -0.21994219171872445
Ni 4.641205033518832 6.290167918997524 5.169859465921738 -0.011936089315953637 -0.2364047081501219 3.3924104415897895
Ni 3.9499280612405787 2.2794492389950363 0.28658024731818715 -0.09978734190298298 -1.5677082982172033 -1.6565689659053535
Ni 7.844155295212482 7.434093930018548 6.267729341845446 -0.3143818961565489 -1.7859692455787628 -0.12730637325885816
Ni 1.1647201228124697 4.525898120781218 11.93451995791772 1.8035239666330745 0.8380256214998406 1.9694804481639632
Ni 5.722091663354573 5.380400079164289 11.931973211337834 2.578531592539482 -0.30696272087434234 1.9229252261122431
Ni 7.1334353194300775 5.762199220321251 1.5478009660090912 -0.9535452865364159 0.09438982503649551 -0.5916422048704519
Ni 8.067430566771103 5.06108506921153 12.785853289742095 -0.7254778946073958 -2.852756456861171 -0.34317696601137027
Ni 4.936394431793665 5.165694165647003 9.96322612967237 -0.9624675287267103 -1.5947982124554598 -2.1409599163956097
Ni 3.7350740810616716 6.464053704739078 11.68359601355122 -2.1617871375536057 0.603265133821361 -1.0150090502688518
Ni 6.1209925039287985 2.052139150907234 4.621799046680086 0.1736420231006042 0.5531198804255378 0.5101423484227472
Ni 7.572952696120304 5.805490210512788 8.308857885627864 1.4419150191687617 0.072478626785701 0.34869095385106397
Ni 9.515041300777481 8.12418636900383 8.43834218121572 -0.5728368992384908 -1.5260823951463007 0.7499553109234697
P 3.892006234047583 8.053789925569236 2.1252664988321057 -0.5623851077775476 0.4498983160300252 -1.962522528788891
P 4.90346810791562 1.017671419489782 11.84256685938433 2.092016653727687 0.7342273586652517 -0.5208162831968256
P 4.942696519078923 5.007216566880419 1.6324802897903323 -0.7700428257019641 -0.4018731943009982 0.3549898994858983
P 6.177646510331661 1.2249739999260012 1.3788069326008514 0.22168077167638595 0.6388504871251385 0.0913302122745653
P 6.9483612465697595 7.42772706356883 9.738361917751224 0.15698667393211027 -0.016123645034739974 -0.5076470928047193
P 1.7220522913215233 7.36019941170315 12.550627187757364 0.7565568754003874 -0.008125457320611812 0.06567651626220301
P 3.2692471094346023 3.8094960868590944 11.255457559806592 -1.4956055667136823 -0.3140391681051495 -2.870920272254391
P 0.9992278659515745 0.8161795301055649 1.9602008590400073 -1.3723149994824366 -1.0800571889184367 -2.1178061039869656
