# total energy = -381176.1023032636 ev
CRYSTAL
PRIMVEC
9.13395513032055 0.00000000000000 0.00000000000000

0.00000000000000 9.13395513032055 0.00000000000000

0.00000000000000 0.00000000000000 13.36846660755301

PRIMCOORD
 96 1
Ni 1.5531742919078857 4.3536541152080295 12.806884024950778 0.8943366373867436 -0.11352166076993996 -1.606469221035485
Ni 4.053174388308558 0.5106100217352649 10.495971417208102 1.409248382173676 -1.029019248505015 2.2901507484323846
Ni 1.420384850023686 3.7144416566896594 8.176996267138337 0.40626078184573255 0.00969691557278975 -0.07870481020107091
Ni 3.47168852717003 7.805795978075391 6.566416893076524 -0.09660508752025943 0.9563305625910369 1.0238292196636432
Ni 6.833596045810262 7.008967987217377 2.567079863988894 1.978905855242921 0.6410739771390185 1.5636133022122232
Ni 3.6396893666648773 2.6321775632810036 7.432025393996197 0.2980862443203189 0.15620608701234387 -0.4863223631850141
Ni 8.078334935768385 0.9146468800356375 6.436489119382055 0.3061767346379372 -0.6097204025284015 1.2361187799331164
Ni 3.3374650543066164 3.9091136456068387 9.981391778507444 -1.2513705638858643 0.23575164794715528 -0.21662855396445918
Ni 3.0710549806075895 6.412502439416992 9.951888189552282 -0.6732683024833759 -0.32863583497240173 0.6619230526738858
Ni 5.753871191969897 2.279460746125944 4.522057762130796 -0.40104015687674155 -0.9382022284214422 -0.2973352250869073
Ni 5.897128146606834 8.97938135638969 5.999941774047811 0.5754108306132542 -1.3119346986221663 0.8273231474806719
Ni -0.01594879931723765 0.10318720621199556 9.84858954908585 0.5190676759368351 0.5125946666179817 0.13911493585801202
Ni 2.9093565702570605 7.944842179327501 4.154278139320816 -1.847884495026321 0.057559543582023455 0.5171748297894965
Ni 2.761861460369452 1.6796521706924854 9.267034269887182 -1.8689986512971168 0.7239221200845017 -0.16024426163745953
Ni 2.7156345126891703 0.056711814948053864 2.0461110235687427 -0.4421143012092321 -0.30913813125910633 0.44643529718208913
Ni 3.2856572599492644 5.169636010291602 7.744299797350824 0.0675073988233547 0.060880123314824175 0.6401463231184266
Ni 7.282310732975154 0.14496957125224064 3.9486974676107978 -0.07412490413987234 1.1642358777498854 -2.1009576649710593
Ni 6.358995729377258 6.69949131436551 13.845319747336106 1.4474809432923137 0.9187374348286113 -2.318539069767091
Ni 4.800295394523993 0.11009612998701336 4.055137275298578 -0.24543570800413855 -0.6250364640601815 -1.9657091540469884
Ni 1.9033975392710625 5.9714602746886625 1.2622614697703836 1.51814282858425 0.12506617107442977 0.4947324416255802
Ni 7.4183883987607375 7.210910604538726 9.395398310437436 0.34925556810528235 -0.011538596767218837 -0.5183763062967653
Ni 1.988672145780272 8.774461069646533 11.329000013033761 -0.33187568206593815 0.6647070431769261 -0.8063138922188564
Ni 0.16644075993274607 0.7801320339987398 2.129704068910606 0.062210154980157376 0.2977892819051904 1.2603449994703326
Ni 2.4760691335628264 8.455950915021143 8.86233063285125 -0.16778350743729814 0.08359427708288829 -0.20430371385051913
P 4.739865146380791 2.718895334724709 11.79851454316596 -0.7999558112113127 -0.007087502974400697 -0.7780155594947956
Ni 4.580925190525312 0.5099889127761147 8.12047443846014 -0.2320348612172004 0.7443595620032472 -1.3188239695428319
P 6.652679793547205 8.856346978746261 7.957285366607653 1.1486539641512281 -0.3669606986945293 1.5201680865443947
Ni 5.16472194235009 2.4698854458371695 9.539016056307997 0.343426363018015 0.18810550682410185 0.5126342616066655
P 5.800089005694897 7.0883603265252235 4.6815037391088765 0.3893048707176844 0.21367384221150942 0.6890489623564005
P 5.832587618586904 6.9723864963144875 11.000711045883868 0.8807789533069669 3.3368262765665824 3.2216048594967157
P 8.111993560981157 2.0026653652717146 4.702785854915052 1.0243922912559649 0.7093699333019395 -1.0730625027681584
Ni 5.291683920764616 5.454944237468301 9.93354629395126 -0.6110560906206897 -3.14523281119388 -1.6474574905223887
Ni 7.7484256049515325 1.3322056457349212 11.473393231707732 1.0242202844544748 1.319816158252772 0.6405343025854645
Ni 4.055110786828262 1.919948266241359 2.5558368784327468 0.16483496633193545 -0.28569892639955957 -1.7092786375942433
Ni 7.751923909824393 8.739258805991167 0.9300558625957314 -0.9998153732475489 -0.7505903734043073 0.18862872631742356
Ni 3.9726311706352275 4.848120784378558 12.066712131913599 -0.27128506496707466 0.16222581084386256 -0.9312687345264025
Ni 0.7214390641501023 7.078705735792551 9.929642441463894 1.083256669692341 0.34004279125776277 1.2159600455970543
Ni 3.5506515705796398 3.211133318806522 0.43362721983071056 0.37885102237421203 1.3808559470739121 0.7315073886309273
Ni 1.016673160531339 2.601998975030529 3.442300026051416 -0.5709360826713522 1.195750917639031 -0.4820067665287957
Ni 7.869322637059063 2.817587721542619 2.696553680105865 -0.4166999749011856 -0.5437762344271087 0.1198745995711613
Ni 1.8360894228008007 6.787076811560969 12.29834741106444 -0.9813610231971034 -2.007999173064451 0.12312678795987182
Ni 5.6608327234713105 3.4263475731520656 2.0529286077909448 0.12323631695454258 2.793752467523137 0.8426428085568778
Ni 2.4832027526377725 3.9396393241580143 5.932497561643853 -0.5276479614066784 0.7634934546192206 -1.047492624718854
Ni 8.91236552648844 5.358407464096854 9.043433217802054 -1.2755844421279063 -1.1390629780286836 -1.483104348922878
Ni 7.502968824668543 6.232207296113084 7.142424207837135 0.7459593023901991 -0.49286890605428024 0.1477723544226939
Ni 6.446727369857225 -0.015866593719703066 10.383768997133146 -0.46752502797285295 -0.16176789737083752 -2.0292961347700147
Ni 1.0211853344404596 8.346882355003311 0.6507504708301127 0.31792050543742667 -0.9718456275075004 -0.908041645677662
Ni 4.906258409746073 7.728595788035134 9.166316885183337 -0.4046242746835741 -1.0938267318987032 -0.2475141877997221
Ni 1.5873626865269914 1.9913118588566605 0.6247926833152753 -0.2914240018087949 -0.1057805833719404 0.46288341543578343
Ni 0.7155942461653934 2.51531773940795 5.956828591723034 -0.8980691078459825 0.7919617372622425 -0.04517222566126414
Ni 5.984814117310391 -0.2178137780186927 12.513125975743051 0.21496247911594593 -0.20868950162304062 1.0092749759985522
Ni 2.7912271265998623 1.6384580323723767 4.3347787966185605 0.099197530837784 -0.9888917843565098 1.8858722871240037
Ni 7.234467075210025 3.63378883155295 10.095478533556996 -0.3168961779379704 0.9552658687719484 -0.11832268170300912
Ni 4.075287694045361 3.8471032231999165 4.0465276090501225 -0.3572262450155848 0.7164337821272564 -0.7683258430108574
Ni 2.370718093344615 2.0100730030051093 11.644189061518754 0.10721808714941536 0.8441859846742815 0.4233853573411611
Ni 8.923782970590466 6.156103180706622 0.4074812728370717 -1.4905947437626523 0.8421375867856852 -0.4246292570505913
P 2.642371057375292 3.8504827866541165 2.462217490378249 -0.5034880763310232 -0.7251382518797898 -1.2649107644641442
Ni 3.7370481960116706 5.941610508828326 5.280424494088962 0.9539384082097763 0.29614249033038675 -0.2098387847361354
P 4.161731446830618 1.0614112735007166 5.935037714607671 -1.05004778704054 0.5691123991990521 0.673922134017291
Ni 8.024672948488865 7.737008160849507 5.3242592588809865 0.4707057396936797 -1.9636414728846825 0.3865404205986698
P 3.541261864550134 7.453344045623498 0.9496463698837512 -0.9258917864852054 -0.7832868351960639 -0.03787517777921864
P 6.246492802173539 1.268350164361112 2.1797015133311404 0.7288457826383641 0.49166203023037264 0.6760219539691131
P 7.488098745470065 4.874828469622016 1.6794667514002686 -1.093232292847814 0.7582026385339266 -0.23432262881011257
Ni 4.694186236017407 5.434027479873389 0.7321842491434009 -2.0459990493469924 -0.41501101723453687 1.6077092640901731
Ni 8.152173830265006 1.8803617040508154 0.31069788267302034 1.3688995460429845 0.7696718155157906 0.8138515953567984
Ni 7.152946524321562 3.7494886431052374 5.47982787184202 2.13005226834417 0.9493836989595585 1.4772635738713848
Ni -0.014754077966401683 8.231831054276018 7.588877327674298 -0.8893795504917845 0.606954152637174 0.5622141294173222
Ni 1.8505302061010427 0.6509861268763786 6.565320818442729 1.2095117188685491 -0.9795193420026743 0.8905496595404857
Ni 0.7070704390965851 7.656848569298005 2.8946737371418556 -0.5158172873203374 -1.6070842289116647 -0.4979753740429101
Ni 2.06435609924378 5.540976962265885 3.6589894141749415 -0.7230785411372838 0.1672471753178539 0.4242839578960305
Ni 0.7295381422983153 0.10224458202693232 4.471885859164382 -0.42235331653222097 1.4025524582107394 0.8165579385443678
Ni 6.427591733542229 5.028854357535984 3.8281804080429835 -3.273269634860859 0.3572861517192428 -0.2611371778997954
Ni 8.445985769808894 3.7636006040153416 12.074131643788858 1.90209183430666 -0.6752750485007596 0.8058729480266958
Ni 3.9531119081984047 7.651011971873049 12.202509385272037 1.1105350457923198 -0.3478180643278075 -0.5261793472809518
Ni 7.527721843481735 1.5863305495801683 8.997459280683074 0.5043959328572732 -0.48521396061218375 -0.41461789556117623
Ni 5.138160400391137 8.768852821103618 1.4403589834335337 0.8024862909426502 -0.5392904307416132 0.4482769783765183
Ni 1.4457224419749015 6.595245482736375 7.554146376111463 0.8143940981238297 -0.8996107413014893 -0.7383521794669026
Ni 0.34287315354805686 4.116107340198924 1.3381436300635026 0.17267477409132842 -1.550778355231084 1.0473167612626222
Ni 0.4423318792140949 2.669380163143044 10.24932265576086 0.0007620749770051392 -0.2497068245756667 -0.5184084450862814
Ni 0.13798666243944172 5.116092764430742 5.984073353537052 0.7462333819871921 0.009111732493281082 -0.08948775974918781
Ni 6.19909670821721 2.240970258569195 7.202823400532379 -1.3201542583184813 0.3488526762399089 -0.7146455798785821
Ni 8.563229219803777 5.026954494837407 3.6440033337443865 2.537628683677533 0.48392995169343755 -0.17070530906978346
Ni 8.328075541078455 7.936091850167708 11.941315713434344 0.8688508344108132 1.8981768155229697 0.3636038664071544
Ni 7.6005742708079405 5.8962421529445175 11.67107303209915 -0.012037390780508302 -0.35451270273916363 -1.51690355686051
Ni 6.477572736843257 4.356074613357658 12.829811166103173 -1.5613401899073303 0.7163419937443986 0.6687231063148548
Ni 8.246189631978726 3.5670561542654307 7.674623246276039 -0.9113249444146241 -0.23936996142603292 -0.10947808682818566
Ni 4.54670026008508 6.745060617265515 3.0080252087912385 -1.094743844396334 -0.7067502362909054 -1.0031338960978207
Ni 3.9100635769561274 0.9933541726973618 13.293951276947665 -0.5269627624141957 -0.86328568161821 -0.8842674260761997
P 0.8306418933105731 4.791134037376528 10.717780387266975 1.1022383530011661 0.23233259496327732 1.2138088035820063
Ni 5.24594107271426 6.205938040723144 7.312577920591861 0.46747669123342067 0.5858605651916685 -0.06951517328200285
P 0.5845302084338919 0.6933220096066899 12.56807037034411 -0.9183258012124894 0.8874604790922006 -0.8802619044612324
Ni 4.885524331256794 4.17132209987632 6.150096691713427 1.2750887334384107 -0.5566150380629897 0.747208601416268
P 1.0350050087815514 7.066941201389824 5.154345769150169 0.2578785617531817 -0.33706853912078727 0.29120288693692425
P 0.8571851673589626 1.5340112537270458 8.302098572257526 -1.3336553781287097 -0.1444728577358157 -0.5378418712205447
P 6.025149663834028 4.259072008266848 8.226245640621308 0.8234870615640334 -0.5905155474651765 -0.8715684904522925
Ni 5.949867604402911 2.3525963260658798 0.18680308644206278 -0.6921407139078467 -2.8758927857683183 -1.4276106867309477
