# total energy = -340887.331562866 ev
CRYSTAL
PRIMVEC
9.10006189166404 0.00000000000000 0.00000000000000

0.00000000000000 9.10006189166404 0.00000000000000

0.00000000000000 0.00000000000000 13.31886042680738

PRIMCOORD
 96 1
Ni 6.403031132210337 1.84577467767256 10.982386177334662 0.25122197566861254 0.864133631440802 1.5350694291362594
Ni 5.200121235214796 0.47162982382970814 5.7316121769564505 -1.3974264498380837 -1.0669108813444659 0.028062048343538766
Ni 3.1047318565914037 1.901230455565173 4.857735042090673 -0.12433469222504395 -1.1956115638476892 0.02409149373156496
Ni 3.640579908023734 4.611110621516525 4.691395918605067 0.4839654329170633 -1.0175701261278087 0.2966034891272053
Ni 3.697700997264287 3.0278818329118637 2.7859730644716096 0.4209039856802041 0.17263723598517364 -1.0565246530141352
Ni 5.515693185618477 4.749904767302237 2.6419955233646575 -1.0387331333586691 0.9082560756813133 0.014614150368749025
Ni 5.299803314478939 3.0292741423994856 0.3026234721687945 -0.30524342419039047 -0.9937146596664498 -0.46455977469694193
Ni 5.955080579738419 7.887387747069799 12.085547564613384 -0.7081797696485803 1.2942799616548808 0.620114601278532
Ni 2.2267123734984002 6.715017658181841 0.4192635169896948 -0.5396773817673867 0.46555427739972727 -0.22502320578605758
Ni 0.9155026385146758 0.08575898438792001 0.15480479488716709 -0.7646453088354767 0.29114966510148566 0.09555582032013867
Ni 8.439151806958675 0.21630756398582554 6.625174565963563 0.2541507192796333 0.5758877702496727 0.5637879016623453
Ni -0.21054267470210875 3.045363052034231 1.0331018298714938 0.08156516246800145 -1.750616834221398 1.387461882426204
Ni 7.285536945874568 0.9122721165009119 4.451056910861642 0.15253943679403406 0.16792928898654302 0.30682722373774257
Ni 0.6670436454391899 7.760323581215754 2.437871122398627 0.6899467915803214 -1.9182969833116126 0.14315568158628894
Ni 7.870743733652407 4.032091875905895 3.2303964329082184 -0.09577102165473829 0.5798629528473369 0.990131570300882
Ni 7.619190719493317 3.8842340683576215 12.497126989241327 0.12534025067142288 -0.35026009811039677 -0.3760266655515395
Ni 8.48062078954099 7.32815253627022 9.248696963446696 1.5629972658947793 0.27617453184889207 -0.4580615685671079
Ni 7.082523662480032 0.7508715966684599 0.0944568236576541 -0.42206458164720856 0.4428966879012114 -1.0056798024481262
Ni 2.2159470001398573 6.533080118403861 9.021836967553376 -0.3084413623023978 -1.4387903574968512 1.4636518966252212
Ni 0.37124157975354316 5.312616201789867 1.5248764609740733 -0.878759351773777 0.4372271483202599 -1.1432145383032117
Ni 6.467068268578949 2.1131617997300998 6.587428418749784 1.336457366353879 1.4740792626061323 0.590606564517086
Ni 3.6564777163562567 4.624942715772641 -0.1364863700598238 -1.359311388133917 -1.0617221380546746 1.6547475964258986
Ni 6.352107185199005 5.725567915769008 4.738970132790296 0.25320043955122196 0.5903558819588607 -0.5851141739439472
Ni 5.589949691624995 2.8288998769880243 8.870188074171486 0.13298953968656452 1.0974918394551163 0.6859638956731734
P 0.378470669014766 5.703245463656999 12.547271970944552 -0.04197428754925674 1.084340903895455 -0.5275515450381302
P 4.211372197576779 6.5785713283948635 12.662014652836243 -1.0488668793585614 1.966760735239955 1.1226511123295633
P 2.3344753078279576 8.906276190086933 1.7681183884988807 1.3835694893503334 -0.13419872950331727 -0.16525225637501217
P 6.814818038252121 8.055702494017908 5.6077594229859455 -0.25047686997247187 0.43623213139684225 -0.5641360290303833
P 4.662571472186483 1.1062035380088664 12.27372956694304 1.0783931709524524 0.5222388745759652 0.3481757047775423
P 4.21153599869297 6.092218514238202 8.102022719658077 -0.07847855312287774 1.258870214697019 -0.0313484324042944
P 4.79554157828541 1.209170739658836 3.616137141463255 0.9641462019807138 0.24278155821074318 -0.5991655098306907
P 0.11311832082279709 5.943605401543049 3.6983543817166487 0.6554580137748325 -0.27468277779471406 -0.8765695432113096
Ni 1.0728063104299543 0.3641408013666699 4.15180865169258 -0.0860720491994195 -0.34799701310783293 1.0029868289969952
Ni 2.212789278622178 6.7850153351673965 4.725917913848489 -1.5372083298561334 -1.317866490725569 0.49895753545052135
Ni 6.272081239877765 5.881988881669258 9.291050472056444 -0.376993400340183 -0.41806985866551866 -0.3230231167713146
Ni 8.683897974733835 2.4397357251045992 10.174623722994518 0.08613349856497424 0.9177023086958775 0.7236994625507344
Ni 2.435940999246178 5.297064195813747 6.690956184219607 0.6974940077999601 1.0539273246006042 1.7156783704729999
Ni 0.8916231657926532 0.4167946701662183 9.296058236180878 -1.2461586806676215 -0.2433376878245293 -0.8969334515796423
Ni 1.663327534421986 1.4851210200683531 11.51941632682217 0.1582452289295597 -0.23195078614382633 -0.6688683736434674
Ni 4.350748747331171 7.4464078420980035 1.6382732436943945 -0.3736458240241888 -1.365065774119191 -0.24548995828084175
Ni 5.920454843788075 7.922677787546918 7.8282664641993165 -1.303538247028355 0.8512416059694823 0.3517387395384523
Ni 5.638707823877805 3.090353758614651 4.350365634720524 0.29920467419547825 -0.10235098886510116 1.2831609689235839
Ni 1.2757649934524269 7.6048308216405855 7.312107306933125 -1.2570820124483446 0.9882559505447238 -1.1416734190683369
Ni 5.689513470083 4.9892272981190775 6.911875659632406 -0.1897258160363442 -0.522118546948017 0.8487622911910545
Ni 1.030900524871129 7.633150214617582 11.258286407403121 -1.477305997073546 -0.6832601235887652 0.6938330140086051
Ni 4.970280969013004 0.34945421128775817 9.998269071260042 -0.09028762994266386 -1.1261611823653508 0.5212636551468893
Ni 8.976191966514394 7.502491524269347 5.158301900245071 -0.28425088109912333 0.43088269415947084 -0.5478452622901597
Ni 7.489159933423815 6.5992011689729 6.926540409562492 2.098098341145393 -1.796246716245371 0.4393097418809015
Ni 2.4099512221438966 5.351864769241597 2.578437960264005 3.169122216216968 2.0201980291234882 -1.0492972820277606
Ni 2.436195800982475 5.591123599624363 11.29410061145205 -0.6604711507187078 -0.6413082046370117 0.6898889417591925
Ni 1.2176155972046756 3.8604647063859274 3.457749652162514 -1.2652699475757758 -1.0619915896659773 2.298994314865944
Ni 1.6166988166796579 1.851844419033632 2.3947313684311635 -0.020722320149015927 -1.3130675266750291 -0.876118314606504
Ni 1.4696236144642967 3.39471443262127 8.168590583271836 -0.885169883285811 1.0910625388900048 0.6993544580474665
Ni 4.095000604585191 3.2887624106318225 6.951645660637342 -1.0129663088072105 -1.1873105001811617 -0.054180342697145396
Ni 4.504667196178504 6.930270524980638 5.995578585704204 -0.5177785248117664 0.5515111411775211 -0.22445524909772957
Ni 8.369108629663065 7.459885033935706 -0.17785707197242587 -0.0869120286022116 0.976053494941261 1.8440311827185016
P 0.35489422835769646 5.7273697280471065 8.234492322346421 0.016168639340062477 -0.8285948151042439 -2.304877256009282
P -0.3464521008304603 1.9475952715091935 8.089036931168947 0.765691490711804 -0.6448766387145604 -1.4367545580137449
P 1.9970177082887772 3.518047573050968 10.51051247184307 0.44192841045067116 -0.5705311339234497 -1.5408857787077204
P 4.223011176888339 6.4081362669982855 3.7788535302624404 0.6916321497025444 0.07907299217376704 -1.2669841020534052
P 6.744146956677781 4.0492454927958805 10.514481008885895 0.2836070768675374 0.005113667077481516 -1.0984063808495856
P 6.717583875668831 7.934735369710966 10.024733871599278 -2.140766826548197 0.38834867745200213 0.36536584340358363
P 2.4714494412115497 8.678829240193929 5.874736132246808 -0.07998624801665578 0.5517985905109529 -0.35083114012251837
P 6.935512160698745 3.9805582247398514 1.286140884156916 0.3363586575379562 0.22378881915832427 -0.3165511358937258
Ni 2.9358984061086915 1.6538179696209063 13.701511096282587 -0.46447775650609685 0.3819162915630971 -1.6711823449431542
Ni 1.9145711464727164 1.2886961815694933 7.209192885642818 -0.02488647882903456 -0.38256755199385084 -1.4644785062915746
Ni 6.981176271867949 0.8251317426997823 8.629622474883996 0.5492557694844411 -0.33312215287852953 0.9315842088842923
Ni 3.162144147816296 1.7462199992765663 9.358004178299453 -1.11915338358895 0.4401782605287839 -0.3123869772137072
Ni 6.603250696567619 1.988636551177012 2.1709744936834587 -0.28283728858104834 0.465565590253637 0.8240984698957871
Ni 4.024183922018681 7.109150443923055 10.449125273531946 1.386729889356186 0.49837286659164487 -0.2184949177492366
Ni 7.407914579793153 6.129392267551514 11.583732835094507 0.5052076301252912 -0.8992885820753803 -1.839933101389728
Ni 7.813831945838098 3.991824101508978 8.303842984923023 0.06567188827651271 0.22820803127194245 -0.5437433243066442
Ni 3.1228045797444604 8.624256168316345 12.369785271495958 0.7269722197647351 -0.31169380780142447 0.42393351653514727
Ni 0.2595337685423895 4.91964822398601 10.205030670196745 -0.3638211246242831 -0.10419806937616892 0.7592182242826343
Ni 9.048974262475195 2.778267131961031 5.415155700525339 -0.04231573004907552 -1.6051808412413646 1.110939737429906
Ni 3.9869919685813477 2.948128889450941 11.254623632443854 0.4219643086239185 -0.4472436520159975 0.9576055726487186
Ni 1.0941550559068285 3.675187443850056 12.47063579872226 0.3587732777877305 0.31334805557539586 0.2037200734329072
Ni 3.5018767628581275 8.377753688573138 8.341934934493205 -0.2161431296876084 0.7670161230604984 -1.6525747571442957
Ni 5.895420573196907 8.23147929181471 3.4397952298155947 -0.40360380383885974 0.4233231366446581 0.8328047394205335
Ni 3.4621094918717934 8.453675505927597 3.8771332899707485 0.3283756393324796 2.0932782940489307 -0.7417290663589354
Ni 3.7217160609102677 4.411136758833529 9.327144958015298 -0.05785084957019714 0.012398887884985098 -0.16245592457679764
Ni 5.019011801079781 5.1272570386959 11.450703578592513 1.7050404311431797 -1.1183589127121127 -1.7010899311358638
Ni 8.23964204743822 0.2712846786166808 2.202366977601435 0.18503149588446843 0.2124019174776213 -0.03274659830340167
Ni 4.629410846219847 0.6652618532975137 1.3955636697972076 1.4675417185979307 -0.24721131184732265 0.7374085846067107
Ni 6.112375151591687 5.751348391445045 0.3664913473840085 -0.022507179963580592 0.9136011420433104 -0.039498572315254554
Ni 8.175877912929927 0.13711245432615327 10.95561561491187 0.20166370512451076 -0.1998603333671848 0.9541880623267374
Ni 0.2725350271369376 5.114380450950897 5.71580263922543 -0.45533851320899 0.054894338045034484 0.43530730558972774
Ni 7.439018591745393 6.699957055554293 2.505650204265998 0.9279867213410211 -1.4425662795995158 0.08724010136559168
P 8.844868971639386 2.0540386968472135 3.4112264951395086 -0.60253931139893 -0.5117829693499637 -0.682345839304612
P 2.2477790170529457 3.5111952263569846 1.093002078050085 -0.6391070832206348 1.5009712019009698 1.3949666754436816
P 4.6343794800776354 1.1975226602852647 7.865426567419612 0.7609717166386314 -0.47633079918994087 -1.066315156741996
P 8.744395186980322 1.8666047196148294 12.395330965572121 -0.011351677567393354 -1.0027657141251247 0.11469614069401536
P 6.5360467386193175 8.117000511721328 1.248786949615794 -0.35621065926687684 0.16615034270924933 -0.6487325221255408
P 2.0517090809724996 3.390109801243905 5.881022455083731 -0.43842296840057404 0.34418689533312335 0.46862751700841226
P 7.360721658206167 4.090122971347508 5.914826455434517 -0.4964759066792483 0.021250167628027918 -0.5341068296581446
P 2.499741534002514 8.704254813451554 10.281188179157278 1.79002258971253 0.5714922122851384 -0.3514196656361367
