# total energy = -340866.7334552284 ev
CRYSTAL
PRIMVEC
9.30489898491077 0.00000000000000 0.00000000000000
0.00000000000000 9.30489898491077 0.00000000000000
0.00000000000000 0.00000000000000 13.61866021802178
PRIMCOORD
 96 1
Ni 0.9129669239634135 5.28178640033075 9.361820889226587 -0.9083362940999453 -3.267546359223837 2.222819213065262
Ni 6.309307798087626 4.042131912904034 4.531772452336811 0.20510409826462742 1.4007354596066586 -1.5672694109075715
Ni 5.405299630977188 4.380495263757359 8.381100342470344 0.04280809630446176 -0.2098444411630902 -0.580305182591078
Ni 4.56673281923336 3.647836813563761 5.896593650979942 0.7426515781732048 -0.8045542292152725 1.6981712148271721
Ni 4.243313136333792 8.497820066284254 6.641698334208998 -0.8478266667506624 -0.2817407130827599 -1.1072818289623447
Ni 7.926424822383665 1.6621620408365991 7.693003984554043 0.11266419786565113 0.27198749035073805 -0.10396821275354998
Ni 8.507655344632399 6.521282704472776 5.977284805480683 -0.4392421218677597 0.9477862725654518 1.2796552697631705
Ni 3.238523607076935 8.974063411993606 10.667319634150923 0.37698054482437654 0.6647332684291712 0.9888362485282259
Ni 0.8008354458954546 3.1942229824643324 0.3817828015212078 -0.36704323110600656 0.7402149437072543 1.5908353711529701
Ni 9.184223863054358 8.60999062492843 11.901020847133795 -1.7481064090947185 -1.8477716235975403 0.08172251398147215
Ni 7.672205674086896 2.60391087869451 10.290259999412608 -0.13644895899007467 -2.925446685437046 -0.07401614647614996
Ni 5.777811961525589 -0.018803340100220004 3.4226284796793367 0.15770606859663808 1.122402486653867 0.5674010729349003
Ni 5.581692603205944 3.606234609690006 0.9654353890055357 0.5569863053594794 -0.25401599347398185 0.4695423155131978
Ni 8.066370504839774 9.234367964301432 1.5345918741827904 -1.7550645855801066 0.6676684397980953 -0.2084349624100733
Ni 4.536808263729447 7.050889646517621 3.284875031451062 0.22460797262550997 0.1113256815598857 -0.46726920320830495
Ni 3.171063088605738 2.7255352148237537 0.7078543806641262 0.14051721552217736 0.22367723328112443 -0.18003352844924478
Ni 3.8969196575576195 2.1948582093824696 3.6143382463157394 1.3366525130838205 -0.055598563200910694 0.09363160671423229
Ni 2.553924960732128 4.200203538805923 10.946719700390691 0.4172998132687135 -0.4251056824663776 0.5208026563500707
Ni 5.240091147466002 4.341721749209845 10.930118829907316 -1.5307926561377767 -0.2716838430673902 -0.45237763080845317
Ni 3.962593635401717 8.905076890070095 1.9547676198783441 -1.2110512954415271 -0.8821177267230486 -0.21746879047756743
Ni 4.858152954129832 7.949640545636856 13.080110676811938 0.2572149600272538 1.611214191919638 1.3914982572791068
Ni 7.160119857046364 7.101722310298055 3.8025884514669572 -1.439479413144076 -0.11887418333110496 0.6811687882773753
Ni 0.9559201991864121 8.739263588117442 1.553425920450039 -0.7343767397589224 -0.14401648692468744 -0.6500957210216546
Ni 2.93510015234214 1.8248023721963307 8.918139107425938 0.6976055936771598 -0.7089071347329081 1.2431515184101816
P 7.4869823526127375 0.9881802843642935 12.36054142818157 -2.5927099409223926 -1.0942707614146572 0.4340878313603298
P 6.226866392066274 7.822544928837121 1.714548622766646 -0.29207963311492274 -0.5159599835457889 -0.4418638757613229
P 1.0952424534028582 7.837190840019695 6.16146318678597 -0.07249919561099127 0.5111769603348486 -0.5955564523231937
P 4.379313541571726 4.0693394378709 12.844684633226379 -0.4357266525153335 0.16311258432419007 -0.5424809126544529
P 8.539236172176018 4.89579127098721 0.24538507709172694 -2.165132142766439 -1.1724826911397097 0.6510213181597175
P 1.7223275184138076 2.7435122798839404 5.50512537998609 1.7498935829021283 0.02435451758496451 -0.07352403733107983
P 6.165063252247557 2.3650634237100747 2.803196694177706 0.1252942279248358 -0.18099846346567539 -0.09793280519274747
P 7.165079368266384 9.107253737703498 5.145824145179125 1.633073968107207 -1.3140170350724918 0.34079432471180665
Ni 3.922936155439753 5.6396621245956755 0.7081484154756696 -0.01300541112073244 -0.7924134800876804 0.7264793392887166
Ni 0.011005834654859568 1.7655766894281693 12.446366095515494 1.8313016509669753 0.6037539005323215 -0.9821326112558052
Ni 8.112922915034451 1.6712343174585875 3.515289456381643 0.46277465777206106 -1.703183066219467 -0.7137382375729643
Ni 0.0365673229710286 7.413715577103467 9.57748611859459 -0.3375917586141089 0.7745031754661629 0.2394383527701231
Ni 0.1792653945807643 0.5749590202556879 5.836916680605457 0.6954816053556215 -1.1615663013375221 -0.8264836822985122
Ni 0.8934396627132543 5.580287563441924 12.991126065743833 2.13855773471202 1.2480109033850117 -1.7030285429194734
Ni 9.014297795699738 2.7432796574064535 5.351507078793211 -1.9735913850085431 1.517195119959 -0.12675410029981396
Ni 1.0256325032396822 4.926860329080359 5.516701604955748 -0.46913299588992113 -0.34137590824688946 -0.08843232190147995
Ni 6.543428364329528 1.8349447122147589 5.249271360917543 -1.2534431301441766 -0.3431931639612864 0.8670572328455003
Ni 0.9135977961223578 0.5321034464732338 10.464211366117663 -0.06234950877149908 1.446206447455264 -1.7685199397540639
Ni 4.395699468885902 1.8447799905629043 12.094949832205423 0.005370520283293976 0.19505185623494795 0.0822652738588196
Ni 1.7343308382521307 3.4910306539394007 2.9697395002197573 -2.1215246904891334 -2.173417779813999 -1.9509890742279947
Ni 2.37791348936645 6.889021621783146 9.753670661083518 1.3300625185711286 0.5286414356681992 -0.6173164697081045
Ni 7.170448295046781 4.704696558181283 9.945299475097755 1.6531607115547529 1.028305767377758 -0.7894399992816533
Ni 0.3985707004764814 6.542181507850199 3.766567326073068 1.2065600924393929 0.08827882704275118 0.2861154451116879
Ni 5.756187376018407 9.05775167449429 10.888718542344021 0.5962750756567731 -0.007136096824149 1.2555766315474117
Ni 7.170764661616164 3.695626775338667 6.742843517910207 -1.8669628518140104 0.75087576585521 -1.0941350071677414
Ni 1.1162808302667722 1.9752439808366498 7.556899364446196 -0.2860552812977138 -1.0918770643715001 -0.8598064648203579
Ni 2.9672857983272256 4.32282349913881 4.4578506119309385 1.684180556975035 1.206618456481154 1.0734998474158932
Ni 8.011462295253772 3.8307339102630507 2.8557786789888415 0.5349000149834013 1.0544520867558227 -1.918302639738567
Ni 6.060476186369454 7.09295709534635 6.958059320651704 1.1696315948441598 -1.0299034508821812 -1.4676839006027498
Ni 4.688478119050897 6.988928323414214 8.81879069974084 -1.2850587001669287 -0.2498783171565245 0.9999693823269102
Ni 5.623611173649081 0.9464757266004444 1.0421049661154835 0.8694972097455604 0.3445414504590647 -0.7162314363084633
Ni 1.202602379212606 8.975328878271135 8.24755643059467 0.9062706698201682 -0.4589722533068354 -1.4493138827359942
P 0.22688321572232995 2.8253953919593244 9.272768352395058 0.34575475404087547 0.3636288061078189 1.786457240958775
P 5.90158572934681 6.819560550005562 11.336200444936894 0.9707382533759344 0.7762561536015276 -1.2476365507647287
P 2.1561870487250494 7.36187798422029 2.6734249883969614 1.4711782869092536 -0.44084803290229885 0.3723319903087716
P 0.4664108588309371 1.4764362548110692 2.1038925852960877 -0.29936485392242634 1.501635574957846 -0.8850888935362305
P 1.6983115738380614 7.338392418893214 11.708507137215198 -0.08609390357629043 -0.0668013738952656 0.712963821300785
P 3.748720529600274 9.555573081215325 4.537588014273983 1.3095877956565445 -1.669588775203789 0.8683417559848786
P 7.797979995214505 5.444333682699487 7.866982335466486 -1.5411241199707717 2.1772896040645793 0.8052738809901164
P 3.8451565038672375 4.069776768128575 2.414847425361998 -0.20031824684020985 1.1978394247369435 -0.5003551871289964
Ni 2.391852228217464 7.4939145024418465 0.3755336312860001 1.3357526269773705 -2.251868565022735 -0.24013100796177353
Ni 1.1414040578353557 6.225973121752724 7.532099947366274 0.6643494027271913 1.50746169472132 -2.0948798342080956
Ni 2.9560268704168604 6.612554459739531 4.898305454723888 -3.217812996554452 2.1064207449681596 -0.35337267559744945
Ni 3.47205796467557 1.5616319109658663 6.296778751450183 -0.3767098076614932 0.14343104673486265 0.4810089213919006
Ni 8.104827652817908 6.371650622054112 11.339005872015388 0.09923841137804844 -0.09182720651564186 1.1372169259588802
Ni 3.9094161370482152 6.277150066799838 11.895191327847973 -1.6668088984658067 -0.8195170211726919 -0.4438935045968419
Ni 8.084598802175648 8.647284660519128 7.226224651718767 -0.501240160837111 -1.1180143848885005 0.2701301254270251
Ni 7.0247428800480956 7.0260641757202205 9.213554765995726 0.027100198650901717 0.4916412042947662 0.3137995412905176
Ni 1.2773765483759907 5.5327209192454045 1.7388437143153765 0.4802005665579923 -0.2698781573172191 -0.38506666426662073
Ni 2.397677095053736 3.912886864412319 7.508729762788032 0.09483591143497862 0.057752890539752154 -0.6824306857089344
Ni 7.474132286956362 8.134091560485757 13.259304423669635 -1.6818799338663162 -0.08552800377049141 -0.43844585121870944
Ni 1.7408442676217637 -0.027217760355875656 12.887542998478562 0.45384290250007 2.0465870606399785 -0.8747216913692936
Ni 6.097044439830392 5.586242698865587 2.2503470446722815 0.08353694148239162 -0.24656107985783343 -0.25846888703901294
Ni 7.797170468992851 2.184008697032481 0.818941849053124 0.22437245957593618 0.6091025664387446 0.21492545523042342
Ni 5.342212415082744 1.9652598241029127 9.76568235533103 0.032293569926383096 0.5581692699239871 -0.5586752630261281
Ni 6.259377709519841 5.8946163599213035 13.248260438928469 0.7539891146732112 -1.194259163584853 0.5842824220712712
Ni -0.5419024357148914 8.599922724102797 3.5420363888430852 1.266722363751586 1.4664405151139521 1.6194041839295978
Ni 3.7850933801801236 5.7358840861833515 6.778674823362467 0.04591347470266286 0.3577875168356935 2.4752778893544534
Ni -0.1388839934688607 3.9402153530674786 7.560426851694807 2.178716309208777 0.7210188303947777 -0.5554600985229402
Ni 2.1279466799581415 0.4946335482895561 3.232606621739579 -0.8500900088635425 0.3462628040255456 0.7482792087726274
Ni 6.758222655141819 3.1105440248627496 12.387792686174205 -0.035173976797971684 0.22574234334026927 0.636606171175652
Ni 5.785665296365545 -0.11965169752015489 8.548746709545593 0.7127306222440564 0.5733935430729091 -1.0383798637843085
Ni 8.387426743368076 6.679754441035944 1.4910114487604875 -0.2649238986357373 0.0584476026139316 0.18801988908883105
Ni -0.01944816960781365 4.1179296209683605 11.188941111788598 0.3146996845072838 -0.5928195130080047 0.8004736313879957
P 3.4462740892709234 4.884364854893054 9.049722477061351 0.061876168679506335 1.2254021648465605 1.0889467780985826
P 8.179787919963282 9.54077829164716 9.30286597902222 -0.23122162128728568 -1.3128453833618938 0.44358651487938444
P 3.5655908104234975 0.5971595790171264 13.727064492869996 0.9489288708103271 -0.05086927604604142 -0.02003789248748162
P 5.795565709007388 2.2519065457613534 7.500994600166637 -1.5390412692998139 -0.3330267649512458 0.4569701352751421
P 4.967932153705443 5.869362863765327 5.068130098678325 1.6729967724440735 -0.56245401334227 -0.25457675107345834
P 8.177666402968601 5.226813056451049 4.407747452239903 -0.4213081630971583 -1.4331552706982609 -0.28841349711724523
P 2.363230358587478 1.9085650738898086 11.181151980752427 0.3303970406378826 0.5203478282008392 0.1376319235545823
P 3.533842494696087 8.973319020065649 8.579156980782498 -0.4830946002763357 0.08884781217234376 -0.3752471070730376
