# total energy = -381173.5910809753 ev
CRYSTAL
PRIMVEC
9.16393736448447 0.00000000000000 0.00000000000000

0.00000000000000 9.16393736448447 0.00000000000000

0.00000000000000 0.00000000000000 13.41234863791678

PRIMCOORD
 96 1
Ni 0.3474222784625922 6.6211738727466685 9.17866018572454 -0.19360766758925366 -0.9451555198108239 0.7025151151636353
Ni 6.291363765580616 6.026131925299786 1.6151952854853298 -0.993940916744643 0.9133807985023883 0.2918245796813232
Ni 1.5125536881993031 1.6837726946536111 9.17592383401574 -0.3576381357420228 0.09883166285793302 -0.5990757783303619
Ni 3.770584520267772 8.82620049087103 6.968345975718135 -0.5369525266370558 -0.6059879320691628 0.23832172266717663
Ni 0.03721749897842434 2.0121990472716766 4.545431167122668 0.42896208009799025 0.2155026678901321 -0.10591042408158534
Ni 6.335368992994103 5.652399066156881 9.908332286753215 -0.04766156774202114 -0.028801497612724592 -0.7953972453063527
Ni 8.943159823956897 0.447259710903028 7.373707248416832 -0.6531771881604558 -1.1585956487449722 0.10137139856065122
Ni 6.629989580529212 6.8943600106940774 5.440102710289629 -0.08052335146704842 -0.7304565787689097 -0.9015550095120537
Ni 4.140074476392675 4.583801489426502 6.521821212594899 1.260384080238384 -0.18089022002258523 0.42268010374402043
Ni 7.34709517419593 7.547116435910669 8.658891736506963 -0.44704516285194623 0.6289651096906265 0.9000848527244305
Ni 4.788560506779054 0.8188454595122011 3.197691809526094 0.6266007232235079 0.7587204587106093 -0.4245732070016753
Ni 8.923943047220936 8.312598455132528 1.6772406400721172 -0.008644048828243177 -0.2596274261234883 -1.7787845549048653
Ni 1.7858681212703655 4.6629320889091055 1.0717609679222013 2.353822318449417 -0.7105930070757632 -1.527766210606627
Ni 8.05860160210887 2.0749445266761213 8.867520684625177 0.6256134196095741 -0.22922670234444392 0.4030481884457058
Ni 9.19601118480507 8.880826721735627 10.036889499017446 0.20814494197348024 0.40134483260135395 0.03416070504210891
Ni 8.086689070251797 6.341380535931055 0.15466893550287988 0.3988061253399003 0.8632324597827714 0.7055001659338882
Ni 4.057635695507267 7.953317125275562 1.62108311526733 0.12975843434377654 1.049302167123767 1.421888696645506
Ni 3.819529109941956 4.107551662546264 4.2446331693835955 0.7757964403562898 -0.035930395348022 -0.6384375679574359
Ni 5.28218515897707 6.820947708151503 7.269988888485847 -1.1694063662072312 -0.45392569202186345 1.2808888850599554
Ni 3.8641666490363114 5.445404048077781 2.203219489668313 -0.5698675321975218 0.7870732988216896 -0.3240513009255129
Ni 6.240806322923347 2.764778242628858 13.06853626114747 -0.010194424034498571 -0.008886503856352436 -1.231661258382395
Ni 8.701451810991855 7.117850116100182 6.8105356424732015 2.291124168089248 1.52414918267933 0.2341940736520483
Ni 2.560037553151115 2.1575849141844143 4.364539624738554 0.44706418901533973 -1.6434056890505182 0.07941289201168904
Ni 8.618811423483562 8.403220632119613 12.34760930558333 -1.1992897840302248 -0.9505730912819694 -0.24444429062514675
P 1.6815366939270613 0.3393204414038118 6.137933794414741 0.2222996362073075 0.9373686767765534 -0.10468812163871002
Ni 4.416018959498654 4.813532236204657 8.981498988873557 0.1522959533246603 1.4180392409924287 -0.6038911974411341
P 8.975911736238404 4.285964359862627 5.132315377492609 -0.22553768352863093 -1.0142161220539112 0.9808532303227495
Ni 4.6042645616493925 8.029515264788918 9.2263676438492 0.14911601293478188 -0.08175542410193662 -0.8793049398646017
P 8.27275365530041 0.7423119198898613 3.1176338195782174 -0.5605681091734668 -0.38031372296266763 -1.276683588729356
P 2.044391959371547 6.893187026706379 2.169755539450523 -0.12073231958576627 1.1245089914739086 -1.3828248978748248
P 5.3679412852026855 7.815638129719496 3.493648499134691 -0.545598632347828 0.25412269425517525 0.1815077990019261
Ni 0.4922537271623946 4.924846583849727 7.345916691845789 0.15801691496883755 -0.060383900404695996 -0.018017005402710905
Ni 1.2119765413516637 3.8458845939155477 3.3768000496914117 -0.5307289143248473 0.05265927806692867 1.149417067569498
Ni 0.9883764686967123 8.734982657952694 3.546466685149501 0.29990967068230284 -0.5663001265612376 0.7022004121366938
Ni 6.589393337829973 7.896885598742398 10.745947322856066 0.4185465411916211 1.0021041692817259 1.175080019553241
Ni 7.480192201050049 2.296391074041158 6.403793364407739 -0.7277859739152821 -0.9231324785725135 0.2609528298031312
Ni 5.76015780608924 2.914049619000846 10.250950829228687 -1.1779786812572746 0.5344125338240215 0.47533938181094904
Ni 8.125828246903819 6.308665279399163 11.257145657813526 1.71870147357004 -0.34539737070145676 -0.3583840127691118
Ni 3.2708566857587633 2.025147690823375 7.0667785765545545 0.5119166667143507 -1.4492372638617879 -2.096194696364777
Ni 7.140576680861833 2.1120309813496703 1.7057826395102773 0.1135435151468109 -1.9045762912914104 0.8575721761732006
Ni 8.832285345307215 6.376350121064306 4.631485121313911 2.5308623114879767 -1.5034739137181654 0.956990564772539
Ni 0.3917262502354458 2.6482496146009744 11.502403780128834 0.38912386505512986 -2.005275603485701 0.586653236296293
Ni 1.8859383177208604 8.482562002162505 0.5102691117047048 -0.14201205490014898 -0.08597151906581323 0.37759555270055617
Ni 8.698748449457707 1.15740529411149 13.40165913168503 -0.03150167015270704 1.367321145812271 0.4598338299761823
Ni 4.518425959987141 6.953009210078982 11.242646476053087 -0.7051648940816566 -0.9365551797363225 -0.125028632968275
Ni 0.30141564712009555 2.757492912392764 1.6265420727788282 -0.9122561979796417 -0.37493574648020594 0.35606256372478684
Ni 9.462956681380426 5.5971313596740115 2.26159010535614 -2.896441042233315 2.2923097037569167 0.40393393348476886
Ni 7.561797063631704 7.491188925934719 3.384498673504421 -1.822088102788507 -0.10582403501536612 -3.0789101767072458
Ni 5.476478959814377 0.030289562301082408 5.317419581901293 0.35784613798777076 0.4271083147187032 0.6182268973375159
Ni 4.148936003862238 4.135804081562462 0.20608320630741286 -0.00706333460468461 -0.5937327688508937 -0.28878887817879295
Ni 1.8714043129982885 2.2772109530548135 0.012081735073290486 0.6569217428045525 -0.8400012571689728 -0.3240818970531322
Ni 2.1269498714432054 5.913937839663943 3.991636101930701 -0.5559234113126038 0.47425591893878327 0.715455220264071
Ni 8.196509696100032 8.777585802943385 5.065468119706182 0.6176360578310525 2.1717182806243884 0.7888815556750219
Ni 5.55841372414257 5.655496476999396 3.872144772940139 -0.36691878971300035 0.06564334903142242 -1.2497893354416734
Ni 1.3487757989169553 7.131724317329673 12.041110422385296 0.30996037005008553 -1.0696768741253773 -1.1046549328624589
Ni 6.378861039912971 4.377301323967212 5.750356975035778 -0.2758940244939958 -0.8654502933696966 -1.3830820081909536
P 4.184867802422896 4.63016184875279 11.451489860306554 0.9119281252162617 1.0342483581144382 0.12925321257258385
Ni 6.003579475348809 0.7582443414602671 8.061612871939788 0.17330623702774023 -0.09530308087938424 0.13419075908351727
P 7.971425065585651 4.199410971082872 8.857340466563192 0.4915453021468502 0.6518260734492 0.6323502241127754
Ni 6.158083459978418 3.351068629855025 8.016681170454769 -1.0063485463803765 0.47658405285132766 -0.7112833482745686
P 4.948177968480035 2.466327129258921 5.286075250405022 -0.5300696834742936 -0.24297773338194928 0.3505958841832607
P 1.451457717527559 0.2654279485412735 12.013078854260531 -0.38708343758633335 0.9644714465306163 -0.32205535354140663
P 6.960551130562385 8.420329703252676 6.786352928058072 -0.5542326538737423 1.6629530150548264 1.1013495226383099
Ni 1.566666738569282 8.287360971522212 8.211347943544414 1.1691909077623153 -0.04394478101206625 -0.15206429692982842
Ni 2.4027019118637027 0.9365085829906866 2.040715387685106 0.12640417315956295 0.8348834763264332 1.3570562735511533
Ni 3.7634091572805244 2.233242381390942 11.77810725168109 0.9594881343834121 -1.3286887781520536 2.8068884906844627
Ni 1.7406165983699495 7.3604470309934005 5.934548451279035 0.36701392052996795 -0.6904252738786366 -0.4370335442522151
Ni 3.8981556928673444 8.957693828679467 12.521527091603083 -0.29661737308427627 0.40780035841871054 0.35821174885730567
Ni 2.5565277651254243 3.862388845179956 7.859595704658483 -2.1808678083341406 1.499159859723844 2.9736813520737178
Ni 9.030547131040406 4.290179771068416 13.148379814960094 -0.8969229100566811 -0.5277945142868716 0.08385858648786848
Ni 7.452572093714721 4.588887474685662 3.4188075387508503 1.610165181829833 -0.36894713299693876 1.3298640294070776
Ni 5.704853443856756 7.501122634080538 13.272766519311816 0.4169169760079981 0.024828629007905625 -0.8664329689979401
Ni 2.706788846737033 -0.074730076741254 10.273416221774328 0.24874651754492647 0.005885512246499541 0.39876807301311323
Ni 0.7808618553668115 4.048352626917126 9.884834118462157 -0.26200338255483263 1.1633709586464287 -1.750552813752682
Ni 5.351803591434434 0.6916536739211495 10.676256495293213 -0.769642762050068 -0.44485098341410484 -0.010062012221692349
Ni 2.075677641668433 4.231952112804091 12.02009293194947 -0.14956492754674242 1.188305002883947 0.7003685011342777
Ni 6.793904928872619 2.3757874277084734 4.207064691602602 -0.1480790870298353 -1.0065928011806988 -1.0783756874509558
Ni 3.1182862919213745 3.3354074608317745 10.117363531723461 -1.1006157297960788 -0.44129591907299487 -2.4371443157075254
Ni 7.564417949729217 3.9866060166897044 11.037746334064517 1.6651669919870096 -0.5709270838102877 0.555657559245727
Ni 2.00229283093807 3.969716880054333 5.685775958969334 -0.8449768560066931 1.09811918862647 -0.6708982595893026
Ni 2.5044216170468983 5.850972425761804 10.219713715800042 0.1016994713240313 0.5229762669626219 -0.6133420584413889
Ni 0.5153331035140952 2.4935990069729024 6.78561523109706 1.797510156338827 0.48557417216507986 1.056284511978871
Ni 6.506762114259084 8.730739754934692 1.653152314212248 -0.05898162074053068 1.0082095108485154 0.0763332246451008
Ni 3.4043019422342304 6.631886515571818 13.316289723617857 -0.5386615389083627 -1.5784151431117461 -0.3126592570384873
Ni 3.0956330386589546 9.052522252934937 4.39608464646397 0.18854310858215273 -1.4421294491724133 1.1614984242140642
Ni 4.003650940260943 6.469776462896978 5.210120871626609 -0.40264349680811945 2.0478029353249507 0.8048216239440462
Ni 7.389075171443157 5.521519712154503 7.310534729529365 -1.3261156181082387 -0.9335133075862052 1.6953622846234673
Ni 5.286922914614881 3.450259088314746 2.395284620928993 -0.611474666215347 0.036771146081762476 0.05378130748651382
P 7.1582355882391315 4.191704099726199 1.4282143066963287 1.3813927934139887 -0.6401748623635167 -3.093382659291808
Ni 4.471543256228832 1.518647706572891 1.019971892077849 0.2506625036207167 0.15221650623697655 -1.3901561414289156
P 2.9059761901480172 3.168376373771045 2.299359273366279 1.3486431097867935 -0.8438661394410175 -1.2425118279436536
Ni 7.671553541918111 1.3588561300612356 11.042104702693809 -1.1797440006878133 -0.5376158712526676 1.1964371450727782
P 6.1569104759907205 0.4101787545919216 12.919364771693184 0.3565382178096247 1.2888937576423027 -0.4824813921723691
P 4.231017391188893 1.7376199908388772 8.933804360261263 -0.2914700245553819 -0.380942357685602 1.0851037502034087
P 2.8235557371374176 6.244022864952113 7.619715897205518 0.42684606219625193 0.035655030199448275 0.46496832298927016
Ni 6.154564508015324 5.370213941678851 12.401648128060337 -0.7362222776080933 -0.7859384138862981 0.0472861866804734
