# total energy = -340892.5859035361 ev
CRYSTAL
PRIMVEC
9.06008164367940 0.00000000000000 0.00000000000000
0.00000000000000 9.06008164367940 0.00000000000000
0.00000000000000 0.00000000000000 13.26034529261529
PRIMCOORD
 96 1
Ni 6.490307245362486 1.759395368816413 11.25036902849395 0.09756230922720617 1.549614673940286 1.6347107323796815
Ni 4.616827328860606 0.5510051715118749 6.029744338563936 0.010683962076407405 -0.15174085215213864 0.21790433535308926
Ni 2.7297391697742617 1.7198299924073883 4.798362372147151 -0.02931391847276887 -0.565788991252774 0.47794596619586077
Ni 3.386486365821288 4.4739407817237336 4.918129403021018 -0.7232939995821994 0.37327070007295715 -0.28143783713036047
Ni 5.147431008593722 4.455032391394988 2.783240763722183 -0.5214014662763343 -0.1067851133770548 0.053226206313992205
Ni 7.309266142629383 6.2547360633127855 2.7378107964843146 0.3859675788143353 -1.5003464238327773 0.1572090743555615
Ni 5.090841738831696 4.700524362812191 11.294419145301982 0.27859573969587503 -0.5075493908845904 1.5656401028342648
Ni 5.600371668730283 7.349574445730769 12.541581055866144 -0.24202025456468643 0.4754931337799941 -0.484216629695921
Ni 1.778013836533506 6.514950667352995 0.41176258920021597 0.7088863087973016 -0.8240411342952905 -0.10803852616818167
Ni 2.7509850611594606 1.8039800304396805 0.44988197658362095 0.25989919172763626 -1.1715750917237757 -1.1177608741167977
Ni 0.6225200197250633 -0.026418291978720948 4.551308442659667 0.40686601952989926 0.6647594936814165 0.13236758983184946
Ni 8.612450161846525 2.1425009198710496 1.3531385912131204 0.026186942808012963 0.8165072878120906 -0.7289776802305381
Ni 6.87044108964768 0.7856440711634792 4.837228310255562 -0.5016556511079747 0.8105484991254944 -1.0325632571025314
Ni 0.8171305727971597 7.393678923028486 2.481872550965988 -0.4503832260862437 -0.8110804603695645 0.8192521975470793
Ni 7.51370688425284 3.857945832777186 3.842012773250529 0.6768979288161632 0.12495689919007512 0.6242779886276023
Ni 7.2974064957964515 3.697790770083729 12.843121410173008 0.5527594117623255 -0.4603387946370588 -0.6036148038512958
Ni 7.799316897057532 8.925258539656916 6.665299097707288 0.6449889959227085 -0.46648784495759016 1.4471911799660366
Ni 6.769185617527859 0.2289781606590789 0.22224833203608294 0.3472107697611117 1.4604688709115494 -0.7460063535780507
Ni 1.8695659612445643 6.425962545738742 9.158243974413937 0.08642326189125117 0.47823367263960864 0.6822180554774961
Ni -0.08912764687110993 4.774436508620485 1.4808223214014375 0.2839300074245949 -0.10197972156861147 0.6559346963009348
Ni 6.4364903605743935 2.069014597898621 7.141690873093932 -0.04997196104275265 -0.4039658151639688 -0.23118125496765346
Ni 3.184727408355622 4.1803669571801985 0.22312806596081758 0.12959594062398325 0.23383951852610693 -0.0020607391837706443
Ni 5.802909793214766 5.605381893862911 4.647353461843187 0.2608957513129507 1.4489811819869238 1.8086252924153818
Ni 5.423700077254217 3.1233725356645494 9.161386916725888 1.1338958320054473 -1.5375420590464681 0.15446442173088884
P 0.21657037888849062 5.346888705329393 12.626368017635912 -0.09280216883440146 0.8639217725403121 -1.1010996114110327
P 3.750067440997416 6.196724360737337 12.649481191841788 0.8790892243093699 -0.41420471928315755 0.9993913983362529
P 2.3305519738544964 8.451679013603306 1.4303930011288772 0.7912238306549535 0.5811898991888765 -0.9551635388661293
P 6.265979624595954 7.78427716157803 5.610491779893296 -0.2903955605442805 -0.15122354619608797 0.6928979037888454
P 4.9011870504025445 1.126820470515958 12.785863506387859 -1.1183044053250935 0.3933001079200065 -1.7873833523174703
P 3.9451762985582914 6.187111614144716 8.236119739822955 0.43990392382147464 -0.14242548828848375 0.32185300772261344
P 4.733330918337053 1.288388905941223 3.673049499211789 0.7688179521559275 -1.3548919189099828 1.4740270692119581
P 0.3151232286628083 5.47365736727468 3.6832728953052043 -0.6377551971784308 0.7261576942832397 -1.39426810671476
Ni 1.5450700781519104 1.1529950462992582 2.410107644500249 -1.1020707170750506 0.6082178498409461 0.9775208235154068
Ni 1.807359440881761 6.72278893958176 4.6220921422865935 1.8260972239479003 -0.08482454994556358 0.7314911906810112
Ni 6.139229082813896 5.565789337209044 9.2977964115168 -0.19916330730016021 0.47508869925272373 -0.8355979858949546
Ni 8.763418301783226 2.3938638241742267 10.045029360668899 -0.211359592256036 0.3149889336129285 0.5453921727639768
Ni 2.2774236552690788 5.473747968090821 6.929710331551174 0.3148781190666771 -0.3242418196697642 0.08997704068078052
Ni 0.35989724599181167 9.113807898129142 9.249541510831637 1.034403909855696 -0.09905971970833907 0.08538222222124649
Ni 1.7045456347243053 1.1344037588270075 11.282525070158917 -1.1792426355713628 -0.08984514308860655 1.197394623890041
Ni 4.036447560739311 7.031248478217356 1.5104723444919286 0.5979774030598605 -0.39230766209975015 0.06748245912269023
Ni 5.749699933894822 7.78277318803008 8.080934131894864 -0.2815903035478247 0.404458181419355 0.18356956662696128
Ni 5.123838556070457 3.029990274467431 5.227864601147887 0.6809116779612467 -1.0832163033727087 -1.1349700389062323
Ni 0.7450793677524132 7.678980893058296 6.906849933622332 0.2051655476301821 -1.3446257610972845 0.07873900587311601
Ni 5.176649771799379 4.652678071807826 7.041853303746726 -0.43445755599492275 0.8265137642054992 0.5170956398121287
Ni 8.132356437112335 7.116150503023623 9.456575247813067 0.9410792928589212 -0.015549774809140963 -1.1130940647687475
Ni 4.718227762286253 0.2573661143807176 10.64557777647147 -0.9251255977431422 -0.5626550736094826 -0.33441284666549503
Ni 8.350613803197382 7.155090733801271 4.732882444297153 -0.6804514504953765 0.06558884164440316 0.07937895344996007
Ni 7.407939491489169 6.213612352866126 6.736215980533941 -0.8152009102958412 -0.4586282397038553 0.8725766200018328
Ni 2.581054170404329 5.020897908770403 2.4544766761811 -0.7096617535107456 0.8721850409903689 0.7673166850200528
Ni 2.3996350961624446 5.212047510665891 11.407968242164053 -1.6409556848481286 -0.509297998144581 -0.18821349315687586
Ni 1.0178548689424896 3.384321006315505 3.8188071862121884 0.010449220357782004 -0.11064922431815137 -0.30228845532712456
Ni 3.5976768682472926 2.6988895918780567 2.7091147999877947 -1.6294412564506262 0.8264641419144864 -0.07468000531239397
Ni 1.292230380545626 3.6676931789614993 8.393281351551094 -0.2139065270476058 0.005676738669803127 -1.0560667395411103
Ni 3.6571019435545495 2.8657309948027616 7.312748838001865 -0.7485214066904206 -0.5234609199085244 -0.8863435918789381
Ni 4.124158210845967 7.163344468151768 6.335249384585155 0.5193659239035443 -0.8963415836319143 -2.1946134400550075
Ni 0.8250735463482914 7.4162475863293515 11.550543122493398 0.25615026620816533 -0.6887627985745493 -0.813131172251006
P 0.08387914159202868 5.790950485484078 7.9982029026433485 0.9823172164627856 -0.43596525088870075 0.13658265635446157
P 8.476748259429678 1.5606896588547174 7.9183754295491715 0.00043785886836698786 0.5447231717214103 0.581758627208153
P 1.7889493550417936 3.2810813763221836 10.475354245080199 -0.18973070113235066 -0.6281354147004795 0.03612888451207326
P 3.97389675727517 6.298405656693023 3.647828044014298 -0.2636794847056749 0.06231634154071848 0.34738997565145335
P 6.9674926838985325 3.9094433366720556 10.501795187262957 1.0672289268055168 -0.25851285290307097 -0.10028613591627245
P 6.299021742242786 7.618097144611159 10.331824432148723 -1.1721448481843166 0.3676183868831862 0.3142865082292652
P 2.545647371456202 8.605609800227835 5.699813312510949 -0.5812863155574247 0.24460755567588843 0.5062034183796572
P 6.924611317618726 3.93471190429394 1.7312973377064274 -0.356736964083992 -0.5234676047767437 -0.5563610130706547
Ni 5.027982892592674 2.770455176548284 0.9346208051613888 1.1533516267372137 0.3831720183470691 -1.112041455134517
Ni 1.426718232026175 0.8724324049618137 7.078677099459307 -0.17964400632030997 2.070729205103821 -0.34225959640342346
Ni 6.8615712697474205 0.7232889654622038 9.297252806619952 -0.17692352206535336 -0.9485779152288114 -1.403627436442473
Ni 2.788838082143409 1.5986242205731935 9.246186562609916 0.02392951423240395 -0.4142278592116092 -0.6290630687210714
Ni 6.558357518366422 1.8391784475106812 2.6355333471584173 -0.3186828375247479 0.05857384377915073 -0.4454461937959425
Ni 4.129866062262885 6.685687905371787 10.48472961753453 0.11370215221186224 1.752312990976898 -0.6990238141809251
Ni 8.406297064797991 7.051959824787319 0.5027113124757715 -0.39052948715340485 -0.49292906986825435 -1.0028353910207954
Ni 7.789278326629045 3.9448138952937253 8.082882955450069 0.4413200874427109 -0.06634911684919541 0.3691062842826224
Ni 3.061483118158242 8.426066162880083 12.53395699718783 0.9227416708919979 0.34526418755770216 0.20321716565455972
Ni 0.16334149339715573 5.031172041320858 10.326692801922462 -0.08463711652510585 -1.2819597495266308 -0.48663475221911023
Ni 8.69189801752107 2.2345875893973433 5.6596218844623865 0.02101285480624123 0.6526555113290309 0.5753498954683317
Ni 3.725831722679546 2.7373224580853117 11.259703630581017 0.5057275071845032 -0.7334526852827562 1.2719249909984482
Ni 0.759551942122868 3.2433189561543765 12.630320025236006 0.7060791783658098 -0.3481595068276262 -0.39435297466455305
Ni 3.0135099860112797 8.399085239833123 8.069384339853135 0.7120922173291091 0.16903074958083794 0.708366945958722
Ni 5.77057436193384 8.169584312464908 3.528352747768407 -0.8615257615043097 -0.6408621182385286 -0.8423859553510653
Ni 3.035761546455649 8.68860920789513 3.4387784388737197 1.4775093713336038 -0.8478174107792819 0.8909129564171754
Ni 3.62990357854885 4.330148226425445 9.394715728576085 -1.9246033851456146 1.13911234320938 -0.635776476185505
Ni 7.43518315690294 5.934860821843351 11.544350556710123 -0.6814644651409232 0.13525185335817996 0.6431719973186277
Ni 0.6616731624206437 9.001725628480402 0.19643253548470344 -0.09288315858398197 0.8389267931578713 -0.42180207201444125
Ni 4.741267549831055 0.31981363291445747 1.508191921949645 -0.9817986249551542 -0.20995525570934165 0.8046915261240851
Ni 5.590632080995063 5.186452780105897 0.47308575160563887 -0.25153462181302483 0.8223735167848805 -0.012715133573823263
Ni 7.931856830991037 8.685981784227025 11.362550959040444 0.01050089953132385 0.07751207544455038 0.09430163619806341
Ni 0.2605280828640585 4.970551035240532 5.74508472832057 -0.7406101222631438 -1.1861745868045055 0.7405121632326989
Ni 8.059776123301322 -0.25314864638932744 2.113354637318306 0.40229614077102976 0.9609413218901709 1.8725380319089429
P 8.583639102313505 1.5633986232573505 3.4704706043600413 -0.35023824373352586 -0.42847408471797827 1.0493289065966445
P 1.5634076833389645 3.269384810958307 1.6548782673154956 1.1582542062451537 -0.8556153095571457 -1.3529440511549924
P 4.73783377889929 1.0598211669792654 8.366217075753283 0.3690350647250548 -0.01643423429662331 -0.4628499910946867
P 8.347216272592073 1.4461158667620857 12.478965925822543 0.8964616541495464 0.9821025293488183 -0.6500970065732352
P 6.4924273044601994 7.516615170450985 1.3281825964069245 -2.297702335527398 -0.16954368466151445 0.11410941495260994
P 1.698303238492151 3.1919573534837196 6.004762069521059 0.919846351622074 0.6608840698864101 1.1880620336352057
P 6.968507413039318 4.007962664144401 6.05134538514841 0.281808847316534 0.11365818634780425 -0.9520288498918895
P 2.457592438248209 8.35429219633273 10.32518067430106 -0.3976103052595862 0.5598551422668422 -0.5506817032976904
