# total energy = -381165.1635204226 ev
CRYSTAL
PRIMVEC
9.30697617118939 0.00000000000000 0.00000000000000

0.00000000000000 9.30697617118939 0.00000000000000

0.00000000000000 0.00000000000000 13.62170039010382

PRIMCOORD
 96 1
Ni 4.268235090497087 6.062322263200763 6.4361993158013 -0.6064059934431879 1.1037491332187377 -0.010518125922504465
Ni 8.971012896037825 0.359680191227061 10.250996668335873 -1.8535180391630142 -0.24676625389010406 1.0647789226031277
Ni 4.2388529668861885 4.579525520783337 8.142044255818247 0.24121678482678457 -1.6518795308494842 0.311604847632044
Ni 4.82122769062021 8.936307182086278 9.429608560166052 -0.005988099262634848 0.8351876378304133 0.48955603963096334
Ni 6.026481098162573 6.75459376095996 11.057333534724403 0.3477375887988592 0.7921468566898552 0.976199533600822
Ni 0.5486350739037315 6.574447931180887 5.838547190766268 -2.333954890101529 -2.2611957559609315 1.6546547796017763
Ni 8.623015751934222 6.294791912726578 7.984372911973794 1.4099073559139137 -0.03899566453690703 1.4454708548408202
Ni 3.8008666706781304 2.3134536681051747 5.813428592915951 -1.0090541182369979 1.0457704998214248 0.39130210365337126
Ni 8.015875164744832 8.317812084030464 4.8867031983221505 0.7443549340175567 -0.45025749914165686 -1.461689887802844
Ni 7.3428691075540735 3.3081460479082443 4.910009727921901 0.8208483383896057 -0.9727933361327503 -0.8024089007374955
Ni 7.538780954880457 4.995082004542152 12.391510898271704 1.753774148903457 0.17533895118705287 -0.5321630756682125
Ni 1.8804745250496862 8.704972983647103 11.763836329668719 0.19230900338248816 0.9970961745441731 -0.05514656326515664
Ni 9.374730906171976 4.3518675779115705 0.7182314462507638 -0.2988848289622143 0.20347299041910763 -0.5338623177475064
Ni 0.41094487709134553 0.9605543913948428 12.818783003570399 -0.13450674766203932 0.3779645060042007 1.5641501485523
Ni 1.1117369114884192 8.359963378878026 0.6720446465575614 -0.4743921874063314 0.2832034136712155 -0.3617526721310286
Ni 2.7398062441632103 0.8948015358045259 13.510629172520911 -0.13556527083354072 -0.01319670119593211 -0.8824054331667964
Ni 1.6010977158789783 6.816103566137161 10.570711773405964 1.2421768132017381 -1.6798562185680683 -0.6600626024263794
Ni 6.810575222321869 5.697097906299007 1.6158874316312994 0.04816678951321382 -0.345063898621438 0.3958722395225569
Ni 8.337896538497464 1.088180954928653 5.823807732684996 0.2529780391277708 1.0139469275529247 1.118383595302461
Ni 5.094666649026346 1.978979560303959 13.091175857860645 0.41369949751196494 1.591389700994543 0.7376739224529554
Ni 0.4911561200841107 1.1931636455624588 8.129758116642211 0.21092893247652061 1.2427301146020466 -0.9004787457287395
Ni 5.037652113315114 2.5202453705158603 4.006142266678864 1.3592129148828396 0.09778805208476707 -1.6666322636786266
Ni 1.1516266111388174 3.8385785379164443 2.699561948722639 -1.4111047186561245 3.5025747558517226 0.4502135332775989
Ni 5.873911838627113 8.276442575176983 2.1377621570971423 0.403392459159002 1.4878583186680956 0.3037681251964446
P 5.17323614143154 7.926770175371777 6.932832591332041 -1.07069014588124 0.2641965335514095 -0.33113957523086196
Ni 5.319569726966587 4.181447538177916 5.701961732019329 0.2681303213881769 0.4568305243734842 -0.038745753309630045
P 0.48410980846364493 4.340038411263027 5.101108937896623 1.1513052857311463 -0.9440409465904065 -1.482609925784963
Ni 6.511383860991644 -0.018613952240036487 7.688496695537518 1.3282645461304414 1.6530920631003467 -0.6698135111655562
P 6.6261667974798275 6.905394695032616 13.214915828166735 0.0765571677304488 -0.06332035732520062 -0.2123597513857762
P 6.796912581377684 0.9370170487873167 9.760547878436883 -0.4366198537535642 -0.6636876007734763 0.4079237713704523
P 5.080510738347798 3.4704783253936027 11.179764944188017 0.5571547126165437 -0.5950358039330333 1.0889580909524923
Ni 9.53527624424229 2.1436199678670818 3.7791088219047517 -1.267310117934256 -0.7337391061749234 0.917201200689743
Ni 4.044625682237529 5.428424119666321 11.347789368268378 -0.12730765881043882 -0.10433716605719451 0.7077473100968521
Ni 2.173793184448181 6.180679078519035 7.73446943477996 -0.8107091930730748 -0.09405429607394769 0.45801066072451446
Ni 7.470607354801324 1.6949957979538426 12.0104711968492 0.6186367311814249 0.6864202664843017 -1.5050780249804918
Ni 7.163505063769082 7.562541664914864 9.032236046350528 -0.8907638324338207 0.4523303225102855 0.6157964335191524
Ni 6.715327628709603 4.649420911444674 10.141941244951948 1.564524501172583 2.4403731070574683 0.36565175007511863
Ni 4.222267935440316 1.6998261185601318 8.045220991148861 0.19834903892898098 0.21973573213487316 0.3623699940000533
Ni 6.6483453215738315 0.5979927603610242 0.16439098060310622 0.7814168718668607 -1.4921749437655785 2.5062385994020255
Ni 6.537024580202293 2.291628809103732 6.850216425709863 -0.6369270448501805 0.32752100464166817 0.3372960817505611
Ni 2.404410745726113 0.8903583854048293 9.616130599284949 0.8455178161118276 0.47751273531318417 -0.2993247447131103
Ni 9.148469009718212 2.1195893555251946 1.3613313970750685 -0.05205609726529099 -1.1134442490193146 -0.3143559280146199
Ni 4.898922327270123 7.349719041978406 4.554524190832131 0.5638213260034418 1.2837381815832922 -0.6351720098322867
Ni 8.98961754130174 6.048417640877456 2.364168311680766 1.5786722534278748 0.6876767645992221 0.26290969641918593
Ni 7.696655190804326 3.7096303837735913 2.5737790971582046 0.042986787974171124 -0.5704673705650498 0.46585586780054605
Ni 2.501761715941504 7.847130380712782 2.9964610018345055 1.395871703756454 -0.36904303514485476 -0.25130527941103814
Ni 4.638112935458851 6.499042810656499 1.6716827534708087 -1.6388862039136098 -1.40238173696083 -0.05899601891823388
Ni 7.718051928904249 5.6172812790937305 4.236607193548428 -0.5615047620551233 -0.2684789629768473 0.07351195314622179
Ni 5.17801062018111 0.5222023310252676 5.560282565241903 0.8384493393008204 -1.1308886697480072 0.5978197944360737
Ni 3.107422493927811 8.265590641021042 7.915746992855228 0.8879800990410965 -1.0963898646401893 0.49644145389688693
Ni 7.975790018595913 2.5422749829919433 8.842158742353783 -1.3580782870577643 -1.7556045172439765 0.6833040894528232
Ni 4.387718049925881 6.678751212557931 9.093820307336689 0.16650875448993258 -0.6997334386534402 0.09386146333685125
Ni 7.027074100825733 0.9597912193530013 4.0039216221766285 -0.28716136987769897 0.35810607651737686 -1.752698399340775
Ni 6.9487186688713 3.186112977022565 0.35944565542883655 1.7968558105842796 -1.337465238793103 0.7179268217330151
Ni 8.60128396269398 6.899857044241205 10.83183946380054 -1.4718398317526522 1.1971179731898867 0.47613153869494135
Ni 5.846242198622299 9.22413472557396 11.553966810255144 1.1004974590506595 -0.6687686148408095 0.44937843897081314
P 6.375287949188616 5.206071153182965 7.645887497464851 -0.17244723146155463 -0.45218865472609865 0.5144936834129075
Ni 2.02530038045329 0.7321174546218311 2.5255317329520306 -0.9531526790836875 -0.5664214826304503 -1.3164248731830361
P 0.10715586955783003 5.197750716531668 10.13728310340388 0.5747873380966423 -1.6007122639470497 -1.1426380969744514
Ni 0.8915710843932677 2.1367141915860284 11.007069348793019 1.056908261605799 1.8483164403574166 -0.9689055710425699
P -0.19400484791939226 3.152337960683019 12.595087040432926 -0.41730855501946196 -0.08438617685656434 0.41940169010306483
P 5.474940386314171 4.922655116376169 3.4760941547844215 1.0307565429110959 0.27025173860655394 0.2467166315990912
P 3.4251254307607537 0.16312337045555975 4.420800627242097 -0.7430066475197785 0.07548038972650227 -0.3763557667561841
Ni 2.473989699199369 7.40254543843563 5.2937745119523445 2.5305010714938163 0.7221246618644467 1.1256179082673712
Ni 0.3805026889003778 6.287579006233565 13.105682641538918 -1.1478396957800492 2.324905892525383 0.42155987409664814
Ni 3.954264251088271 1.1529668157001 11.487888210500627 -1.7104693154682347 -0.9357733072649754 -2.4153606441735307
Ni 2.5138980128020076 4.156635139841947 6.492701967825931 0.01704075753237065 1.2812393264208386 -0.22483191571085798
Ni 3.952858897694148 3.9392800195350417 2.241655000827294 0.39975229130325346 0.46150787524449544 -1.3281095086098158
Ni 5.808781619739226 3.026172592400052 9.174392661002912 -1.857248452739724 -2.5597016043171723 -0.9963703521217421
Ni 8.369335503830886 4.618847494890414 6.562594566394432 -1.3790996265044377 -0.6468489319495828 0.2572044185042925
Ni 0.31307643900368165 3.7046325375971416 8.389182630406824 2.590214942414681 2.2818987928362375 -0.07396189619944682
Ni 3.438155197328779 8.386134595727519 0.8962599389625329 1.1783409496926998 0.3120177667997465 1.059935221357581
Ni -0.15222210932618238 9.023857906447288 2.6240432830895877 -0.49022169823942024 0.06867802209268818 0.7783726857238982
Ni 3.111443107611659 3.12212751619744 12.427798798163657 0.17906550810902064 0.04795647327462063 0.6135914554480335
Ni 9.076740144761231 8.513984526688208 6.991896523184901 -0.06602850028498305 -0.28688960427355104 0.5857520646382622
Ni 4.161437539519877 1.393635911187652 1.8704639415349944 0.5449054629355454 -0.23810729266352543 -0.41107183008113074
Ni 2.925350120091894 6.809179175903867 12.957765008668243 -0.4828318335332523 -0.1175994303837394 -0.7522641615623045
Ni 5.543067451512704 4.761644429499854 13.416952596477705 -2.4749850407043827 1.1355853038927282 -0.5502410162158459
Ni 3.4317240768298465 5.6392364357608535 3.8304628547397885 -0.5578957045476263 -0.514706570754662 0.36474929286550734
Ni 1.4782084031902574 4.719939869506052 12.058378856426996 -0.04567719032214069 -0.9817896260940897 -1.2181665663300698
Ni 2.617698717468571 0.6384818292735515 6.769807874823353 -1.4132238218816564 0.3637239369247865 -1.4781660310809963
Ni 1.1551167271838243 0.12895187693330076 4.803242889965887 -0.10947757260755339 0.18145560560775204 0.27259581335869826
Ni 2.250426825820411 2.7367907839003243 0.9965937950243895 -0.32999234900029617 1.1667100503219907 0.033340266023342585
Ni 1.9482293112034188 6.242123734863395 1.3533785859805127 0.3316172861982289 -1.4857880664026284 0.8795422526863885
Ni 1.0200259688017594 8.512635015150806 8.99122113328722 0.13836674483807784 -2.7151949815332075 -0.4209970596146426
Ni 6.885812817276098 6.807811050414224 6.074406440994995 -0.5338708023879387 -0.5027095462937858 1.8043711451247184
Ni 7.956468736170756 7.719662035773012 1.0710570495654315 0.23446121127050587 0.37677305679926076 -0.0072466542600842935
Ni 2.6112675969696384 2.5753240551941277 3.5280205666508393 1.7665944405965768 -0.6102464502352006 2.7401801907236356
P 3.3830020568415513 4.8173094536736825 0.2053854183189506 -0.7540881021449206 0.05707746173928235 0.4353926662146824
Ni 3.1810779029416354 3.699364789113211 10.183419645426033 -0.9267271379023071 -0.8848960607991341 -0.5748217908790035
P 6.22912188922373 1.8510179456298284 2.105397147639779 0.9431012083849565 0.017047185290273867 -0.34643146839292593
Ni 8.365333504099278 8.500033369484301 12.574177987881692 -0.6132338149982988 -0.19840637452947768 -0.7784855571526785
P 3.804701144839578 7.572379138673723 11.056325589210605 0.14944999923543295 1.2419438712553255 -0.39862974766303605
P 0.7136617209758349 7.3898134951034455 3.991307877441167 -2.0605697480723157 0.24173023412809339 -2.134201257515538
P 2.357726953508102 2.9667475498737352 8.434093443673973 0.1366821580468033 -1.296598325375412 -1.6891803241824717
Ni 1.1252227198863256 2.394536044062774 6.113214670020247 -0.8921249744474056 -0.2892676175874244 -0.5191988021980606
