# total energy = -340895.47555263503 ev
CRYSTAL
PRIMVEC
9.03041241696904 0.00000000000000 0.00000000000000
0.00000000000000 9.03041241696904 0.00000000000000
0.00000000000000 0.00000000000000 13.21692138031612
PRIMCOORD
 96 1
Ni 6.3475851253616185 2.049840364599281 11.411675050551402 0.3106378557330844 -0.22151622107406366 0.6059817614215758
Ni 4.5842616801739755 0.40867311180526883 5.832693595717359 -0.7536677267780504 -0.248981516373868 0.47473645811962756
Ni 2.6296470125992695 1.656484638028065 4.719841580355849 -0.6110923431752637 -0.44836902386969235 0.44208524774350955
Ni 3.4134777642385403 4.312906822905937 4.779608460696053 -0.14651097121176704 -0.273771064613722 0.11617452501175476
Ni 4.973680147010462 4.796377033176371 2.693053149070427 0.11930252911777518 -0.8402532252787787 -1.0444900904471042
Ni 7.341779330029574 6.055288742119186 2.4850457305940146 -0.14060746124313847 0.37806503613780695 0.19761087521137582
Ni 5.17625035427981 4.450792187331564 11.811830677536038 -0.45423139618774033 -0.8493904116933566 -1.1958735592598242
Ni 5.489966875345125 7.891893982598856 12.264575813216009 0.6805771774399634 -0.3739479286456398 1.3211497894625313
Ni 1.7947312189431168 6.519370657319749 0.33643703825012583 0.4160872810178512 -0.7170323349432037 0.27669698001126536
Ni 2.8869324876042173 1.5632004796341472 0.5014000937642491 -0.5152889256206933 -0.6397729989394079 0.15545686755114516
Ni 0.47696921650201235 0.035366706479568195 4.6171332837528425 -0.23646384352283145 0.06854406761798518 0.40664156222391906
Ni 8.36059043845182 2.3925445089409245 1.383124126202496 0.5790407140563575 0.022119457606858677 0.45224393344406627
Ni 6.67333918593701 0.6482725244467618 4.770039835891194 0.7508019751944811 0.42255694790259485 -0.6444297809851289
Ni 0.6322417366460956 7.304646274916719 2.401422307209759 -0.20187427847342007 0.5925927417091794 0.3469415752601251
Ni 7.644578082702028 3.974275394482557 3.785313115411059 -0.2007278235738027 -0.806404909270766 0.246060228962015
Ni 7.56893031940427 3.8236752096291817 12.663819368564846 0.5195569568684278 0.24531075239050013 -0.4820191078239699
Ni 7.782454416715421 8.863584399975656 6.847541256209393 1.1158451451513236 -1.3911717271776234 -0.094354858033502
Ni 6.868405120638561 0.6272334700202227 0.38426210144995043 0.02695827375639873 -0.5663024405540827 -0.6620806612976726
Ni 2.0205637681314124 6.2742762388328845 9.152691241616468 0.6789452982634953 1.1469094706562957 -0.9030783881351157
Ni 0.13105927581672486 4.8603936255146545 1.324348785125763 -0.41106951608828557 -0.2256641818041662 -0.6398894699126141
Ni 6.602044081336818 1.8673718549664153 6.98253869480207 -1.3601125438789738 1.540230918732541 -0.3991552811492029
Ni 3.5600232939981242 4.187727248495822 0.654538727497056 -0.1989491344068251 0.623649611014984 -0.7080208754732129
Ni 5.97602881392718 5.424532508285849 4.710735312657454 -0.18824048974006935 1.2137452973339224 1.4582047574677208
Ni 5.25389383868164 2.851677758236371 9.336433039374556 0.4197436468235158 -0.5322353236670447 0.12975534901998298
P 0.23180165167603822 5.595902641281143 12.295728026305214 -0.21164164227282906 -0.6785326362061088 0.22075543164863917
P 4.035763471394869 6.039846737196282 12.782428415032328 -1.205336504444937 0.7973574543565172 -0.5581954951762322
P 2.2510740708577575 8.44987412422536 1.4139991056360688 0.41914329423535557 1.0979204423521027 0.6747950235405475
P 6.355893104618385 7.68429383571427 5.571011212994889 0.5634292327713458 -0.5348110548140209 1.556814019902203
P 4.705016352588639 0.7996728038242127 12.675027013190471 -0.1099218592338236 1.5561576172651264 -0.39907557695120305
P 4.020068614929368 6.170643228016949 8.03460610236442 0.18690608719936197 0.26043320985423535 0.674408072514774
P 4.533357246401805 1.2315856815178403 3.79704994219369 0.6124167184136421 -0.2727940454124334 -0.3077641337297151
P 0.17803638330762508 5.504984450892955 3.5238691355716103 1.1019313632837087 -0.17289974561794091 0.37904076978751494
Ni 1.3910447007743554 1.1612297397901528 2.591890859042157 -0.4194988778025614 -0.3547320178388213 -0.8312034563716845
Ni 1.8240800587088701 6.298251983318446 4.843631374322904 0.5604524095312089 0.8197162816676916 -0.379196835749405
Ni 5.9431942350384785 5.707681083933602 9.25541308383783 -0.3417294349315663 0.12758456662090928 0.19889719812296713
Ni 8.604131626034158 2.2671120829882128 10.312938472555386 0.08357293692664962 0.6216894019648196 -0.33237730429270496
Ni 2.353009364173396 5.099816945117553 7.027357533768658 0.4414247313413753 0.04278907014106824 -0.5623910213148186
Ni 0.6963206388288061 9.053710699184323 9.223190766898702 0.37518128683210866 0.3133693957316345 -0.6037217617428055
Ni 1.4319253769649911 1.0361043478534515 11.364185918686742 0.715003220328317 -0.2901101680933778 0.032805990786427375
Ni 3.937747376989488 7.178202442793618 1.688064892657239 1.0901443979511096 -1.280734361759962 -0.9061698825762459
Ni 5.676589374606374 7.841251430781519 7.928950279207707 -0.798460971833341 0.521540820067676 0.09533084879352614
Ni 5.44768648525797 2.98688109022802 4.830388274779373 -0.42770558198306985 0.023624067176843188 0.7329034976475054
Ni 0.8047189981814752 7.234479971845979 6.835725864840311 -0.1559132383622734 0.5536281875205239 0.7846798588888486
Ni 5.1307551374367755 4.3311934076830605 7.467388752062104 1.0415870578676965 0.7804866467431074 -1.5299333934612749
Ni 8.089262672420489 7.427676611214757 9.136012070217284 0.3200529783993972 -0.9923375768132651 -0.6736645094805301
Ni 4.815160290626452 0.49204548972937395 10.372718898513943 -1.08061948917981 -1.079012035483374 -0.02858963871223463
Ni 8.386841846820758 6.933695001102068 4.892784811162588 -1.1661454360677723 0.5116333311459769 -0.17034458329625501
Ni 7.170020889308149 6.1130291979537175 7.107822118952894 0.4920674931989074 -0.3356616314709316 -0.8377093758110025
Ni 2.314079257025653 5.275079185786398 2.5825200002652586 -0.14287157468696685 -0.06029699711784454 -0.12058242427146332
Ni 2.2920089295218067 5.221610114939312 11.4557660382918 0.7874443090078632 -1.2421050794235382 0.1466384979285668
Ni 0.917101575412498 3.35194453526505 3.525230018695517 0.4783953950284535 0.12727989089629693 0.5186627271889325
Ni 3.419085650236858 2.784229609248552 2.7122969575445253 0.4372688001914727 0.4363210915662228 -0.43115034599856067
Ni 0.9894893598931994 3.301094283966294 8.206716729163034 0.18769824408335414 0.40840379633066437 0.21036097578819254
Ni 3.751711854523554 2.6834411782868366 6.8356463972126384 -0.8793715314364791 -0.7501861959873531 -0.004609473747553352
Ni 4.251834144956463 7.02177764204827 5.976599535980472 -0.5468584728968582 -0.5668652550360882 -0.39638260350007215
Ni 1.029801120112991 7.23295383217816 10.9458439445008 -0.9275869147994412 1.0418739929804959 1.2849676831150192
P 0.21970902665132427 5.540835187468352 8.116841551388061 -0.2966214868493343 0.7104379695551377 -0.5871404603453565
P 8.55769724631862 1.5179852055704155 8.00369138911701 0.23013147354690044 0.7291298895376862 0.6885887348905303
P 1.8600752818800372 3.1357474359321573 10.363889864471181 -0.5199966155090078 0.4562347997710143 0.39480857414473297
P 3.87903163663351 6.267304760586988 3.8742102995409144 -0.12962936496507999 -0.15630018938804696 -0.3576515054784615
P 6.925414113082007 4.03951109247265 10.419176757301296 -0.3533027415914625 -0.4619804440055399 0.208658391274789
P 6.329695878722862 7.712477752301629 10.279935927999103 -0.9113591400866693 1.174874331300338 -1.3721789881252047
P 2.3395540499423273 8.571080317251802 5.659776553106105 -0.624447424325931 -0.13889382098614142 0.4685784089380317
P 6.816091942557635 4.1214620835108695 1.5411590494494543 0.03770522786025764 -1.1024013609415917 0.5008061586234859
Ni 5.314289235713444 2.636212122294563 0.5274817303831564 0.4768234225556433 0.45662663589279423 -0.12700246886519417
Ni 1.46670149448435 1.2410676143652377 7.0286263066877614 0.19387814764182096 -0.3699681180622854 -0.829662594247126
Ni 6.826802011469075 0.7774941113735387 9.111732000839382 0.382103982093871 -0.7642822690691031 0.8867346566697695
Ni 2.895141132326393 1.713665208303988 9.09718039456291 0.35115741311368553 -0.9955581406330918 0.05736491107271411
Ni 6.279857033594495 2.138573195226448 2.787170814513692 0.7581671573103006 0.7636132680265365 -0.7390453488791853
Ni 4.079181693423712 6.822476444008215 10.588393136978393 -0.10891218702238663 -0.058721939321240806 -0.5552492680637147
Ni 8.24932672929679 7.186040840614133 0.045888039775284904 -1.22076260919202 -0.5414262461376934 1.2891794072035219
Ni 7.617306237750467 3.8708500831480417 8.320012281071078 -0.06630540809545354 -0.13542668837314742 -0.0805799157365967
Ni 2.9953516169050283 8.269600004765747 12.508573036616246 0.6398102799352465 0.32948969833226477 -0.5445676199801525
Ni 0.17665653631802292 4.900723446558918 10.155221419819123 -0.6327158349823103 -0.9181404246745608 0.7360093902663388
Ni 8.675435761046586 2.397782148037582 5.85736919715118 -0.05489073850060869 0.09982539422977 -0.7049823457572053
Ni 3.648918672045532 2.562975479063714 11.587472794665818 -0.0019674081390159666 0.027554512579500933 -0.5111983004910874
Ni 1.010286399271824 3.0806619212948965 12.610766599721824 -0.15986990901717626 0.8723719601901944 -1.3979388706981282
Ni 2.8672552193428094 8.518135010314385 7.765906186293654 1.3614052945484683 -0.7667667260538537 0.9241339232538341
Ni 5.7389804927422485 7.592842851004182 3.5140756535020836 -1.4867913108561621 0.3813038547900788 0.44267891546345045
Ni 3.042698068256365 8.410998199551031 3.5772524175024563 0.23743366363526852 0.1518825199363255 0.3427699603809387
Ni 3.3933670361898227 4.307605970923631 9.145052415906362 -0.03914838806468742 -0.43528185166843103 1.0776395806158796
Ni 7.0851621055300615 6.099023028576275 11.382887902426704 1.2978825914044745 -1.0253880795103307 0.15881267139725552
Ni 0.5376048224992824 -0.06238931205342681 0.31987165004511103 0.0951470149174942 0.7784107380506852 0.019226195219463664
Ni 4.973914937728589 0.4922116493145093 1.7642869901731832 -1.24698760432682 -0.9726298139716927 0.2808652524563421
Ni 6.096873790464199 5.728956735160715 0.30775644898980803 -0.41916591994317487 1.3013556375547395 1.2744521282956762
Ni 8.034574495921595 8.663921985446176 11.390567364991874 -0.06270972032439523 0.6312924722722225 -0.48434132819924336
Ni 0.12831673962076814 4.831080907397844 6.018734536430634 -0.8523086137814161 -0.2623188569127224 -0.6082353333424428
Ni 7.7486445533052715 8.845749335810313 2.5542358461020838 1.0095092034965452 0.4513386480209775 0.6156545086246493
P 8.335955473873058 1.703189930110673 3.6868337608579913 0.3091748980343127 0.09614665982660216 -0.5505302653214905
P 1.684966558219199 3.3150914229314994 1.3342352804413158 0.7113712800026846 -0.677407264352414 2.0830992966333994
P 4.83557805269118 0.9613957474281967 7.962996739418429 -0.38572049580053575 0.7782019644739888 0.9610004572628805
P 8.486347959245014 1.5110859706224047 12.490888780335238 -0.4440133180041579 0.7833045758078767 -0.8895315026886165
P 6.311463476419152 7.720966339803108 1.4582490286318128 0.21520724813690031 -0.45731003511306395 -1.8231178296046022
P 1.7222531303400592 3.2857154919290394 5.855215443832986 0.5315691508379554 -0.19662485714902267 0.487642110437702
P 6.946644612247941 4.02420454373328 6.1195934046077864 -0.028782214339014945 -0.28629542233297794 -0.16830261316556175
P 2.680127016996366 8.564722907037929 10.134497526779604 -0.47118782153642075 0.20008633333506187 0.13820682222144584
