# total energy = -340874.9164813603 ev
CRYSTAL
PRIMVEC
9.21093465629438 0.00000000000000 0.00000000000000
0.00000000000000 9.21093465629438 0.00000000000000
0.00000000000000 0.00000000000000 13.48113392502839
PRIMCOORD
 96 1
Ni 8.870682762666721 2.656728314540618 9.530662812896242 -0.8677506593680991 -1.2212562609989872 -2.0973313810723813
Ni 7.455708186505216 3.66919425567858 -0.03523182518970802 1.2062150503951483 0.711106456377072 -1.91646481519888
Ni 8.291020220748106 6.920912107462174 13.175584413479418 -0.15861212535067523 -0.6505981145793698 0.4360971484808748
Ni 1.8789477783722168 6.3156892217784755 8.943815741919334 -0.4335088189284082 -0.4579633524263467 1.3716678528167408
Ni 8.974720269991623 5.225814585504747 1.3773138274940124 -0.4567911864951165 -0.05934028963153006 0.268334466979183
Ni 1.074142359823004 7.5677960507492825 12.003183486756095 -0.14908773080000776 -1.3274520775314753 -0.3289613366326205
Ni 0.694993576267074 3.6843462432438274 3.083432232808167 0.6653379918927057 -0.8719598123534402 -0.09058536368874077
Ni 6.437098551928943 5.95062303627027 9.423016461359753 0.9967614169125737 -0.195905719594811 0.16542991960345704
Ni 0.514603868015362 7.931259533621408 7.965880673841162 -0.13141705299312206 1.0159696144099082 -1.361495026048797
Ni 7.394335728664948 -0.1807203808070874 2.007354655606769 0.0804755289482485 0.21869289269265563 -0.7101698034954156
Ni 3.203185436901352 8.255696286211496 11.482434083115486 1.274181648243109 0.24796181686010202 -0.19614637485070738
Ni 7.058219510887789 2.745401982802401 6.923560251185584 0.6861441300047796 0.8988188415278134 0.5043090295704218
Ni 8.289951752324052 7.571323838735599 5.223561590879543 1.9177727353770262 1.4052441461102894 1.7455317063890068
Ni 5.004540301444 3.315918066573728 8.376866132060021 -0.17188236009702013 -0.31838536088898717 -0.2434700996373355
Ni 3.9008032084616415 3.6390008117643675 13.129910151631522 0.9693007495984596 0.22008308817196293 1.188861132497733
Ni 3.0163324157775833 8.912058281294739 1.459643003941241 1.0435130712458158 -1.601376637003926 -0.9712522168978759
Ni 6.280844255845753 6.028050153275417 12.200601449969431 0.4567549339405424 -1.1143042830267649 -0.509721973055877
Ni 2.6179318576258335 6.451734727151544 2.4157656575797404 0.09770809077645108 0.3603725039540503 -0.615383771461766
Ni 1.1295737647881448 0.35659304668676484 5.9263872249136265 -0.40356806550491786 1.4675219211035886 0.7798613544542827
Ni 0.4521564940967571 4.496170394026912 7.6702796733919625 -0.45869791659952613 0.589490448634772 0.973468250712588
Ni 3.710873735151372 8.813261795808515 5.943710229785335 0.09188505633677078 -0.7546594012673583 1.0599133669807101
Ni 0.40165846575164466 0.16498534107595586 10.049983600566414 -0.6989284262536415 0.036478297431692015 1.13202612578656
Ni 7.340488604466508 8.100998638090935 8.785682415159359 -0.4663073535156678 1.53913382901362 1.516095716247234
Ni 8.879129189777561 1.6220087551913265 4.04423219908231 -0.8683998629163238 -0.40050716719140705 -0.2213221027853866
P 7.051329731739579 1.2074245847890368 5.107665005141112 0.03961247218529952 0.387604600197126 0.6403666666593488
P 2.87457613089664 7.3471665321168445 7.458396858341262 0.36597468063217614 0.5810613440308121 -0.31710366596308615
P 5.092025759130758 7.074016263881344 10.625169628225633 -0.8752917049401506 0.48279300987551693 0.6907163227564943
P -0.11745783916840698 8.725721072513617 3.4355183691510565 0.2853945077852634 -0.8035095900008421 0.21335245431634867
P 5.069523445682795 0.4589302154678712 1.2764679090392363 0.585441732486695 0.5076113544707774 0.8893682376378748
P 4.110904628743273 1.0121159256197376 8.710281703786038 1.0936097307918906 1.5605554892225058 -0.030319991139780036
P 9.033301814620785 7.116672102431289 10.020971919572945 0.6552302140347426 -0.40670866801642863 -0.4079188862744459
P 2.6759699571082782 7.170777132801051 13.599632819275806 -1.9477713386216455 1.2368816262410698 -0.6593910302806514
Ni 2.0949257749861445 2.311189310575466 9.4508279575631 -0.04484980932483889 -0.6891798315073099 -0.5785059245988102
Ni 6.679290868670953 3.4118775841753957 4.7045116046892606 -0.5592532470167852 -0.23388502705206168 -1.1781864263927064
Ni 5.309063013234049 7.55900881905491 2.356299863220327 -0.4702377989183256 0.39080176697818503 -0.05856998712440881
Ni 2.7402070156371736 5.77912464327493 11.669161835527467 0.781755743263518 1.1620170157216956 -0.7243036717936364
Ni 2.2984505878990307 3.4986169561522527 11.610721218199066 -0.6977184651059404 -1.7982948570236514 0.0715280899469736
Ni 1.8119105956975252 7.964787335893444 4.542616532201841 -0.18183381488277717 -1.0034928220991362 -1.3939158655816637
Ni 4.204340350239847 1.089294347388251 12.773657909528293 -1.8879039728420517 0.1382502738648716 -0.04065094075214289
Ni 7.834194703856926 6.782886251130729 3.204020868677746 0.15466522488778525 0.43793574435151034 -3.304456601986625
Ni 8.798155862916717 9.107634057570051 12.507877310138356 -1.929187404971871 1.4003215119976917 -0.8470509649269026
Ni 6.405164241358299 6.18986785391144 4.85525776182776 -0.8222876419392936 -1.5582512665693615 0.42448398972197865
Ni 3.413710560178729 2.196052626948969 1.5910839630627185 -0.5213256187330764 0.08287513952867663 0.4423271885509866
Ni 1.010448746440826 5.725001191035786 4.020384168076121 -1.2837345820388666 0.8462109855241104 0.47449785974626024
Ni 5.905065753292938 1.4240197140272024 3.2615173652004117 1.1861049099088348 -0.5496123814929116 -1.3250480960756728
Ni 7.588935145863108 4.242630205746676 10.787697491926266 -0.7079987639860258 -0.07464555253003273 1.8091719089474714
Ni 4.424122462880795 2.3241583066191547 10.622203707255414 -1.206372401908619 -0.9984146362452806 -1.0283181086729323
Ni 4.237812886903743 5.725434104966222 8.646367949064766 -0.1911098408680644 0.3052848189512871 0.015329174157902631
Ni 4.790155796531463 4.571700058485893 10.982257302105257 0.04265434433541686 1.739971695802726 -0.8453617501499376
Ni 0.6124378108264689 7.94676153670488 1.4843540995278939 0.14070207783947383 -0.7754416281200323 -0.4665377243589191
Ni 4.498602080785103 3.0674899470465085 3.756545233718862 -1.7726740711317532 0.510673795446185 -0.7853686574257571
Ni 4.823462536370936 8.140495126042168 8.275151622463968 0.3320674863617701 -0.06336175208609733 -0.22261793877867467
Ni 8.032248221563881 6.477120063157514 7.460958419278585 -0.3263575804611863 -1.267265637849566 -0.3769306654230476
Ni 7.863457843367438 2.747796825821832 2.105025564873861 0.1717437776366268 -0.37334731894716344 0.5906489877192473
Ni 4.355408890092502 6.040927039972203 13.912934472919009 0.7378518427917163 -1.3602940637621603 0.2623335122007417
Ni 0.7912736343959577 4.705737580096515 10.298022097556242 -1.500357736686687 0.6595854056796447 0.4856153098156604
P 0.6379963124046131 6.275640077745835 6.114732417457195 0.34867424168051564 -0.343666246942963 0.6626262493884975
P 8.745644324248346 1.1789627965965668 0.688681322723935 -1.2473087351116647 -0.095374557547268 0.829280785427675
P 7.368222728818458 4.017008360512192 8.67748248644799 -0.12093929339024978 0.38476867341022764 -0.8456538274690597
P 3.505009344827196 4.492430754542722 1.8489376320583375 0.808182569996479 -1.2608165397901125 0.33273134519801406
P 1.7692916008863413 2.09302832243998 4.329088644215484 1.565088344095853 -0.07187287488090202 -0.05260297090769651
P 2.861662400461092 4.346354541292113 9.652128329748322 0.7026074177671254 0.5109985257754555 -0.40773453817778166
P 7.926617222537589 4.691727748432843 3.5700468335806623 1.7368938282083508 -0.24006467350021235 -0.49543383856797907
P 7.477298617418857 0.8149411310822204 10.489440979005906 0.7335285328260142 0.20539154759805917 0.0941586828622959
Ni 1.9029330523052885 4.8936867024484085 0.15770133392300917 -0.1867345946185042 1.007782964834058 0.9256966397552637
Ni 1.3100988737798016 0.9075110247179239 2.265881643928236 -0.8422761692460785 1.584463663298671 1.6977402979373406
Ni 3.8223813105099618 0.39806251684862193 3.589918504081127 -0.9733011290071044 0.8292350197914041 0.4130266398146565
Ni 4.150115577719113 6.202265772004341 6.100078741458684 -0.2542067693285493 0.6971173411868317 0.7022379502428486
Ni 7.809638351973067 0.560680647709217 7.078512121103591 1.9756379831249264 -1.4816375345693644 -1.3750619660999543
Ni 1.6040750653496634 0.8959973563552742 13.36519610954288 0.9425476498743316 -0.8158521707265949 -0.9878152634628795
Ni 6.386558153284256 1.109355763143332 13.025431440534962 3.291076066914661 -0.0784664689380197 -0.2595415512779014
Ni 9.249620615818246 2.422779784346267 11.708351599353522 0.046533881895481154 -0.46196938826194633 1.3038712048877414
Ni 5.390515308698778 0.13052262893287284 10.518250019436191 0.19844057020152275 -1.062442818270783 0.34934504249529513
Ni 3.171030063898144 1.6563102759773325 6.812461641327235 -2.3253985158910853 1.0587825958103767 1.607201471215819
Ni 6.1448263832767545 8.482266857719061 4.544180548912222 -0.8468684166024512 1.4468093711465857 -1.1950286947610258
Ni 0.5768458380903771 2.901536536734621 5.977938984187289 0.09695835709462011 -0.5814575510279664 0.6502294183860414
Ni 0.7457863545222704 2.8873056426383856 0.6293914572171032 -0.022307662358264806 1.542756256257556 0.5018875646131228
Ni 8.2183091023043 4.746799926945069 5.818120056379021 0.8602648925140153 0.20650457815657985 -0.7490690516637745
Ni 6.190549463078509 4.777389441050958 2.2211653192881116 0.016761021508422746 1.0985997278073145 0.5437291832392571
Ni 6.139355088070824 5.076450068569765 7.041142437972307 0.3117010068902761 0.2462258080056018 0.7767739737782107
Ni 4.395071174868157 5.4119583646573775 3.84361988371844 -0.6928444248430907 0.36894199079061624 -0.9533460260414163
Ni 2.3630100291420795 -0.12623770211502913 8.850567002396968 0.8279515250932902 -0.5302923410080609 -0.36205323409058293
Ni 5.732618634024515 2.89225191456698 1.1258028081260096 -2.120364608742761 -1.5844240683099875 0.17948922591000055
Ni 2.78916313351516 4.225359703202701 7.320808521407598 0.3867026572081469 -0.34359785559887274 0.7424500036853601
Ni 2.5344255237252082 4.157954083140405 5.018703034623528 -0.015481383465050758 -0.6501841669704028 -0.7812512928232739
Ni 6.278080975438717 1.1769640237688108 8.509911636004517 -0.9670988568511344 0.4525982314596915 1.6672447004516446
Ni 5.420902182241483 8.132886893988129 12.779845815453115 -0.3864864274322828 -0.27313368814003924 0.4621737909632686
Ni 5.055614934300714 1.8976920304666103 5.8138599990848405 0.9803791188998083 -0.7105169024221892 -0.7220282454958984
P 4.7379942733813145 4.049891397355919 5.855921732347273 -1.1719736127137752 -0.3911254688661909 -0.5483309436773267
P 0.505764133993254 1.2068811396423198 8.01049015163888 0.8429364285378967 -0.07349421253440891 -0.8353647868382259
P 4.026725896610269 7.559699639156668 4.260294936295387 -0.329612082842742 -1.2534683269551574 -1.148615654714125
P 5.7556367598151255 3.0216194922897115 12.115899536746028 1.1498045328159037 0.537518683553171 1.2828784046861583
P 6.493626058122209 6.476604250814867 0.8792518770886365 0.9594397976439799 0.48066182246512706 -0.3503341458814418
P 2.4627644518360765 1.140055808465501 11.403340708024896 -0.5207604902582257 0.39588406659709885 -0.9993770001585499
P -0.08056436136060136 4.899821184952029 12.446470771839735 -0.0027276833438082053 -0.3271188841072431 0.5142278313460305
P 6.2966778525780684 7.67142827694782 6.4694611709626795 0.3769378645118992 -0.6359608242821693 2.531169301205434
