# total energy = -340865.7594408861 ev
CRYSTAL
PRIMVEC
9.29385804374571 0.00000000000000 0.00000000000000

0.00000000000000 9.29385804374571 0.00000000000000

0.00000000000000 0.00000000000000 13.60250068459036

PRIMCOORD
 96 1
Ni 6.728632239373146 4.689429720308827 0.4867286277353199 2.856916758886448 2.0383695578261927 1.5567235170709255
Ni 8.773132257393168 6.251541342194079 3.1072870466705442 -1.9765332412456864 -0.5435258089791993 -1.0633992686467815
Ni 0.18582604012246953 2.80151261879001 11.62254727814368 -0.4278521348632632 -0.5066014251490244 0.466835458104996
Ni 3.472464096174363 2.4347955770459104 2.2113582237237295 -1.2078536144398357 -0.9243079869378533 -0.7806748514945135
Ni 5.9611175792699225 2.617940339188169 6.040897913542813 0.8559917190599581 -0.27799281600455344 0.5316874215833746
Ni 1.3948407688944697 8.839862156519395 10.962635974460168 -0.9421203325289258 -0.03389459586491582 0.3775824400744336
Ni 1.9848148631191 4.063730036635559 10.67739167849744 0.08712337328206932 -0.5180988842656625 0.34351326630486645
Ni 6.912780738159643 1.436244905469308 7.967637317934899 -0.17524613436293043 1.921689553932929 1.6436021213320402
Ni 0.05436256252911357 0.7348895016223456 7.379342623817805 0.9712663579652626 -0.8238876394365616 0.6790735963112434
Ni 2.58096937279205 3.3759752643180287 12.995393203128382 0.3554876650579233 -1.059245394379408 0.0944312197973922
Ni 3.9267571601282723 8.929194717856621 6.408396568729325 -0.33207828499504743 0.2280563361854266 -0.8381246089715501
Ni 0.8601205181636057 4.867184044917212 12.92763912087072 -0.9107042801114897 1.2933597638334562 0.2825822351474488
Ni 7.560794974451582 6.881107270719228 7.630377158541854 -1.1168581597968699 1.3733043599788994 2.470746834253319
Ni 1.040196448454683 7.165043920887102 4.381705441058282 4.122196733764552 -1.0703155361506407 0.26926314944103946
Ni 6.214300853921267 -0.23311690623861023 4.848176246909835 0.28821680772540686 1.1403179334817068 1.2473226190687356
Ni 5.410911902644335 6.373114296298559 1.2782595458235129 -0.9883652224290786 0.5188920695909193 0.3428028705014032
Ni 9.064178708791067 3.921840709343067 9.592686944957032 -1.0600082406873617 0.0614125987795265 -0.4387155599403283
Ni 2.5894453711211756 0.8681169534293725 8.53411375144075 1.4153069296629301 -1.2337237973383783 -2.8116527448423256
Ni 3.29301828944328 5.422650045067235 9.44320918275694 0.6944472505538363 -0.9333225317316378 -0.5413627398896096
Ni 1.7901921865728179 0.6644755172574511 5.499123624728828 0.3347681731223847 -0.6631425269032838 -0.25633410008419727
Ni 2.992101761043704 6.122338130821823 0.2526228550249784 0.15131276347578454 -0.9622209599335428 -1.6601469130645992
Ni 5.124029099548464 8.683307121591639 2.720663490868162 -0.6328526176704907 -0.2865851856592549 -0.8467102937580322
Ni 8.943786074629347 8.73684903647551 4.481575378388449 -1.6723830501194747 1.032162422119687 0.5462653193975495
Ni 8.088165642420744 1.469516916454251 5.398342889332592 -1.3259245851433552 0.6119351507915333 0.40166210673145664
P 6.610079789059198 1.3780374739612917 3.3817039982764414 -0.6737339292658849 -0.041601477590870295 -0.2944507044502606
P 4.499677025258665 8.825029159443426 10.85110875127011 1.1971678525912157 1.3355124859421064 0.8293113815552943
P 4.578386707111034 3.8310861877598357 5.173683393707473 -1.4886003390404428 0.6151477441915599 -1.6303776522219664
P 7.141939390353983 7.230621381644018 4.664637425196135 0.06018798234380602 -1.5009130949695249 -1.0417019861790058
P 0.36489172806883646 7.980273247022923 1.6834866168182299 -0.8610071699966784 0.10525504988577357 0.0009289395721725937
P 6.54822916528691 1.2539644721040326 12.651005584175463 1.3683313322443402 -2.4051793327651545 0.8376201585313059
P 1.8024972543225568 1.3435014983132338 12.45412264140808 -1.3410275022230649 -0.3909303221362493 -0.08599208789110352
P 6.104475336097504 6.362537886102786 12.83711508696135 0.6525634658358567 1.0306056191555282 -0.6766199925644283
Ni 7.93413853681922 4.896933683789503 11.766081618269785 0.10249214242865574 1.1914939421348898 -0.514496768736701
Ni 6.6313441357445475 8.551315752874277 11.829795660534387 -1.5560038652960815 -0.11639204033919955 -0.5730281893136906
Ni 5.199262878577266 3.914452092378533 2.7861322134886186 -2.212674411321776 -0.1520162173007124 -0.17042660148710004
Ni 2.3713557035869104 7.112366334780215 7.164396138997256 3.4820704652507835 0.7241740881943076 0.9584848899298785
Ni 6.565060341793538 3.2607686028182097 12.55422399579789 -0.685313149463052 -1.1222973285345705 -3.0944617512885992
Ni 3.089612917259911 4.858373467706674 6.710099357500221 1.304524007980392 -1.4748814467924534 1.3910827670082428
Ni 0.9772584433178022 6.133788163652396 9.501400814706667 0.45493870666741004 1.2964283754564512 0.3228655081475278
Ni 5.540310285030748 1.6963892796256033 10.556615208007878 1.3521575506979553 -0.5683307838380213 -0.26225792176779994
Ni 5.701549424298283 6.3938767746617895 9.754502303409222 0.7760532935621021 1.9703019156239936 -0.4852034190892225
Ni 8.551036937139767 7.3986822125492475 11.581821593189483 1.0963381854666474 -1.2008879817552804 -0.26694787104430157
Ni 8.905123626110532 0.5867612075772853 12.636382628286158 -0.12365797787299349 -0.9503152096348925 -0.1547251315914432
Ni 9.68001760932047 6.851339044131303 6.645556303118339 -2.1259446739337 0.4394588658642561 -0.44261360944315387
Ni 3.1043901511889778 1.4449346625282247 10.648432017539594 -0.2840842736142721 0.1804248503503925 0.709728859303255
Ni 6.16465306546273 4.783929666592318 7.786737951841233 0.24704881812752935 -0.2856811857877467 -0.6067788034015744
Ni 8.688204984661212 3.6403111683498013 4.146898911468536 1.2977686915344293 -0.23338186216339804 0.7955929062569267
Ni 3.0420748345258373 5.345929248787709 4.591660194845306 0.6249410761328978 1.6695882609831567 -1.2804677383621368
Ni 4.145618217861351 1.1299379395358589 12.790553788683848 0.02857112676947338 0.5382069678694473 0.7765430887143271
Ni 1.5025194055625002 0.723311213553898 1.034077372467955 -0.5170262200267741 1.3155794944636052 -5.337768542784253
Ni 8.418989805275501 6.6133698147264255 0.5183119447549097 0.0900361760534901 -0.5932188053289525 -0.3250710004392789
Ni 1.772143514692159 -0.1202337091930469 2.8379984458080796 0.6875358681459837 -1.3030379103531688 4.328471198188197
Ni 8.370401516608105 0.9873051036180042 2.027561962148498 0.2842629652839814 -0.12874259148475248 0.233429684682198
Ni 6.828448272327975 4.868884820897726 3.772313689696545 0.9560567401043599 1.2421922398207057 1.5156989950294477
Ni 8.519753811727666 2.6181540979179605 0.28790791561308854 -0.19646364898081004 0.3519462275635681 -1.232445701956903
Ni 7.848356229168096 5.572671497949623 5.847497379299469 0.012432312226081816 -0.9359671684433364 -1.1553447459078425
P 9.03934552070398 4.425028759272335 1.4579163231270427 -0.5701408404635665 2.033537683655188 -0.938831634475325
P 4.747200340499443 1.081442589446632 7.767082371944011 0.5301056789185515 -0.655883017127393 -0.030951196965875727
P 3.2579990331887365 4.505857440706985 1.597627170147225 -0.5542714775314777 -0.44015512060033224 0.7570194168591027
P 2.1001237570549063 6.485421274159467 11.542782743429077 0.6664098848006458 -1.2559892936047983 -0.8301094519765575
P 7.801078374452899 2.049871867838262 10.039665742808943 0.7784145947054271 -0.21133876632042956 0.26161643152905917
P 4.212757046731526 3.2638541636134613 11.379457133081623 -0.17140722023281446 0.7333840368283499 0.2594276514078564
P 8.027606864885023 3.7130634873414583 6.909893136535894 -0.6156735347880429 -1.2993604615015815 0.3123216711934105
P 3.609297564814395 9.160648952931766 1.246836083158376 0.2986660280831889 0.7619374229860103 -0.8505106413407288
Ni 5.1974784578763975 6.342416683928932 3.6935547503977455 -0.199370795325276 1.1229154217345436 0.4205466023407854
Ni 5.539167140519254 8.629551447977978 8.775625799445477 0.23091283179761524 0.016529879334223146 -0.056077045499226
Ni 3.5200486481975215 2.193926664002121 6.475157137586347 -1.441948957730491 0.7326327604846222 -1.7817521221736219
Ni 7.930885686583261 8.905448911134126 9.761317489346444 0.45540073390549307 0.9015490959747828 -0.7968686876455567
Ni 4.785574679425931 3.7294392648150536 0.3263835575897827 -1.7087155660019215 -0.33452340410143033 -0.47359128877159085
Ni 4.453793249216021 3.045941079377719 8.43379492077802 -0.5910197407951047 0.8220562426547777 1.446020042476071
Ni 7.551519704350194 8.210166113984808 2.5838764915172154 -0.14938289344292338 -1.0218600117524144 1.218320832519747
Ni 5.178900036100169 6.996983089981873 6.019269247631037 0.353393758643372 -0.6356067833768602 0.43732690712291783
Ni 1.9650932968313768 3.3077211725098103 4.317501612486722 0.6369661256182321 -1.7348701129101023 -0.024105377688635903
Ni 6.584921315948518 8.397846278741774 0.6460848314091258 -0.4867432527725166 0.8080900102826728 -1.6092033321371966
Ni 7.360196347328955 3.2870237511513003 2.23460495028145 -0.32259297121243147 -1.6597059688724383 0.22105367961534833
Ni 4.341792968663076 1.186676941508785 4.10459512945701 -0.19308804764035778 0.7576441949272952 0.7909417806381605
Ni 3.255415340715604 6.614141204925238 2.4334461088908785 -0.3072491417665095 0.6030237072345164 0.2444489186108371
Ni 4.221911496681293 8.00320119425752 12.953497421475024 0.442905943872592 -0.6781148319423999 0.08605430858760664
Ni 3.106574207775978 7.7628806188249335 9.756066459679827 0.40220949459449445 -0.6949319034997387 -0.8231906133695371
Ni 5.753371975486004 1.6674946756724782 1.013565828265785 0.26609760722886433 -0.7198690330610507 1.2528672030360486
Ni 1.3779724169565728 5.071797618616793 2.78035143392643 0.9241650336020858 -0.6256704980997547 -0.6256679269965933
Ni 0.7841553125246036 2.7030999583655517 2.0997501439706623 1.0476741446020408 -0.33644016150816897 1.2605041507560162
Ni 0.9725650451202056 4.640432501897481 7.570349060287483 -0.9726719800635377 1.877273232601083 0.5400923578176182
Ni 5.769190121490578 4.244430514171941 10.10518836980474 0.5513671594004891 -2.1361954051274306 0.9967691302220575
Ni 0.6385735355214076 2.887099755426976 6.254334146468095 0.1762900022464125 -1.639910531413066 -0.3231336742072499
Ni 4.336421118844836 5.534483036179474 11.621064907821864 -0.4988618904129215 -0.043865076814066394 1.153885901974129
Ni 0.7552393326984994 1.4501671044792088 9.622299964119412 -1.7479567708907315 0.9810185522560202 0.6838183100850804
Ni 1.3933723393593802 7.61771985358085 13.108824737785149 -1.4377614020117044 1.315763071229321 1.308806951626462
P 2.028914218460875 2.986348863054967 8.305645632882213 0.09469707186426916 -0.3263822630515347 0.5923317747383089
P 1.272440661444275 8.311246111602753 8.693575905093669 -1.3097713724222604 0.9701528131861099 -0.5948758813164013
P 7.486035182171449 9.065795840051228 6.971172188052436 0.24029067346808938 -2.2289253259630004 -1.0667021077677694
P 0.7433301832917659 5.1156925090865935 5.128347025890252 0.5229341008707769 0.09295232125902056 0.3566341199575407
P 3.1251061602631225 7.956425207864442 4.085796443250517 1.193303998760435 0.6375909036864245 2.1976262587394024
P 4.410232937627634 6.162348188724108 7.879588238362202 1.06568729335001 1.20135155165526 -0.4508154285276559
P 8.162098281355165 6.010746780012826 9.740397015400326 -1.6490528600339665 0.2734846437215548 0.2791984062768804
P 0.4611686599669428 1.4909299648646723 4.056252198635983 0.6755912941895977 1.0515338846677633 -0.8867981629178534
