# total energy = -381168.15330210794 ev
CRYSTAL
PRIMVEC
9.32907795305954 0.00000000000000 0.00000000000000

0.00000000000000 9.32907795305954 0.00000000000000

0.00000000000000 0.00000000000000 13.65404858195113

PRIMCOORD
 96 1
Ni 2.775316664552828 5.710561708721944 5.495891233862674 0.6947460127411778 0.05828896554888026 0.7709954194232205
Ni 2.5678846211083806 1.2104851524664197 2.059671916584503 -0.04944077112963098 -1.4288103634660037 -0.47754975919870657
Ni 5.666388525645287 9.212650845165765 6.578629593268506 -0.6206249652560473 1.546841224960207 0.4234028408426579
Ni 9.34241831646382 1.1351901660647943 11.81684143809662 -0.8416156528439441 -1.683708502434623 -0.9113910217658692
Ni 1.0254428955866977 1.503698065686972 4.109923330471898 0.19321351747462853 0.18046393111844403 -0.76008520026862
Ni 2.532602049113467 6.162415588831313 10.597507655398267 0.0156850148354246 -0.3790451406628892 -0.4372865408032856
Ni 2.6763258207035348 5.789457719129395 8.246375759299674 -0.9773238770132523 -0.2876388237347498 -1.4649089089607739
Ni 4.478237185277181 4.932469980209052 3.132443089337937 -1.196834894731829 0.7246800812964487 0.6701618956439104
Ni 5.887301086417247 0.2438089162577119 4.002274169576471 -0.9725647650617122 0.597174704652907 -0.29082133522778947
Ni 5.522869993765396 3.4249190054174 11.267456714803533 -0.311141020621748 -0.8330664777223523 -0.6141684109974261
Ni 8.36502017121393 9.191697736572275 9.468522258935222 0.7741360219347313 0.41324569780399795 1.1526983094239307
Ni 5.53843089542788 4.790929212809045 13.193251701347581 0.4407228201783442 -0.6919545660389695 1.2774821733712514
Ni 7.983703447861181 0.14033171892551188 4.937604704594563 1.0719206758542312 0.22846488447775495 0.3552380109409624
Ni 3.5183963643251297 3.704819324709676 1.1719747195750914 0.18354745513977425 -1.0650568588548626 0.27732175807945786
Ni 6.069861808619377 2.537565118468648 8.504614892998353 0.548761603456842 -0.7754130888749421 0.38580637064612266
Ni 0.944391868222391 2.680635854617244 1.8279768077660814 0.008348886185327559 1.5762456462642531 0.6667027334507163
Ni 2.8743168374798564 7.558689324396278 12.40240898938608 -1.0308110502981152 -0.5189517191842611 -0.913820457142968
Ni 0.39365536156545866 9.007392476833642 2.634138798276724 0.9418120572598877 -0.8951347078080067 -0.08615998092753549
Ni 6.44112178617347 5.8105227766557075 1.5342097473280518 0.260246547764726 -1.2742176436873667 1.198186009443085
Ni 6.2858486163470975 7.434463325272992 13.531830986687135 -0.8366457104331785 -0.015671387988669783 -0.9275480911417057
Ni 7.881736628214327 7.891560147069601 11.77207026113713 0.5925120090699151 1.2346087710464932 0.9377790248410945
Ni 5.135536015273377 6.415354873468565 11.624018730385655 -2.5887126468375414 0.7178913405093895 -1.2730511341830915
Ni 7.095612563771341 5.493520715210135 11.604589060186344 2.234287361605862 -0.08009989077638463 0.1421768626127874
Ni 1.9470904722904216 7.146661277138915 4.02558193739035 -0.9362775005949037 0.4543116146063724 -1.6516581588672974
P 8.641020936012849 8.197796452808635 7.584932952973457 0.42681366629641976 -0.679874494945984 -0.634302719853456
Ni 8.068271537531697 3.579305912858919 10.779133604011323 0.03706168073898779 -0.9086890494536738 -1.6138022643617884
P 7.967321587357991 5.849453018045125 0.03932299556207289 0.09021281084067044 -0.2169615118238457 -0.3603262240971472
Ni 7.7811411829945625 4.945306791172828 3.8085101579220146 -0.3372433741357547 -0.3926534754749431 -0.43331444352941506
P 7.084734859131978 1.5342321371146166 10.238529408682702 0.11662935316098624 0.30397355633903134 0.46578002025728815
P 5.772833302605087 6.598428694946137 3.4005682467127145 0.3837983390771584 0.7712476446433428 0.8806012900785221
P 9.016833503501768 3.1341036651748206 4.521210648957078 -0.2893691761622952 0.13226114616097223 -0.41446722891592486
Ni 9.246860573221118 6.521407829163482 10.505110603692286 1.1293285243497388 0.8581997824548703 0.8679020973442988
Ni 6.352887368952981 0.8586352540483978 12.304427551747745 -0.019447824311966504 -0.5257754269743139 -0.553634358168111
Ni 6.374250956966822 6.9468697483596795 7.441374306059304 0.607283768062451 -0.04631122436171379 0.6886748668464333
Ni 2.7789736630250665 3.6936804058937254 10.683295988436562 -0.3253095988126462 -0.8201531120947939 0.09150479017921659
Ni 3.7185423980583057 3.876595633049798 6.501102158564823 0.3090913371815709 -0.6667395002259228 -0.034484921150747055
Ni 4.054137311430337 8.574495282682408 0.3096563456367964 0.5821162676578878 1.1445270864670483 0.781037377040255
Ni 8.24177372525285 2.7702882916535 12.903758291420095 -0.06367774066461936 0.8851369731653466 1.3860146084567162
Ni 0.942078256944036 3.971425708229147 7.134977540183223 -0.012833661429558541 1.7448850739439432 -1.2316054654437951
Ni 6.5001282028492575 2.289850117363165 5.827357097429061 -0.5759726166539952 -2.2709638910912893 -0.5107486145481784
Ni 0.7741436628153116 4.710372626564709 11.755439314258409 -0.5456608530443313 -0.5119212947000409 -1.2283663896812071
Ni 8.33928124574223 8.460400661979662 0.5267896970181848 0.2661503148436707 1.2796940934209058 0.6685971222599517
Ni 2.347242603590745 2.9082373641254153 8.420847238197526 1.5221681476935591 -0.9505903176731498 0.5861251317069648
Ni 3.581479587971244 8.77296208242323 9.798704441405231 -2.666906321730149 -1.6283487947173956 2.931960061075531
Ni 5.579553470085093 9.204973014189612 9.26457182730159 2.6292820836194717 1.031626604220875 -0.7935861602395429
Ni 0.6467177900288169 6.514149806685416 6.830465248009672 0.708862654648218 1.0006854345573282 -0.1752458772526143
Ni 4.8170599595456265 1.4929509681359039 2.134032129397051 -0.12533947934047449 0.5465681953499489 -0.309689375776886
Ni 4.351165817444628 4.231007296213934 8.903927407302499 0.4578800486839211 -0.21681187361985885 0.8759054272647496
Ni 0.7510775181147765 4.940847492015354 4.8914948049800575 -0.7347896589266248 0.24505955561164247 -0.6501880236251448
Ni 3.7705799936658226 8.284715470068447 5.151003626158509 0.15841389329694006 -0.3390439176796032 0.24478856133844293
Ni 3.437970385169088 9.03756271422961 7.639235648655104 -0.7844839408279586 -0.8308036498301047 -1.5782629338045981
Ni 0.013816364125982762 1.8568689615123126 6.306545175302866 1.427658766360064 -0.6026460121801234 -2.378279423050517
Ni 4.035217941783143 1.7429515932865358 9.71627550925942 0.48733229250676713 0.8728239601259483 -0.6262366550158699
Ni 3.6915067307814002 1.215532183521218 4.049449449868348 -0.6576437085722415 -0.3728878628122417 1.3826888865175928
Ni 5.97074035768179 4.4145009261895956 7.084990475861925 0.03622298688777632 1.726745426920439 -0.22620719879182977
Ni 6.04970167163339 0.045429809847601796 1.0809947547771024 1.199312152627728 0.19168833907935376 0.10380777591628575
P 4.368461927565878 6.567726700119258 6.5817016585667405 0.43096445523999966 0.6883755904384596 1.0028158506367697
Ni 4.635628055749467 6.635287881078317 9.092107965932376 -0.12513841907326193 0.6816611545327615 0.05842729089895744
P 1.0823409406943065 4.585782793409747 9.428693627359896 -0.17880042737309207 -0.00790202845589607 0.18542770288162258
Ni 0.060984181155671384 2.4526984983106024 8.862460589676854 -1.730983890481819 1.0286086433301576 1.5949151976492983
P 4.321947145977661 1.60099101738844 7.415022460180395 0.012747786583971592 0.9489890346243011 -0.040627543713375194
P 0.9414345505803001 8.472416514102731 11.340287891775265 -0.0029907071972077527 -0.4614055453386764 -0.18987751112286008
P 5.640761549106412 3.892025927623988 4.967001561446273 -1.1954480416866315 1.6513005184175626 -1.6737835300114272
Ni 1.3843231869860433 7.8292419077977815 8.85015833486731 -0.39512019184788083 0.4322230102374492 0.43883511623732807
Ni 4.002165019366968 7.646643869284708 2.7105336829433413 0.8035900655297902 1.0483277190256397 0.8502195924628712
Ni 4.0769189192599455 6.115238442723888 0.836238004221484 -0.2985894092089826 0.23724365911164952 -0.06219190014771225
Ni 1.5406412135187695 2.5777921016632717 12.835638298704689 0.6926824453439296 0.4889677712276611 0.7702567414849831
Ni 2.385631758471514 1.922974806344665 6.116057535749048 0.8923646012620374 -0.2831913294863575 0.17698008633490167
Ni 0.0006157191305299544 6.421306825063688 1.8683521232966964 -0.4675682225059624 -0.5077314249884094 1.498843871145322
Ni 7.265457753020255 8.04501414673759 2.755837550241517 0.5694929224669224 -1.1268821196917753 0.11555771736336228
Ni 7.664723621935724 0.9336634288267933 7.337808482488619 -0.33216750227474406 -1.6065450685787428 1.6335575926118449
Ni 6.029224346004401 3.356359613140663 2.7742979292641325 0.5464977471233298 -0.5960966410973798 0.5819473461801913
Ni 0.4771431440342263 6.834417045338346 13.299152593075412 0.3823294678411157 1.0913080792419076 -2.610259776880698
Ni 6.418433469121215 7.601752347222434 5.254473360228522 0.4266678847471749 -1.5561334488954104 -1.8688726672422138
Ni 3.1513531299073945 0.9660259994905571 11.829730491895715 0.6838224238501385 -0.8272760962928203 0.9869261759897068
Ni 1.6453321238643321 1.062479334195848 10.095899005003211 -0.00019386117836095644 -0.3162724283110424 0.42387823781717965
Ni 6.206794011618146 2.65103469096313 0.4023407329370251 -1.2052812257269694 -0.5288080431530505 0.11491288469051178
Ni 7.922243483741011 5.5620241330204605 6.070358115554897 -0.6187979393496376 -0.5546843966991802 0.7670544324976015
Ni 8.09521391403125 3.680946214785038 1.6580112734143815 0.17092590972102176 0.5488158537335451 -0.4443989834783508
Ni 1.3970760362502017 9.044503548064675 5.702722484700969 -0.1603645892654077 -0.8802765597492517 -0.05575642893501365
Ni 2.715741174135187 3.5274735569615787 4.193813196191057 -0.22987333478950733 0.06933853849482252 -0.5705959257231141
Ni 8.042821813469793 3.3509674062096586 7.096622902890074 -0.9098884690784137 2.1141996175826296 1.217277221746581
Ni 7.826247273844749 0.9560065700028424 2.523842045120018 -0.32402893232800967 1.937906272902108 -0.6010701830525712
Ni 1.5245951998140495 9.211167521805852 13.581463546054492 -0.7206563048490363 0.8199813624036202 -0.3159307287009075
Ni 1.3279755574648173 4.85061665215951 0.2555364998787605 -0.648730722353328 -1.1175582711876881 2.1519205291721715
Ni 1.1315891420589677 0.7843095588234704 7.95157130541748 0.7514550353974478 -2.3175841620529893 -1.3581312517828867
Ni 3.2062640814573844 4.803411518818879 12.687491611360315 0.7360379295114291 0.13423241095473012 -1.1077356286703115
Ni 8.590569283620335 5.670390699993732 8.563532683435655 -1.4583875629024883 -1.1179362233523973 -0.7748695576666461
P 2.0961224891118766 5.271180805544674 2.1878151954488425 0.7652104373103273 0.5033911457418427 1.2389403085423114
Ni 2.180867831259363 7.481575167836269 1.2902011888068046 -0.8471676930104248 -0.6801259488351578 0.6931760971508965
P 6.321644287617453 5.15302803602707 9.397426290422256 0.5482725796355654 -0.04035526388859501 0.3460990247541717
Ni 8.883325072031857 7.147594184912445 4.810471764848956 0.3049004390286749 1.1980021755670527 -1.5086924818046277
P 4.142903486081739 2.498355004747172 12.922122580942036 0.538206453648815 1.4961771229464362 0.2943679149284672
P -0.0329764239787467 1.3200644995452806 0.6386882528220422 -0.8640989215481248 -0.7327106649104091 -0.5748379888289197
P 4.806135609517588 8.519071231856978 11.702816785476887 0.28568427111154027 0.7932940829204208 0.26042935319949345
Ni 6.855696671652571 7.347161815826033 9.821889065393005 0.13753499296540184 -1.210262995212277 -0.29727660393482996
