# total energy = -381177.11697059707 ev
CRYSTAL
PRIMVEC
9.17243897597898 0.00000000000000 0.00000000000000

0.00000000000000 9.17243897597898 0.00000000000000

0.00000000000000 0.00000000000000 13.42479160568465

PRIMCOORD
 96 1
Ni 7.502991029831105 2.8161681346098257 10.52537210725885 0.11015428695960386 -2.962052252475221 2.1880000485035476
Ni 4.665487801723675 8.722237505828211 9.3889371637744 -0.8166224732337162 -1.0376327012056388 -0.33467098542288815
Ni 6.526832536582734 4.547548578941122 9.779880279642073 -1.7255629765765639 2.1832738466724724 -1.7791118563372972
Ni 0.5555416194382625 8.483524776561145 2.830577119294 -0.819011542291183 -0.4557699443194538 0.6904283592024303
Ni 1.1932150936470596 2.7987038104398163 8.16695913539398 -0.11504092562794381 -0.5205386040554068 -1.056528252558561
Ni 9.151993798022247 4.41680463108434 4.090587749427846 -0.6652292342289833 -0.5534813775300146 -0.35330428425335925
Ni 6.089729120617595 5.236518001935822 6.419815854357769 -0.10436441975070414 0.8189662908755444 -0.3252962290762075
Ni 2.5689158644802195 7.141771203077358 3.096978690668212 0.763986335095239 0.14495905334361486 -0.19330916251222838
Ni 4.464794832795206 4.50025548260679 8.19590276717889 0.2825614092118424 -0.41910241369509116 0.17239143852295472
Ni 8.454842559292437 8.05829966931458 5.180130432169471 1.4010285653670451 -0.036978119886246 0.12876470297193954
Ni 7.895048597057317 8.375179925145101 8.561606999440368 -0.6028686697138907 1.2822898791725401 -0.20976936495078063
Ni 5.240535530290058 6.3815777899670465 2.5544289140631435 0.3248869094529308 0.5407001666049461 -0.129703412736125
Ni 5.405052399152078 6.249522183309681 13.111994448303031 0.07861559292137428 1.4565062867193752 0.8071780399913647
Ni 0.36188941481278747 1.850530429083618 12.951917039996832 1.8291946319263013 0.43899760995712134 -0.8343450873244598
Ni 9.194361294525017 3.0689972477517045 5.9628898801133206 -0.1937645048820921 0.3231611850110757 1.7261391607950078
Ni 8.723934407073722 6.146579898561774 8.879144001915096 -0.6796924608421648 -0.8681414670486146 0.8219649684925521
Ni 6.995947765233446 2.291055164857272 2.7297701783836867 1.4323302036938041 -1.644419732137329 0.8061624542426568
Ni 4.8340038540616 9.00695918994652 2.7797370407345934 0.43853918226346406 -1.19417765961464 0.49190499947911415
Ni 4.308120399419193 1.2107252800128934 0.9455968431947726 -1.6031797516509358 2.207998346002346 0.5064358461054376
Ni 6.226104946121639 3.0169436554907785 7.104050464255537 -0.3361416564311437 -0.4129412791897017 0.39375802139303157
Ni 6.303978954631817 6.777322677737557 8.237385123302243 -0.8067869752005331 -0.5761957884083948 -0.0032167071650847827
Ni 6.650798051896639 7.160437116777971 10.712675149494368 0.1028279285015197 0.693386927610122 -0.4288291540645518
Ni 1.2099181053663803 6.322745765163245 11.664466140857211 0.059185766331536785 -1.000751254798257 0.13155100746782508
Ni 6.2212618982425605 4.171946367576777 12.008462878590986 -0.542167238068776 0.6117718857407916 0.2634133755284818
P 4.46551028305007 3.8568547373834163 10.74702960314266 -0.8072903971995128 0.7438527975701575 -0.389618031082729
Ni 7.219874522566659 6.167236231561176 4.215639281538879 0.3807425829699701 0.16362706206676336 0.31631048063782946
P 0.6784660629069494 0.30352426716247954 6.269618997520023 -0.5214783422608567 -0.2592579585992116 -0.5080882941071959
Ni 4.102786176273274 0.9691599221655377 5.558011077422381 0.8364361655255338 -1.6664237472122463 -0.1629817151732806
P 5.708192341113548 2.9361711562044857 1.2941752142914267 -1.1693372035321925 0.6587168870317623 -0.5464815491734137
P 3.4705574619527746 6.192992440736274 1.2456355834745823 0.27414721700621814 -0.3109517874290774 -0.6591976833229227
P 4.677228523854772 7.861881057036964 7.2283507735989625 0.3239446001443195 0.3751504335941732 -0.31776726768901403
Ni 1.0473824833639827 8.653389177456315 12.540849592601322 -0.7018813382343784 0.05815912483923532 -0.9788637106965465
Ni 7.496817978273115 2.6637772303238307 13.47218145840681 -1.0768037149781455 -0.2927774305128958 0.0029475126640981495
Ni 2.3242043599992956 3.3185151103550465 11.945661939360523 0.013578767125699196 -0.24946565509913812 0.33076188017646907
Ni 9.125072689073205 3.7203321528527344 1.686825321087693 0.03714267048856829 -1.0687152815430563 -0.6360377002666917
Ni 4.5289285274363325 2.0892981929856727 3.383208323785233 0.5504685588456197 -0.30219049629667954 -1.4345164127118457
Ni 7.597861568113882 0.8924177926483109 6.374896585279319 0.33877780850241007 0.1610798701648774 -1.4861192244898018
Ni 1.6924709573937016 5.059664202396983 0.32695434576535337 0.23246706365861255 -1.1123507588448196 -0.8023109417070504
Ni 3.5494771285277533 5.524725212936801 11.943352319178796 -0.5651629276330008 -0.504869272949266 0.01164015534208963
Ni 2.210365217523463 2.97219132480513 3.557341577867757 -1.751193018439842 -1.2176793422810062 -0.2725945278071176
Ni 3.655721491375032 8.249737647125643 0.3033316459400162 1.1763192912769806 -1.938964796073609 -0.2913494398171176
Ni 5.632161992875519 0.7888150922805298 7.625671486418007 0.42462822860932675 -1.0654921466200682 -0.028563927680621777
Ni 3.0332981145218327 6.501021292772647 7.308550912681364 1.386289716494974 -0.5233958709985438 -0.6936556078904763
Ni 2.258437971186813 5.1142860776240875 5.127035768063327 -2.01232274014047 0.36564917897195737 -0.23649726786392816
Ni 3.6755523048495906 2.0041963024135367 7.7031996939716665 -0.6600448618145665 1.0959998282906223 -0.03693184002934285
Ni -0.09778462220547178 1.3946326852695563 4.232245982646967 -0.22508594070319302 -0.45369609250956056 0.0023641293568023797
Ni 7.125407571607139 3.3284396895314905 4.939639166948328 -1.2689481677583114 0.06296014577230448 -0.7628550497042732
Ni 3.73941082631577 4.27661307088769 2.5084227109436497 2.699819527518402 0.2956418965448844 -0.5214963399829857
Ni 7.345610318639394 5.056756539181703 0.29084245277306 1.201417114785873 0.09508787954478463 0.38987874094328334
Ni 2.0200921394863447 0.433562854447479 0.9788175833622829 -1.09772735250469 0.21931561387831905 0.20381751824271996
Ni 3.245374080453968 7.710334017154142 11.330376554665463 -0.018975769771554418 0.6132718673250858 0.24010246871668325
Ni 8.080863869660286 5.477092736353367 11.254553503552563 0.8505196402017933 -1.1767975164649798 0.3624391566750919
Ni 6.107193444787605 7.8371154712916775 5.528731734364038 -0.5870723261115824 1.2454300300317132 0.42086747601531393
Ni 3.8971676075132433 3.4101202602951113 5.0654694391444615 1.3957112669191896 0.5628232237562307 1.3547196549981766
Ni 2.6764443688105866 8.954630424510645 7.448772741927258 1.6829801089090304 0.2000012298204233 0.5559228970919716
Ni 7.9067251121142625 1.8954295187959054 8.455565347498634 0.16334372649838966 0.32792543916893846 0.36663082615893633
P 7.6824222847752885 4.379977287837183 8.02402501588702 0.5836108499255434 -0.4164657474031924 -1.2074628067593205
Ni 8.552171311271414 5.668815059778542 6.376668700525982 -0.7059855902107389 -0.14738746027944938 -0.6652271773464543
P 2.3899890936901085 9.303605044979225 10.14776021447347 -0.6156311115858816 -0.3252430072407689 -0.621652120968981
Ni 7.091359477426953 4.646986991928029 2.4943393478498304 -1.1850173332716107 -0.7882601200409391 0.6761852190198548
P 0.5038448350608521 6.458589589195723 4.181083951472872 0.5093039116818519 0.9927373833548452 0.24471502778803014
P 6.732671243882723 0.43264469328707045 10.052779606920716 0.2431836787451683 0.27717469097863234 -0.4677530848232589
P 7.079866411153307 7.636835262125631 1.1778374993870697 -0.3738437989676078 -0.6521418049174059 0.39789595482080503
Ni 4.510546959349831 6.193891339774436 9.845031197786591 0.2906254171668995 0.2736594787365222 0.2799504539515566
Ni 2.984656669630257 0.8190456172802759 12.21972891814486 0.18739151147621275 1.024096357282101 -0.6340911180632821
Ni 1.4035666410161893 7.196915907336862 0.8675164548033837 0.9941064957882297 1.3011844020841976 -0.38832373775133766
Ni 0.2676022436609 3.9761056189665522 10.035595959389154 0.4041388504067233 -0.3479923851221426 -0.15136495686995866
Ni 0.7983223254749702 7.3725956346625905 7.405678788242628 -0.617795209116736 1.080571923771326 -1.3582142984149963
Ni 1.2693646835942325 4.994438987495231 7.5244747168431845 -1.2885631137757614 0.8994814148124768 1.0759051144232763
Ni 1.9954549678893674 6.94272010075941 9.303527996490239 0.5511025928851928 0.5985337897839628 0.6847691040341238
Ni 0.20299708564669647 7.941231828252694 10.372423518671628 -0.8005368805257632 0.8483889670120357 0.519007512122861
Ni 0.41276985210451994 1.308228308336002 10.399917905068477 -0.3454012273561987 0.8028092214997077 1.7277381298510117
Ni 2.221142833542245 2.82497367620815 0.9737791625289918 -0.02855004372355083 -0.2071195860327594 0.3489022985309217
Ni 6.143516303880691 0.26986875337855193 0.33065542496839895 1.462199737559727 -0.7715453783894196 0.58771535901222
Ni 8.937193617658131 6.2762965332320855 2.048529452629349 -2.3226389508680776 -0.042099757383527496 0.18517470633055205
Ni 4.226797553783004 3.7485007135282062 -0.09193352326216876 -0.3420505657164109 0.9710753250003793 2.0354300155818947
Ni 2.2583462467951643 8.066059552848102 5.3096526111294855 -1.0360895250882352 0.05444876586718365 -0.4372590299994599
Ni 8.499420613633953 0.45796979782141695 1.052839167423194 0.1670330024245188 -0.2998597912809739 -0.15147088632020364
Ni 2.542416687732763 0.29620557795278923 3.27907270470197 1.1703332488968747 1.7636502703665886 1.1674451287158023
Ni 1.688279152695333 5.045758784622963 2.6318498040785747 -0.2282784794985617 0.48763182602505695 0.1762375517419223
Ni 4.9052828788122 1.8906873677476415 9.979359734869023 0.7830474654917481 -0.17371375687880405 -1.8981364492033377
Ni 8.210947401897192 7.003606751936156 12.837967828251022 0.5416522461055704 2.3079944614820254 0.9120137429515326
Ni 7.332869800639319 8.8758850342798 3.039211586051457 -0.9015202996193764 -0.34360788290120176 0.5760312378060725
Ni 0.7024180532983072 0.5147233479104483 8.37806374001855 0.21765185302265097 -0.8586980622475275 -0.21520056326868098
Ni 5.1806945371781135 2.1217594551903276 12.172232193661065 0.9128915175707956 -1.2982718564230933 0.802196013395741
Ni 7.819871285661627 0.2528291131418785 11.970967781772622 0.08664746208691528 -0.0017162113601583346 -0.4719784357585162
Ni 4.049338373259281 6.455094889873887 4.963588405607936 0.9478688049769289 1.2311987169236798 0.4379146613055877
Ni 2.5670538593297403 2.3195997955385055 9.875907462503548 0.7648710516930376 -0.8983964092784139 0.2948700513758664
P 2.8895568203683575 3.9527067266568396 6.895885626383324 0.38124086276262725 -1.103070104873842 0.025927775609355348
Ni 5.289553045187395 8.955566013305468 11.650799206501476 -0.17448714470971885 -0.10348381691796371 0.6454829048399915
P 6.041161055239339 1.0419523993783497 4.652307923887599 1.230951376799564 -0.31373423527022093 -0.7084098833815153
Ni 2.0194042065489755 1.8749291172623075 5.634398233543926 -0.2530952814319254 -0.127875872609083 0.7056153513555139
P 5.357172266711191 4.9388448337166455 4.413641974060275 0.9478418083937352 -0.6801969112824091 -1.6393317760914607
P 0.8936285546180803 1.6330152067266845 2.3507750817722384 -0.6489482376807727 0.34491657441029633 -0.20505653285614364
P 9.521817372712691 3.9945513941272086 12.311165295204288 -1.3173815806693503 0.48918862898921556 0.02058476612988713
Ni 2.4876755707965152 4.734189371068932 9.909308899722605 0.48983269033111765 0.030644721469050448 -0.5792602862663314
