# total energy = -340869.21029756585 ev
CRYSTAL
PRIMVEC
9.20727815935509 0.00000000000000 0.00000000000000
0.00000000000000 9.20727815935509 0.00000000000000
0.00000000000000 0.00000000000000 13.47578227215472
PRIMCOORD
 96 1
Ni 7.609575940261716 8.148349024134113 9.142428453940076 -3.8867009105819452 -0.016479485712261942 0.7372980271707754
Ni 0.7358677612701343 7.077864838673313 5.28611839715372 1.5163119460230983 0.6291018923788069 -0.6095774491926341
Ni 8.656857784971978 0.18497053362777505 4.209201086501492 0.00982289962769276 -0.38372377708548105 -0.49635583616161616
Ni 3.2924213597793113 8.948581183519606 5.262562496925079 -1.80063533223137 -1.204281066597229 1.1247277923529337
Ni 8.831934177579702 0.25861402658773425 10.24217428985297 3.585616245754934 -1.5646160324451246 2.512060348290125
Ni 0.3093258727725791 4.764029821882136 1.3960102640074141 -0.6094578928956342 0.0991247686183196 1.8813618008481598
Ni 5.8791785132877195 3.6581068231083145 10.633065597641766 0.5809523292567736 -1.5940618485100677 1.2316928829512788
Ni 6.246162202825384 0.8780318176687832 11.805324272766935 -0.25024881312206576 1.0278671371784427 -1.3222623058004195
Ni 4.916207713915819 3.7823037970702185 13.209810756970755 0.7757288203431479 0.23115528682572448 -0.1503069479190895
Ni 3.396297871028344 6.772947410643336 3.9117231391566074 0.540573925439727 0.4022354627364234 0.9699077870548392
Ni 4.717615933102986 3.7694320223205153 6.897390218929858 0.3430278420280157 -0.10736849668435057 0.46973206292650066
Ni 7.505690221734608 1.277822880445461 1.1022612642831517 0.3224402476846511 -0.30949037239220245 0.4914380871450246
Ni 4.135375289435635 4.741481197874967 4.70559491084747 0.626558814241979 -1.4270069917086778 0.7674467828400138
Ni 1.8319813259822013 7.83580796985753 2.7386431748270943 -1.3886489607557695 1.063020288040808 0.47204836976450315
Ni 7.192642767163867 3.9706294628287453 4.820287211651921 -1.5005109744350995 -0.33591745623547953 1.4328583082831323
Ni 8.392793049763482 8.145660498936033 2.1601139849520212 -0.6868455269471784 -0.4196372031526385 0.41358791163476516
Ni 3.6486141194123607 0.0944574657776832 9.22565488192113 1.2655694810940656 -1.746913931448514 -0.7119495211036577
Ni 6.024708750550811 8.746057894968487 0.18722815821191463 1.50814972192728 -0.553444353644492 0.8182839200965392
Ni 8.790869717362481 6.428190090380194 13.357073803967676 0.6603461951050692 0.27863739156708783 -1.2213349367557225
Ni 8.382020534415018 1.6391901303570031 6.064506289304829 -0.22851270699655482 0.7336956545314978 -0.8237223175032912
Ni 2.4003373943115323 1.2872787550291125 10.838423807112363 0.7105323290411569 -1.8704479821491338 1.1020750879504246
Ni 2.0240359393613505 4.136599857419691 9.233040039665578 0.5305191123068863 -0.155068630973791 -1.030930606595115
Ni 2.3189174342889127 8.369167174221467 7.465192929846845 0.3151555410977798 0.7302202943883875 -0.7455582102970385
Ni 7.401519077587156 5.3322201592061065 10.321883537609143 0.46964670230154604 1.5413992280090292 1.8243072219270131
P 5.636189237594296 6.173783789873014 4.018761429696805 0.3713526571146379 -0.6285385636761692 -1.6349781271084551
P 8.32991654778514 8.55343243034865 13.47506783469004 -0.8771477843122829 -0.14102860794095712 -1.3324155921843377
P 4.601300389173805 4.384165150316694 9.06984840159785 -0.7478279801678218 1.4030311976193708 -0.7744880059575113
P 0.25662985816244027 6.364761151717317 2.9594162092518785 -0.40524493898670855 -0.3312298209518231 -0.32278811794237317
P 6.954192679561719 2.250544187299433 7.556760231036594 0.09228254888550559 0.9508499990924401 -0.42861318139900373
P 0.5777060592151129 2.3854952620536487 1.3037680693347224 0.5034335689440039 0.4572845811917673 -1.666089503801279
P 6.396038275340164 3.168463775047374 1.6106521719616498 0.41992388115512197 1.2999618425310064 -2.323411053147412
P 1.939669650354536 8.266754620186457 10.023704916402705 -1.2355870757993623 -0.3922526404920986 0.503785552966784
Ni 2.8673857819749258 6.351410598507682 9.452884059732531 -0.217332007789387 0.747836464808254 -0.1325768776291781
Ni 4.474092635281177 4.82639992356632 2.3621290317533656 2.4914735252777094 1.1388732306153806 -0.3809315590523246
Ni 4.2198244439451305 2.3175547571337227 9.556269823060136 -0.9777766482799547 0.6260816174952443 -0.13419050197320115
Ni 1.6872152927993849 1.9714347597153907 5.24070441877358 -0.2819155480977274 -1.0526877957665484 -0.7185212607839044
Ni -0.16404515274533618 3.118716851604853 8.034288342605647 1.4346040873296455 0.1758104915068327 -0.7151664853790587
Ni 2.0729634150551424 7.323220384832169 0.5107323184931256 0.1719049858048394 1.1795804785267556 -0.08352382885626905
Ni 4.218259206672277 0.6782743954515785 3.6018614028000284 2.801040002323486 0.862691756787953 -0.9366523674358191
Ni 5.216171626341118 6.661097396580825 8.667097198919864 0.6251848167125877 0.10679462645875157 -0.23681454199403085
Ni 6.725548343110095 7.531157552891746 11.650851006309002 0.4657728211684365 -0.5318558288404389 0.4101570315763452
Ni 1.1548873035799159 8.582868098356375 12.119579722221195 0.16212939447531433 -0.12279742964491111 -0.2327743104863862
Ni 2.3637845003513607 5.548011135464178 1.9552142979295886 0.059094235058995 0.7675491127458329 1.541786693255435
Ni 3.3719722423525824 1.5082165997314507 7.115024492258667 0.08761265421366202 0.15687046006922015 0.2343005173229255
Ni 2.891490435976873 3.886594635832653 11.315412372186186 1.6069302198323037 -0.3793289904518951 0.7482226445030792
Ni 2.236613575571035 6.2607097021848475 12.012177744197011 -1.5513956771001087 -1.8209195364017028 -1.2656728394411494
Ni 1.8144874976385423 6.097096370781258 7.263392412624663 -0.6878793675283315 -0.7595522105832855 0.6206537616114536
Ni 0.8291466954541394 0.22778990104620703 0.9692805470371163 -0.1292059042744162 0.5645859720836083 0.2870991491811959
Ni 8.518610504666693 2.7453801401950177 2.889100226588445 -2.4661885254586755 -0.3228210280628376 0.6455762358847463
Ni 1.906477412891962 3.744461884179461 6.8091780498708605 0.09499994781666865 0.06625835690760201 -0.26063735544524147
Ni 3.522363922439596 2.8029256281675803 2.279913562905014 -1.091578559294475 -0.3800550699846422 -0.18587173239757665
Ni 4.330551170082416 6.310788087638091 0.2801268318113971 0.17670137875221825 -0.6779793348058001 -0.6911240997178743
Ni 5.759953469486645 1.4230400702539823 5.868581856950501 -0.3080844931836113 -0.3190021685373796 -0.1289927598223456
Ni 4.986597354803857 1.485161575430123 0.9443076467126392 0.5860418279645391 0.6271383408945329 -0.7016563667077658
Ni 3.0020422238307223 0.5115186200407827 1.6348553438390059 0.09702006357049098 -0.4253087996161191 -1.6082995893760041
Ni 1.1204981199675126 4.262196337649088 12.746607328631736 -0.9646352258019902 -0.1318911644160632 0.01957072304307597
P 1.8715081707607952 2.039163497239578 8.883882561210102 0.5508233710818773 -0.09176575715008711 -1.1971655385983704
P 5.6057960126667075 8.425653825215335 10.042260343908481 -0.9930166051581608 -1.0024430406783833 1.5139254480687927
P 0.5437496176722632 4.951867501902656 10.703463525080071 0.3543504661296865 0.41725867561813307 1.0000822537556906
P 6.6327942237764 0.3769551716935498 3.179543813483563 -0.32343860704217847 -0.5476066639167924 0.03681228373234305
P 0.4721077869659416 9.070982738256765 6.102211934480067 0.8664057153044306 -0.2841395523322397 0.6806599669617568
P 2.211606608317678 5.4506073407023 5.3002810322896226 -0.18393080662112196 -0.10298939378004844 -0.296842858831521
P 4.189366768071013 2.1244689286101046 11.912186704295886 0.8335663001769065 -0.6343538848063656 -0.17517054392998863
P 3.9898358448944684 8.554463645493119 0.09397776658994392 -1.1021149400494246 0.08545164200660121 1.9886814465724458
Ni 8.69500353803923 5.315076207429321 6.403799090030096 0.10079649989378771 -0.7931588428941372 -0.5097769946635285
Ni 0.6857065103142108 2.624470164506107 10.881532283062368 -0.9392062442059245 2.4931519414213965 -0.999521496156214
Ni 4.765696339213822 7.778768882179126 2.238381372961552 0.389921935476393 0.3199012833128813 0.15981000231351833
Ni 5.674123223265808 2.6028975119749527 3.419506656873534 2.072788658736011 -0.6639146291826179 0.6625984814743556
Ni 7.876117433272551 6.771382173370482 4.406607890625994 -0.7735428684354226 0.11298455731954735 -0.7938468701000974
Ni 7.899375017691541 1.9952908172092962 9.75594069686343 -2.206541558951161 2.189818075548893 -3.0063991540217128
Ni 7.963614196825072 3.8944668585872995 -0.0012098363391351565 -1.8975553798888871 -0.4659306869025395 -0.6414164480801018
Ni 6.750490859416923 6.662892815805569 1.0074889095952828 -0.33377675574339294 -0.8375777353291446 0.522010817725559
Ni 0.15342824039635025 5.43294778135328 8.652800137524055 -0.9877239893006539 -0.37524376463892795 0.9739809286829483
Ni 0.2906295739122454 0.8638424814264606 8.026606710507165 0.05709031725508878 -0.910954962669715 0.05586570081936831
Ni 6.02672514444937 0.8827431818600728 8.920037700757407 -0.4683336399170773 0.3807109584010863 -1.0431222635653004
Ni 6.9158259518206515 8.293750359504145 6.873336204957327 0.5233971565501243 0.615577632640127 0.7879850120026817
Ni 1.4631469735513396 3.5602610789988067 3.1849880770096712 0.5352903084432846 0.0060965998160411134 1.0399806326125252
Ni 7.213976030465055 4.943424427907322 2.787681137857793 -0.49706726040634397 0.6537577432542742 -1.3500844702190105
Ni 3.7247767236538065 7.807118091373929 11.727312847087905 1.2117493499498164 1.4566078452942464 -2.912148682776559
Ni 2.209995334654446 2.0585816467010396 13.161055457376976 0.4138259957875002 0.18856496295902364 0.9110122982702116
Ni 9.013326762947296 1.4325696030622388 12.59040953899024 -0.06394950626876729 -0.885541664802933 1.3154776787784181
Ni 6.35613393216047 5.999029651997936 6.094812965818506 -0.7376050168882328 -0.8834680701033559 1.256235091067017
Ni 0.31558405968057124 7.677120532224391 8.26489935365422 0.8181011146617716 0.19350970855880867 -0.605664487291473
Ni 3.886447319383443 6.490081413604445 6.570064117519461 1.243624087171226 0.17770153788195847 -0.5686349453420014
Ni 7.140419085919007 4.330919461205442 8.352006649344144 -2.3086392941548755 -1.288646417518187 -1.1671900752822026
Ni 4.579202921792342 5.633473090561991 10.949477391621333 1.0873048716197855 0.30633691436488536 0.939543315830369
Ni 9.029522365082293 7.060619606837695 10.700633207799628 1.2612819094623051 -0.43747423133405944 0.7606786108782448
Ni 5.819662667806976 8.077719994016107 4.927635787463267 -1.087611861337243 1.4406430944348738 -1.9011706080439712
P 4.633470618769986 8.527366626116597 6.855858028986397 0.5452142524252158 0.7604325563057097 1.0449780858271165
P 2.054245018727427 0.7174071687285362 3.445245602733902 -1.0125701018100561 0.1885158548886431 1.1022938888294498
P 2.974245451320456 4.231563723491534 0.5007912203548895 -0.11307197482703109 -0.3112520922783156 -0.3261351800377351
P 6.301847820626674 5.522792400815082 12.698310551486124 0.10250911170952025 0.1254088991258292 -0.7764682696123337
P 7.680849479845013 2.6847778359013525 11.584375379330904 -0.8896690567077452 1.2659895993506196 2.107114171490758
P 7.413101833406274 6.380321451665098 8.091412137242347 0.5501664542241687 0.037888033295025075 -1.355072153241589
P -0.06760628072578169 3.4451793103317576 4.842346929193275 1.677138819636905 -0.21479304341761718 1.1933919304885512
P 4.125477465504355 2.5951081547229866 4.769011880048849 -1.9910756578362354 -0.4470032538704173 2.3209222252872865
