# total energy = -381169.1826437243 ev
CRYSTAL
PRIMVEC
9.23822106968202 0.00000000000000 0.00000000000000

0.00000000000000 9.23822106968202 0.00000000000000

0.00000000000000 0.00000000000000 13.52107034917358

PRIMCOORD
 96 1
Ni 5.8718410990177325 0.9393792828424646 1.3054013014287869 0.8086340557116007 -0.6439438424876458 0.503001880723224
Ni 0.5749490097660924 5.981618881343536 4.453448961935454 -0.3250010664332919 -0.29597356885269027 -0.16928477457317298
Ni 2.541416171191105 6.828514331916067 5.725037450009812 -0.45731337754717366 0.08663383524016047 -0.2432199312997424
Ni 2.3229230019756226 8.490562705073966 3.8902962367988168 0.13068403148183944 -1.4428843250605665 -0.6568350966280172
Ni 7.525667455322146 4.1088466829856385 7.206676296959878 1.2501333490446536 -2.5818724839872567 2.1991244405514836
Ni 0.6980880313898687 3.44698356450126 3.957982835767486 -0.6554986372047809 0.23186722529108456 0.4515127117049966
Ni 3.697995272283336 1.1822613559828923 0.6072393642694487 -0.7693121181835267 -0.9915325644134665 0.5826623699693448
Ni 3.521637629886669 8.189128786071302 11.840265952866721 -0.5462964297458011 0.43723589007100827 0.5846482900511221
Ni 5.394012584733668 4.408756295492992 11.553375765473541 1.826813019068002 -1.772094801589516 -0.28375362974773066
Ni 0.13363918382115977 5.709331550175419 9.339368619787285 1.3849717690144985 -0.2510705376924128 0.018640240809006607
Ni 1.778339101418205 6.1172359683201245 0.7615971067392728 1.432640021624739 0.13026391322528535 -0.13029888022827882
Ni 6.0618251176603435 2.069657168224726 4.152997065844617 2.2797892026924025 0.4568786040026003 -0.31345527057722145
Ni 0.3679287874386361 6.840754974984458 7.117059084723244 -0.46632869367190655 -0.14999867265005135 -0.4700218262527776
Ni 2.8015182886179333 4.129004481608453 1.4915089624627214 0.5463321680797429 -0.06278093988196284 1.2731197826374976
Ni 8.169044893217958 1.9101223266035612 2.8692390690049825 0.17649620471994765 -0.7282220330114362 0.5699901738183151
Ni 3.5902314221755764 3.068179543085183 12.95774243515474 0.07358163004189262 1.0527813839216191 -1.2400240285247934
Ni 6.28028133399109 1.9605722524876994 6.764862064138316 -1.4448332212568213 1.6401889818854332 1.0117296081866316
Ni 8.24272894537908 3.3826947832839522 9.366572409706901 0.627434789089029 -1.3254049651944593 -0.23669627124861173
Ni 5.489055404271484 8.04176068174906 13.53878312796936 -0.24769339369006374 1.030712834157354 -0.12282725444158202
Ni 1.6896337016124015 8.171095778320739 8.91958015391188 -0.05830927726385441 0.11757089113864913 -0.154782724302256
Ni 8.878263133489938 4.886141375160239 11.60652787105391 -1.3115212652338317 0.9854166813237157 -0.6221511720925866
Ni 2.8999515353301644 3.895009577246736 10.460103422686794 0.7906414757889222 -0.7069160724448084 -0.7369061910489954
Ni 8.072801104926262 7.0349239078232815 11.163090482770372 -1.6577431887191127 0.5996193095386576 1.0891864049132145
Ni 4.913107742795434 5.015624283270856 3.5653307207970557 0.06207388651260922 0.794660110030012 0.4962635335581259
P 3.8437189732348824 1.663286294796514 11.200990285176466 0.09018864247095434 -0.5308109325156922 0.28531634624916025
Ni 5.8911674577340145 -0.09605902386802198 11.01710349251509 0.35361178819144906 1.9252752144016585 1.3276353971868746
P 0.4772732971909245 0.18838765402206942 3.0297337618071327 0.9456753968700359 1.4521464670887827 2.137551919155325
Ni 2.931019673170918 8.184537390143008 1.5016774725196103 -0.4962067121782615 0.6408698315480124 -0.5365558054192695
P 0.16462325384914198 1.389677897999129 9.580679271504366 1.0038769449114324 0.80237804749956 -0.9087679823207253
P 2.2024935506250234 2.835579610122203 6.2951539462747155 0.7279775211007978 -0.4996874716380104 0.6013566039447386
P 8.71864514787812 5.671371699331631 2.391092759912199 -0.020332798020081113 0.12066289980041153 0.18314404905376847
Ni 6.034359886081229 6.8689407878159 5.37470655010399 -1.6263672455109925 -0.5541418939321489 1.1661739753128626
Ni 6.514775102296727 6.517943812162733 1.7027621377365452 0.4701316123577645 0.641628821201224 1.9413371529605277
Ni 3.8717015452002834 3.009156547942579 7.879580013580886 -0.5923891103388056 0.060689604570572896 -0.5249549879555475
Ni 3.4354912173487477 0.425866291592156 7.370281498834577 -0.6692301278582603 0.055523744098917284 -0.5170455033004837
Ni 3.9347339283366085 4.997083173355188 6.444480553487901 -0.5419641209190343 0.20424534980875791 -2.5041457214287393
Ni 5.778978499679267 8.927013226676277 7.207933618862978 -0.4253674207681964 0.21569832884070594 0.2670391452065272
Ni 1.3279758187132549 3.513350945484898 8.62728098801565 0.23735035989284287 -0.3864560884149796 0.8526965932484539
Ni 1.7409520202878066 0.6281500779187339 12.171775824755008 0.9353534461187375 0.6476863402492136 -0.39982068264734366
Ni 1.2595575526268372 1.0011275532342574 1.0636730821142024 0.6715353789526693 -0.969319261541221 0.5566109242979317
Ni 7.336154585959902 0.7760345988051456 9.213622572145471 0.7602577212907423 -0.6825751817065987 -1.7093686262048884
Ni 7.751735965908256 5.164202594568163 5.456062944958167 -0.008852822404939592 1.1540604798787801 -2.9213506609908007
Ni 9.302981114188961 2.399101373856341 7.144114139281802 -1.0438941087343185 -0.1054090589651346 -0.9023659354491234
Ni 6.616608014404556 5.903925441188692 13.083271384598737 -0.14894786278803382 0.24135382462528113 -2.154916121465386
Ni 7.323941657555063 3.698226227812928 12.909675046513877 -0.42523038096969995 0.4075944130554916 0.864691303716485
Ni 7.1648779652142665 5.249360517439429 9.863026101719406 -1.9827373131738693 0.9576312836803312 0.23181503189691044
Ni 8.693286230728887 0.2666076727843836 11.278858327711681 0.5281341570144776 -0.8961451513503921 0.5400931291485666
Ni 2.502375448468826 1.4411994575405753 9.399956569598405 -0.8982544843839111 0.33989212461251134 0.7861790691421944
Ni 4.689847651449167 5.462504756589555 9.42380780905046 -1.4299701881020597 0.06326559282786524 0.6418036562161914
Ni 7.3141768577639015 2.0964572478786145 11.12773303883403 0.16043606593329143 1.0886583003238863 -0.13081541485338116
Ni 6.17115946536933 -0.06778082882474296 4.798695144901774 -0.6159712685341199 -0.6038498026802375 0.14714371969975948
Ni 5.44139542118482 7.03186605661148 11.288795882238977 0.7316585694968109 -2.2651190022747376 0.573818803535786
Ni 4.232103030018448 0.3040538785303578 3.193663225245379 1.0792696600201348 1.6212139834448274 -0.24652894106831735
Ni 4.2332578076664085 1.7443516856834047 5.486255299430707 -1.3774767461890343 -1.1692554424516635 0.1316101428405346
Ni 7.88088629805626 0.6175852481730645 6.477918295062272 -0.18860610060960423 -1.706732731243938 -1.35845315389868
Ni 0.5791034378323984 9.492549412878308 7.232474953437454 2.3036022459516006 -1.9354904643717634 1.5036754882060104
P 6.736242978733358 2.8295562899104367 1.4873582296848886 0.012209397581998328 0.5586202414184765 -1.63922687508248
Ni 0.08969481329457706 3.574618828375139 1.7213679152004993 -1.1927553253458167 1.8412780454533966 0.0012133035818108137
P 6.1153144183139165 8.544975827845908 2.6812283344072076 0.977257285441375 -1.1302294388974534 0.3196148624207141
Ni 4.644358650340671 2.9670025446813955 2.6952630400294715 -0.3113019716796445 -1.2794431537523643 -1.5913925292080204
P 8.112599361785605 2.8699919840314534 5.134991339185331 -0.6208046853670212 0.05482774647315719 0.4758921689906256
P 3.9721117712458236 6.5808191455389355 0.5954088982216136 0.0923581393184474 -1.1119908044022397 -0.411270319245182
P 3.909624443159336 8.602880998225285 5.453102095068794 0.5748973813119455 -0.020960661412067125 0.36302665374744575
Ni 1.77872710670792 4.471788678629318 12.35064626331364 -0.39972169517563416 1.4294353986445123 1.5913683608383045
Ni 1.0597071137600438 7.335166096293248 11.358375392728187 1.6911559598516037 -0.7035006190053561 -1.2920526149862588
Ni 5.238043696489408 1.611182727320495 9.355228797915446 -1.0597231053467748 0.10518794409326401 0.40164128079585026
Ni 8.354991809203296 -0.2624430826747755 1.5177806158649028 -2.7963446537303454 0.14066685372616416 0.33736987241128996
Ni 7.78192647273656 7.332560917919447 4.067557377227248 -0.4947830923578576 -0.5468553875730646 -2.645320625139573
Ni 5.401800405191519 3.7498494077873947 5.532984069822055 1.5664571994189216 0.9123562138926158 -0.3717156968810114
Ni 4.366990297521524 7.209369238434924 3.1956374331123345 0.6161265631650615 -0.16871810343642554 0.28202302020986914
Ni 7.098566013557731 4.384515203106986 2.851783450078398 -0.2484438987028431 -0.2915168186329173 1.166524673784062
Ni 5.838509596986974 5.497480661991011 7.466551154145587 1.311108346066129 1.1114848113000988 -0.31250216263533276
Ni 0.2536732393050974 8.230894784042771 5.085572398785294 0.5445169692478751 1.02753392220874 0.9140968507328064
Ni 2.415600836890414 5.339654891288828 7.847102123187501 -1.6774519800019496 0.8603870199141762 0.9567938753807005
Ni 0.7459161501020753 4.4008853310444875 6.227345402786422 0.26097494129031823 1.4537225533266511 0.2999037571450319
Ni 0.5364524182715324 2.9436945126349423 11.338701676895399 0.02517804192752438 -2.816382031997195 -1.0093330829299973
Ni 3.0017752092168095 3.5433566878895273 4.343603740595009 0.9125179362814607 1.0524039459775425 1.4161067998564063
Ni 8.656564301523716 1.9132540835848326 13.461118326300184 -0.3545019041058863 -0.8644565619978596 -0.49826590870013543
Ni 8.880572688785861 5.897578783235496 0.16698084789522 -0.7312412794537341 0.17550247334811064 0.3404922200903555
Ni 5.698319590524459 1.9088936431861303 12.632033242347692 -1.1057309395354569 -0.33726677117452236 0.3556023362589166
Ni 5.10312871432278 4.651453604209745 0.9134522150904351 -0.02256785799818694 -0.10797527703041404 -0.14145489684509832
Ni 3.8298616414593454 8.722506724332904 9.46913052217765 1.3376367313739608 -0.8441803282473267 0.9883179141309109
Ni 3.7448238154634668 5.687353821979417 11.974665442291297 -2.186799600437544 1.4261808962629567 0.8078712094036474
Ni 4.238532831962297 7.137671403828295 7.457789625174975 -1.0169376347501324 0.9073466764931665 0.3947808062305911
Ni 2.421217675370098 1.8189133688569772 3.1037753331280635 -0.767653242423865 -0.839888128629876 -1.338879088421494
Ni 8.658522804414657 7.99813780131967 9.152912677814724 -0.818915640143267 0.2413299133658812 -0.809557853077451
Ni 2.587967567735726 5.563774137205179 3.373466724143563 -0.3107561264785035 1.0437740382166862 -0.29420053611266755
Ni 5.969535288035268 7.654189588429659 9.258052873106315 1.590110062951171 -0.40502305278388956 -2.219696094055248
P 5.918568021764843 3.556086956680654 8.640437138803344 0.6228775087356498 0.49709991341649234 0.39811989790615304
Ni 0.7320375704178158 7.369596946644866 2.449707425678483 0.12531762496360355 0.01803654578673668 -0.2983806356322861
P 2.552344986851412 6.381375188404225 9.640428390832007 0.43444187226563896 0.052056868596239377 1.831283653244846
Ni 0.3940748010327192 8.23837774320156 13.347122372181909 0.3084724726506494 -0.4723299055606639 -0.12611852359834408
P 7.38530192265714 7.447373530790363 7.216560269804309 0.3273096599618105 -0.16300099844699023 0.15571320653632537
P 7.46020542001451 -0.40386362019895844 12.972263995033385 0.01649285544870063 0.10329509794592533 -0.610475278416555
P 1.4818845836335517 3.0037244738865683 13.911153652153114 0.6903784798011013 -1.3970644385129745 -2.6425536039173974
Ni 1.6694574265472197 0.9407557777988348 5.220039327224512 0.12100279963833353 1.5416385977133449 1.1304132727734855
