# total energy = -340897.0248568575 ev
CRYSTAL
PRIMVEC
9.05323009961907 0.00000000000000 0.00000000000000
0.00000000000000 9.05323009961907 0.00000000000000
0.00000000000000 0.00000000000000 13.25031736532153
PRIMCOORD
 96 1
Ni 6.463933671113067 1.8591350644896514 11.415757967521529 0.018679064466742026 0.5661216920018445 0.4145325349362216
Ni 4.598524718352846 0.2318722276690985 5.919088572332695 0.11404128071883586 -0.3815319116404849 0.30793485497962453
Ni 2.695354743981439 1.607373796212159 4.899330953898722 0.32192319883891657 -0.9080848402107714 -0.39404829893994076
Ni 3.3742745552175752 4.117834427423228 4.855565830265831 0.35293070296402446 0.5936463797846744 -0.3296033410919937
Ni 4.967597738737201 4.460345271493218 2.4969559282771434 -0.7949938392203469 0.629994065175773 0.854450342714767
Ni 7.060650155514019 5.998688190269444 2.584182892343698 0.778298380842537 0.6466650980735509 -0.34351403763581484
Ni 5.149268901688922 4.6157439614850615 11.725377522304637 -1.2691541131215305 0.34382642666991103 -0.26048643168967395
Ni 5.709555189263357 7.873449129441642 12.393842663735786 -1.6853200698961168 0.36838868939030744 0.8908013705399755
Ni 1.9441811054907214 6.47430867249557 0.4895579295458138 -0.7580694553901719 0.3917448476177447 -0.8304123279289569
Ni 2.764485206945477 1.7415969816370969 0.41898076045531524 0.19328833657662195 -0.8467138933024578 0.11112667817520218
Ni 0.5605823281897989 0.047029718308745985 4.885325607355326 0.37171466843974693 -0.28663686483279666 0.0038512554252901413
Ni 8.5267845131848 2.357289035756831 1.3322262246438463 0.3004483167945922 0.7173503804042549 0.7613650954223081
Ni 6.937381378180554 0.6946398395088907 4.82406964369539 -0.6235403391306293 -0.2949281583073114 -0.323479744692759
Ni 0.7907244836388309 7.519485949639657 2.593259660568913 -0.05127448190426008 -0.6462138694687452 0.25770681206200774
Ni 7.5855111547728065 3.906278552810389 3.714541103613288 0.8110259529825452 -0.7699651783864933 0.470778501913144
Ni 7.428356138194397 3.852556687013034 12.714500821647764 1.3520336235255812 -0.05243739186410969 -0.9710097618697663
Ni 8.030567933100741 -0.20159460583346095 7.061862382987943 -0.12534153622300348 0.19907254735856683 0.0684049709369596
Ni 6.791678697334139 0.8750535088375503 0.4669320975605173 -0.2061255975506063 -0.4564520579881429 -0.6772761380911885
Ni 1.7147360487384193 6.553279996282277 9.080879296880095 1.4173347587262366 0.3455544651046113 -0.28291930677189336
Ni 9.066719140106647 4.985233430441489 1.3528177958868668 0.1303202203845175 -1.0606044795104637 0.30587154469269257
Ni 6.504890482853417 2.00641300732608 6.904501858092446 -0.10434436514604609 -0.21742868126825135 0.8583620190643475
Ni 3.2591355782693516 4.380749274848402 0.20150860015009814 -0.3052084571873969 -0.6136644747778142 1.1456439736803108
Ni 6.045529601397774 5.650700142153717 4.798178311711255 -0.3922091888486729 0.32744027200240383 -0.052364629644645305
Ni 5.503467465466427 2.7140858764948748 9.269749588190777 -0.36116208973488123 0.34159625178781167 -0.40968831947004286
P 0.272696862253964 5.568225218423703 12.36649466707238 0.4994162202544948 -0.9722631746608932 0.8663360384087595
P 3.9198765040115395 6.235176659827668 12.602217233387185 0.007441543879709765 0.8682345409830531 0.2661785969784448
P 2.3639884258293025 8.53849033935197 1.4273240667225713 0.6014399076871642 0.499206932457166 0.25843032049159365
P 6.5264190633836 7.751447804284049 5.790892122004033 -1.6529200562988566 0.3295197802392518 0.7667803529006085
P 4.693176236201067 1.097052284056599 12.491935314241502 0.012448510175997917 -0.5678903538664929 1.0731427211867905
P 3.9896406930635138 6.159518818157885 8.187013176460662 -0.1170463860937468 -0.5390024671875492 0.72320298253029
P 4.727687148304119 0.9733398984615782 3.807822867788584 0.005795523635854535 -0.2560901023941912 0.21259012222902743
P 0.2390487229534873 5.5658894851281655 3.6747367680300003 -0.49438020049248405 0.05585824462020058 -1.175656203771685
Ni 1.2759622119108838 1.1653407966466642 2.6091200139039965 1.00545971601752 -0.5086372246321305 -0.4910277390804834
Ni 1.9628307589357081 6.418749001043199 4.803173883930159 0.06936502085738376 0.26282819244897315 0.019461451158721322
Ni 5.985280356894673 5.798557491699116 9.213263771327036 0.021085617025705623 -1.3869687448398693 1.0519910268098398
Ni 8.597390652610748 2.4747275330812815 10.288049636622496 0.43618765131215204 0.08138955612208564 0.051540848191769295
Ni 2.3250595375703496 5.192842096849467 7.012716924868473 0.17845152867410558 -0.29750311812333924 0.09872830451084932
Ni 0.5761900964126907 9.089171150079254 9.165721640210045 -0.13442267258866525 0.3935325356457868 -0.09807601563883109
Ni 1.5002288212017623 1.1361260239927944 11.49586909294354 -0.4789767214532203 0.04681927434638389 -0.9098997819323232
Ni 3.992103171576638 6.97579423233933 1.7190960842234222 0.6177934093445231 -0.41918571743751676 -0.12207417832564138
Ni 5.6944815616002975 7.748143375396952 8.016150664600186 -0.14125640768104705 1.5045715176577183 -0.6450136785130569
Ni 5.389713632681835 2.910975518786899 4.9599912150359975 0.018856470584870753 -0.3631127857033488 -0.6844055500471181
Ni 0.6065899368510016 7.170574472081509 6.65055966674947 -0.2381018933468867 1.3009401472838755 -0.17469488984515075
Ni 5.121022824626612 4.536292816517487 7.030777213051678 0.04092887700387789 0.33134192104965515 0.40557635418419824
Ni 8.268948527692947 7.133646347614469 9.286921754527887 -0.9298723683995083 0.08087173594540266 -0.9441188510161933
Ni 4.832967157970017 0.40334945383487153 10.302664265533295 -1.0399271536667702 -0.9550424399072327 0.693322907141406
Ni 8.100241589854438 7.22442308309645 4.5441564519457955 0.7687073947199923 0.01871583124194841 -0.5894570242936751
Ni 7.2419591892726345 6.062205650740331 7.048969678390368 0.3500880913089067 0.2569208258256027 -0.1191184381314271
Ni 2.235342029978205 5.324829134506972 2.702733126290985 0.3885854760531566 -0.8696432484051215 -1.0236294449480112
Ni 2.3912839137597075 5.233373406787916 11.213835634768309 -0.6630278557022904 -0.3626805832619367 1.0303953029169353
Ni 1.0900541373998152 3.275721095313631 3.7849000898649394 -0.2847478753401999 0.674638186247709 0.22729708942189886
Ni 3.512716545742204 2.517368245569576 2.7966386580014064 -0.3334548536275999 0.3887685385982402 -0.6451226932870955
Ni 1.2133591276525912 3.364460854084388 8.259081412503777 -0.7478192384170734 0.1943571441607685 -0.1460304320309227
Ni 3.800609254261901 2.635811651404897 7.029650991261117 -0.15682340888136864 -0.5872816139089112 0.5467916242146648
Ni 4.064420371440013 6.69159524158932 6.055832176941656 0.752531299180762 1.0598809710808779 -0.17280178658749595
Ni 0.7194312040689642 7.263451556883508 11.176178725300142 0.5914429443754524 0.8449763417860608 0.7447879077899173
P 0.21989842589903086 5.580709622356051 7.860949335018587 -0.6892564503815163 -1.5636899210864297 2.1728133134607805
P 8.60819115579515 1.7399492938084622 8.028552684141102 -0.28873925588778016 -0.4457863507441806 0.5738422005745537
P 1.8558215823727264 3.1961432051284695 10.338016222687337 -0.4507210690416366 0.12013068144602536 0.7954304125371333
P 4.044765809484156 5.983026102667586 3.899091193650207 -0.1500963745701802 0.9446659817689151 -1.0859532426878975
P 6.703282961296833 4.001391785379821 10.574548147748732 2.0801250444964237 0.06994300484804084 -1.9215779680557294
P 6.3167281541152605 7.785497001665892 10.374362224476457 0.3858385094356387 -0.559128805623779 -2.126306171038177
P 2.3262364574479455 8.29217911543073 6.003917335817902 0.9002455466720108 1.1569673691129303 -0.5041822741845704
P 6.865788436703392 3.9757439852780503 1.503209144461029 0.6508727083969952 0.395384501252861 1.3128410124865195
Ni 5.1910857702629 2.985483600268569 0.49311856483703376 -0.554392062269742 -0.7649021620412891 -0.9968940858356958
Ni 1.6507659267761496 1.1818448346224946 7.120853228544998 -0.5123748372976917 -0.5887857092582633 -0.1746817772190282
Ni 7.001279074304202 0.6442386984123227 9.279515307205878 0.48974321594110487 -0.2077939863919647 -0.7164800619841597
Ni 2.8360690951928116 1.5167871785565585 9.344666875660655 0.09886894385377167 -0.15628939075476955 -0.6406579726475224
Ni 6.03783435604426 2.2204856798310093 2.588661525139443 1.1987863620312451 -0.8714360786394864 0.6273573988838743
Ni 3.945859273616933 6.88911860996928 10.402572088619458 0.8453332109048475 0.5690172683820846 -0.21427393768935354
Ni 8.276118685716456 7.069151138322194 0.4550949995608474 0.15033574427449592 0.4709047430783632 -0.3599444152776962
Ni 7.626160156699016 3.8377818159342874 8.236556071369566 0.3543499519090543 0.22935448617155985 0.30736381296750287
Ni 2.9110932107746583 8.421314385692522 12.367143783651024 1.1518269625625712 -0.31005421531547245 0.4379259741594974
Ni 0.21874323377302102 4.908534467341523 10.132954229829881 -0.5803576330955683 -0.6380611584546236 -0.1912625643958448
Ni 8.726100421070639 2.346461372882946 5.829742247163485 0.2715514312545839 0.4780907193038411 0.3592052231188265
Ni 3.681595494947438 2.7116686641308885 11.486222876562165 -0.03422909638619912 0.21503009912908774 -0.28926170405015345
Ni 1.0760759505459028 3.224126738525777 12.613520190827021 -0.6099536015851301 1.397228989115297 -0.2755119585642287
Ni 3.255106890996041 8.417502975935076 8.077658308049331 -0.013121624983622564 -0.3396926070071956 0.02568660613282673
Ni 5.654004571040814 7.877396337646503 3.4643216003754467 -0.1982413097065231 0.2718723049291124 0.3047016927543075
Ni 3.0426819063197468 8.430820277011568 3.674418999663049 0.3241058083125321 0.03859560088501095 0.15927855529008053
Ni 3.6312414306459737 4.200580948048072 9.345024478238848 -0.04581602989285012 0.6109568460386638 -0.6573534310253324
Ni 7.432402931927363 6.14287898173464 11.389031927747284 -0.5952029256385168 -0.9082959277803131 0.55085705253329
Ni 0.5962013556237579 9.104652173084556 0.2748714480585687 -0.32426521670853187 -0.08545138489628509 0.11694791284266956
Ni 4.643664122273575 0.36681967148024963 1.4663860374599909 -0.6252871466184069 -0.41037866066884804 0.23893055989576914
Ni 5.897645092162892 5.649052454325083 0.48964846184409044 -0.3818905805314842 1.1323092042446177 -0.6019582420844795
Ni 7.912749200123529 8.705359471535461 11.524502648242475 0.6372193792796187 0.8747615434682935 0.4178780543696867
Ni 9.17209873530065 4.860443710496976 5.738739180935813 -0.3118082218921017 -0.8448554999374804 0.08339578791883702
Ni 8.0390960755984 9.00875130952012 2.4019250800991427 -0.7156953612993351 0.006841705512181766 0.28369860814007913
P 8.553636392853651 1.6411695031588265 3.75260902971563 -0.5095512518059676 0.5021091937056256 -0.8471535519430377
P 1.6643638779773002 3.3399447077110755 1.5751977120816603 0.5722586581375178 -0.16061964269900725 -0.043758376032873025
P 4.88018880475111 0.9604480991869856 8.133057737333754 0.034938463748397895 -0.09601039135905401 -0.5258096226463589
P 8.47781559304697 1.688626533915438 12.477704542275399 0.08997626934983213 -0.5639341974322224 -0.6775355624001621
P 6.427666432423448 7.815535618234079 1.2386665263128416 -0.5684138304701307 -0.1143230736253128 1.5260939651105265
P 1.8767979158834225 3.2011315347635123 6.0728187520673 -1.010986302262704 0.050858477412764024 0.172715911741909
P 6.992705665657405 4.090339768436614 6.019817523364227 0.33227188906309224 -0.9901063734899013 -0.3024620047905114
P 2.3586741799204636 8.431616961236402 10.2099655293589 0.16320874358242213 1.0397628601747642 0.014600780632310338
