# total energy = -381171.8237628189 ev
CRYSTAL
PRIMVEC
9.27900928785256 0.00000000000000 0.00000000000000
0.00000000000000 9.27900928785256 0.00000000000000
0.00000000000000 0.00000000000000 13.58076802940091
PRIMCOORD
 96 1
Ni 6.178882883715242 8.36248425926327 2.77264957572168 -1.3217200601437042 0.2956200421680135 0.2934060652358302
Ni 2.5357490500750623 2.8395994822128783 7.601468183354869 -1.2670746048846824 0.3394444955521315 -1.5720393214923893
Ni 5.471126464265176 8.40406349906079 0.17073098382111304 0.04652231193125536 -0.8263376436389511 1.045703136918599
Ni 2.535294378628939 6.269622313748703 8.368414473981993 0.5962215967110184 0.5081510290243312 0.9803531507578793
Ni 9.005501032190846 2.6097027526383796 10.952114659406673 -1.382061537346239 1.6786010060047283 -0.523410269176247
Ni 6.864360402305268 2.621060259782357 5.983822338021981 -0.9514506087909163 0.7557490347871113 0.29930031923307815
Ni 7.084718310520282 6.444485240324075 8.32361170642155 -0.2572411852794989 -0.6518648971069354 -0.05921944778294962
Ni 8.972356411669368 2.8413439359245345 6.926192007374392 1.00243995535459 -0.46772891645354286 0.10513343670624475
Ni 6.999676192077019 7.366429026934624 5.639807714975091 -0.11960514795985851 -1.4934946910182667 0.1539370884725091
Ni 8.527706295379009 9.39499671836372 3.0310783303917797 0.5594933880520493 0.4834797515298964 -0.665932173833279
Ni 6.5161006325930435 8.871892580094332 11.70228914107731 -1.032131054661119 -1.3922433629752473 0.06776733735296071
Ni 3.957720079311968 5.2868824594850965 2.230844522502969 0.9098756135626072 -0.14666678006334097 1.0189595502761677
Ni 2.8833221731135494 3.2440622100714025 4.639177003256989 -0.44886473255918824 -0.6918936308940471 -0.7725622496897082
Ni 0.19156607086448477 0.9677449755506426 8.630265327209854 -0.5223586879832811 1.8830656709131441 2.0945219366480443
Ni 7.277619630794912 0.4810544527102675 4.940194553915184 -1.1889796603534684 0.3994779545959442 1.0232517498936184
Ni 4.424723328535205 3.6300133147663365 6.337478779429415 0.03275379739225327 -0.4272885490503093 1.2507825525928782
Ni 8.229339757621986 8.713267919451935 7.411215092278678 -0.9185338034582374 -0.6114199017180115 -0.1819690549090608
Ni 3.4517821078860105 6.929582557301197 0.5282038816732517 0.01676744926632596 -1.1855981454757454 -0.7094655783395395
Ni 9.143368549466349 2.2574158929747776 1.705472594408428 -0.5224119098187198 -0.0393533049866419 -0.8489378975369702
Ni 0.7859209363450321 4.233761321163426 5.118849811511588 0.5166798924309489 -0.3742364064203361 0.7624249041453902
Ni 8.533078841650546 5.349228121658613 10.415851030425202 -1.9768646564431762 -1.547409438758851 1.2458815157468348
Ni 5.417939184077856 3.571240071098074 1.6232958339766523 1.396845380523633 -0.3357729602378153 -0.8851786250365594
Ni 2.7234912412875594 5.9838752283738765 12.002221047670272 -0.60651012312122 0.9496678058588806 -0.05275003800852206
Ni 7.867319217407704 4.967712383315657 1.9895689440635527 0.40889204882099256 -1.5281145950849813 -1.3258068286185685
P 7.85503380935327 3.585761720346705 9.211210168732496 0.3050534196667714 -0.6164150409397577 0.34211227219228174
Ni 3.837148635007357 0.7132987715882186 10.858815150761265 0.2221559115405916 -0.34718428739855045 0.8752060872048797
P 1.3713261975442346 5.746805824761557 10.163317230239228 1.3249637638919827 -0.6545671265294468 1.153964320620548
Ni 3.6595020057006176 0.9823130198447968 6.652172661606816 0.10452562791891677 0.08431598574026125 -0.8014899884676518
P 4.454861550106805 7.089506279218233 9.735413869580773 -0.8694673849488896 -0.3291387427507493 -1.8803377304590199
P 2.361600607200741 1.060581461641733 9.059376814853723 0.03977368035351215 -0.608967583522777 -0.5735200413484446
P 6.073055784877773 6.519867910289494 1.1924157671974547 -0.1411885305575891 -0.9432678158698079 -0.3957192588844604
Ni 1.9488053291663243 6.381146724176371 2.32079059725799 -0.7767863150733848 0.9630025752945739 -1.4154761082509428
Ni 1.7901621105057173 8.364757616493888 12.796492164308495 1.0112822362365679 1.1675428306359312 0.10808609157666547
Ni 3.8161595164128497 2.894429147011704 12.305045221401125 -0.2441316444807344 0.37892584147620545 1.226384583364488
Ni 6.19891626437198 6.500094341887683 10.77341950207112 1.3558270291297425 -0.4295899434899763 0.22751666163187267
Ni 1.009166472193384 6.790879929206283 6.421638464106835 -0.05374942580731388 -0.6689928150364737 -0.5591707146053079
Ni 3.9388187377659856 7.498562116583513 3.6138288670861685 -0.6641902514415078 -0.5592247077716949 -2.107215987175945
Ni 0.04420891097775023 6.752780317822973 8.728033606640015 1.1532876062684976 1.7544372364087526 -1.17919764126604
Ni 7.976468201504605 7.2946187754744605 2.1351955687522874 2.0266355572187162 -0.4911064148372187 -1.0997248425506934
Ni 1.4017613474071806 8.21199728960557 3.666752623414918 0.7296626221127046 -0.5053505834610588 0.40581675232977854
Ni 4.33059706017858 4.848671975513298 10.735026674000105 0.11660338501905725 0.03696372170854279 -0.8204559880471936
Ni 4.893684448679504 5.140366905724145 13.141022700261598 0.09280911081293694 1.2590874729141477 1.3150303068283544
Ni 8.738274848988715 2.1988003924612927 4.341241939423329 2.379195249996567 -0.6236074449231389 0.4610803007887736
Ni 3.3287517261686923 2.5324735598611534 1.9456346917552971 0.12394696986832203 -0.3561965181994898 0.7105719240298408
Ni 6.702283950275975 1.6595229413226629 10.75045395453734 -0.15232269279753766 0.8490543685101765 -0.745576979350116
Ni 0.27989759803531283 7.209780795231498 11.426858458024931 0.4297102711179245 0.23969649152751624 0.32537953281863313
Ni 3.3607271915429946 8.887230782144165 1.568456890168722 -0.45553674526272514 1.852187493277049 0.6531712746231848
Ni 4.837258794314693 5.764844218460815 5.342198344361 -0.16118425695322564 1.4766832758878827 -0.2592978106982115
Ni 3.043431475212676 0.5059723037596442 4.3804225553673195 0.5590840684287726 -0.8344553876500791 0.7261656647030397
Ni 4.989907773093757 1.6932428604086223 4.759393989413805 -0.1175760333449717 -0.07272596690981668 -0.12179058564695153
Ni 4.6823828533505365 1.4236598088939347 8.897901642614405 0.18474636054388183 0.3644785557026239 -2.6104276699171303
Ni 6.178428212269119 8.647368396791371 9.135809868649778 -0.28151368467361837 0.07706316083258986 -0.20126955500988564
Ni 5.700188083020263 1.387935623841391 13.081470947729462 -0.018104937130826882 1.7491939857319423 -0.8924646171750114
Ni 3.2237875751779463 7.705029348169006 5.914152753962237 -0.6403558680260714 0.3128636597398096 0.17217675140898736
Ni 8.519104653939083 0.3224669081042879 11.255591147477574 2.5701958189802765 0.4253440237294287 0.29288670239725045
Ni -0.20349980447385524 3.970692134040138 13.158935827337945 0.5676139602766548 -0.7255755965275246 0.465697744956127
P 0.34697926645579547 0.8928912091041833 13.323697624602096 -1.6453980368901986 -1.7768510853275785 -0.22235748602843639
Ni 1.2992561338291422 4.301730062854305 2.7198343837994536 -0.04368638514435702 -1.3027566316673242 -0.023764963630081654
P 7.399675716556252 2.9457049513234845 0.45820953229484873 -1.610504567447123 0.20473745895382803 0.3494134338393853
Ni 8.949762024499773 8.346014018102682 5.083009638845238 1.4829277141356978 -0.226061674352901 0.9714309085675851
P 8.050162091812995 7.860953817161978 10.129717938271627 -1.9312124058217 -0.5199503356521046 -1.064158258299993
P 3.6729008948475976 0.5056688801619252 12.973992185271381 -0.2638260375858682 -0.29174693236585236 1.0006743788137349
P 1.3895965664711067 1.9319824856597632 5.6517312416744465 0.07633348175541692 -0.0779386214590077 -0.14682438868712777
Ni 8.26787548243321 8.28147850978049 13.335498668381272 0.24672768734268474 0.3746490684777225 0.5575028399845818
Ni 1.505250135950302 1.3221845653265019 3.1247035322567576 -1.3320857196487446 0.8895538712861195 -0.795265861934811
Ni 2.535897514220735 3.14792239673909 9.818949076945456 1.1961571519385141 -0.24688118220141356 0.36480919956916524
Ni 7.734907757485678 5.72704153536885 12.862114244596832 -0.872259088761414 1.8597763613679001 0.5976809548653643
Ni 6.269557360684971 5.954200957257504 3.3301946120844503 -0.7689354515703983 0.4345753125197096 0.5393498232246389
Ni 2.724781023553093 4.413755539773619 0.38616916140889096 -0.9353765860471891 0.24623454975635012 -0.09782379041870894
Ni 5.232897184514784 8.648138554547051 4.868596791763514 -0.19753785588159528 0.4030790416836413 2.328258353937384
Ni 7.194089990835693 1.665275926967488 8.323883581388314 -0.18813867405488244 -0.19689250898811253 -0.3971493064627676
Ni 2.356228060929203 8.150718713479076 10.319590589974531 -0.6544899934346082 -0.860408617180731 0.008396194483495217
Ni 9.149752507730284 6.130743384480802 4.1044063668404425 -0.046814389250377446 0.5237612247577624 -0.7110149251045303
Ni 4.422663388513993 7.79245617195214 11.709609351359896 -1.291989365848491 -0.061961272194144906 1.312981651829442
Ni 2.6307661033057235 5.8339357202533435 4.419793390997953 -1.3310207687193398 -1.184176068317238 0.9636980586997015
Ni 2.0163008413928702 2.0465318530555163 -0.030691250514231938 0.27687310057781345 0.2567267075369256 0.4416823558781361
Ni 6.699370341417144 2.2918131797253696 3.326717767372973 -0.11269736509643172 -0.49129127715451515 -1.5911097078602792
Ni 5.1194056241569506 7.128255421238863 7.2093372585963 0.09513133118821035 0.47190850175252924 0.942608585019254
Ni 1.4965557044193325 1.2558674872562345 11.07335048076317 0.48717416966234806 -0.6922121905757304 0.7695149782229522
Ni 3.470998935741547 8.578740845454071 8.241203898663072 1.0852695863573116 -0.4303656453137362 0.848435503979255
Ni 6.921018031897691 0.6925147190949219 1.2712251752251866 1.2799614881496795 1.173736875261785 0.46827039077930965
Ni 5.132572538076317 3.8950032567742685 4.148014925929128 0.787783694625153 0.0882770272705383 -1.9444924107600576
Ni 7.7213604041930255 4.183274232625533 4.270581357191219 -0.5412208149951067 1.0882623504370483 0.1494353439474136
Ni 0.54463329519378 4.3367768802422155 8.660795122965665 0.7357533083914748 -0.4330154242317575 -0.8733798326294183
Ni 1.3686260058948083 8.9657033621414 7.365556800078797 0.6197762441025068 -0.6183608518122189 -1.735416729442192
Ni 0.8986952292990835 8.321192668747994 1.4175338070831063 -0.5623951350798766 0.971122890408863 -0.27126526747273283
Ni 5.718551242038181 3.747411337957189 8.558980267665007 0.22039881964016883 0.18313505019270396 0.6670230929046125
Ni 0.7722705860513187 6.303314395807349 -0.04165811137490757 0.22161238033229574 -0.8109968995168227 1.0771207319979321
P 6.179012789842705 4.976462488901253 6.802240220052991 0.957716130084654 0.3281738077343187 0.10922817560090865
Ni 6.424043583266736 4.014693195213946 11.942968079231305 0.8271405991562206 -1.6840260336750414 -0.7235917333282764
P 4.83376988689138 2.6649499728469106 10.565986325637843 0.9784623614930696 2.08304478924638 -0.6563617565360245
Ni 8.335593690878266 5.310534653692611 6.326926690275713 -0.6420677085108555 0.0058284337563189945 0.7058608917074166
P 4.9356255698321 0.8656072107331446 2.499933930733294 -0.05045764242991955 0.9822907341002244 0.6322648634878207
P 2.7798241055613233 5.233008532624039 6.5756180527914925 -0.03535086869546815 -0.7796073294619477 -1.5688879203476012
P 5.815470492135277 0.5790361493498346 6.877735166028576 0.5602996860034285 -0.10220417887459173 -0.21367435643214167
Ni 1.6624365501814935 3.9524588811496835 11.674570885080179 -0.7696836425903325 0.4205224339710693 0.6886337291958526
