# total energy = -381165.00727088767 ev
CRYSTAL
PRIMVEC
9.26991079326251 0.00000000000000 0.00000000000000
0.00000000000000 9.26991079326251 0.00000000000000
0.00000000000000 0.00000000000000 13.56745146288736
PRIMCOORD
 96 1
Ni 3.61788865951919 3.4981584895493225 6.362999443229152 -0.7402313987674864 -0.0828363158709412 1.8066920799484107
Ni 5.708772696196449 9.016814581850447 12.739714646715925 -0.6606058765243591 0.45253215410844644 -0.5066939848628306
Ni 5.37184851241472 5.857842134357291 6.970481737250858 -2.019734973444141 0.8216896033439784 1.2262220896446945
Ni 9.006385932019532 5.161912838885175 3.144554954975802 0.0926954680532081 1.0227426714676837 -0.613332288249376
Ni 7.607269000792982 6.920971142809153 0.923176527720979 0.29872824877969195 -0.7489479527048778 0.012184200771017726
Ni 7.177515928649667 6.311020271498583 3.312384838939139 -1.6197024318963071 -0.397981829666392 -0.5690234390296717
Ni 5.2730405314834075 8.230327526202144 7.883842356255432 -0.6991855365697701 -0.4769440072939077 0.15210492035977674
Ni 7.995196234681107 9.136461322621667 13.404534121003548 1.5057328849556713 0.23864696721707931 0.41332385934010113
Ni 3.3012933904745254 8.10244910449772 6.312392218320783 0.582198800069365 0.5899661027196097 0.1545469541423661
Ni 7.402079521675375 3.201465719337524 1.354503630745441 0.0860926180247098 0.29251877753487043 -1.7385056527801606
Ni 8.37840508389018 8.206429695745166 10.961211777560544 -0.969563516341543 0.08305948762534082 0.5704216049287789
Ni 7.257830437214156 5.934087152009982 5.789530306504863 1.3904723871177536 0.23861200021408585 0.10791845565054961
Ni 9.019271108255062 2.817635786094079 12.36773629463588 -2.9439272607397364 -0.5318206047271292 0.3000785921599993
Ni 6.832777209927972 6.910394174402865 9.11835904049739 -0.047294671320905646 1.6557976349569679 0.870877635032855
Ni 3.0154186063539967 5.92529000650817 5.249219641287406 0.206177019613832 0.020706893530048207 -0.4509650667316427
Ni 6.821810905261331 3.9673550328308997 3.525542733518662 0.5732960982630966 -0.06772285726827046 0.5103354382701598
Ni 8.403192825799394 8.933487352223693 6.98479540676545 0.13356520968437643 -0.09321868754652977 -0.9651530459786732
Ni 6.579634481410077 4.775487330572702 13.062809977326312 1.1259809480337448 1.1333461301495642 0.27890967139186806
Ni 8.848612047466485 0.8310994291383142 4.529900506478966 0.47123512983458843 -1.2450492496535268 0.38030652387381597
Ni 3.606820385831979 1.3667834817952305 12.598558931542328 0.023119873846915023 -0.3741096510344848 0.10592199404581114
Ni 2.215953675360555 2.0639734851580167 1.4001199355925082 -0.011505943757070505 0.6881156519088537 -1.5081165546964994
Ni 3.032197145193069 3.4038649552559272 4.278305853091525 -0.56506933947793 0.7765721421800497 -2.162144520893025
Ni 5.307988095805675 5.260720819816488 2.031454637507483 0.2048845260546536 -0.5514237236700374 -0.5090370311737105
Ni 6.274469012580095 8.981737238774729 1.5572718091200841 -0.05988099262634849 -0.426580210129375 -2.8649496564932533
P 8.966210137915366 8.152080207781916 8.857511161988866 0.5281927781665549 -0.5102356794675019 0.1394106127215599
Ni 7.328272490605378 0.44634528577207583 9.224645985591886 -1.7096601893033783 -1.2795873926397123 0.022938096853412106
P 0.04496184913323391 5.3666851720095465 6.87549574060869 -0.18910900838795175 -0.004930090311765703 -0.05927884026597533
Ni 1.7451627073937177 5.4025689973388555 12.14265265960527 -0.7944006857210383 1.1163938185659419 1.1830432402643756
P 1.4090264660436578 8.704344423183343 4.893616586919637 -2.071847377868664 -0.08343615423846922 0.703258421087563
P 4.09235051222651 5.6272345593851325 12.645447995164316 -1.0035031065117814 -1.3887798299066791 -1.1337572495450539
P 0.8248005246404415 6.731095556598809 1.9788673596178836 -0.5816223587406048 -0.0957432537405964 0.27833785804879807
Ni 5.149379919266156 4.901845486879552 4.829714455711269 -1.2165778816867112 -2.354338081743571 -0.9859560987669536
Ni 3.0659674308233127 8.290489248337824 3.7769751634642876 -0.6463763631885383 -1.305935286505622 -0.7339846465268263
Ni 3.7561771912326063 1.2309143968425864 2.986629970874094 0.972838587548389 0.9353454756989374 -2.9097043350011242
Ni 8.139157951902542 3.8591380922743626 5.467520482467988 0.5560784488332294 -0.785532436697131 0.891943968784851
Ni 6.588107180028261 1.4880246472517107 2.791490002229105 0.7372257791719433 0.8176365163205274 1.9048321160559585
Ni 1.2187337338400777 3.6577492766506885 10.254470057943736 -2.045840412281941 1.1601933322493956 2.7960888289657975
Ni 5.2635110630156925 1.8405222814476065 0.890621527417698 -0.6590228483079554 -1.066157548118209 0.45259694590811084
Ni 5.954925911849891 3.5866397896702877 6.595803060107928 0.9402799368860774 -0.6294358786794578 0.07220557562997242
Ni 9.0497783852271 1.6121302151950825 10.105228199439024 0.7772871659692033 0.3947813204512233 0.1325611938998943
Ni 3.741771749599502 1.0093264452352997 10.101293122236157 0.2887780795455156 -1.340260542150053 -0.4165752763978632
Ni 1.7302381507468079 3.030102145315926 12.881888198113018 2.914056698432549 0.08343306891467565 -0.22197670565025
Ni 4.839208698517335 7.548507035212386 2.5180786133953896 0.26735333401283634 0.2546677681253679 -0.6146926589320124
Ni 3.13908848848221 6.074711701285524 2.85650452275277 -1.3715189859437025 -1.089602923625343 -0.1248183167296818
Ni 7.044752263868896 4.859278055747496 8.365134279358678 1.4499823695579288 -1.8504756527922646 -1.4052246057262638
Ni 8.674689978019702 8.614157459445588 2.3748056505583435 1.4847593680277977 -0.17027773461406157 -0.7412670391208525
Ni 5.375482317511358 2.6473938712987386 10.758677200942113 -1.3625124115697178 -3.1349165168695365 1.0697051562601514
Ni 5.290653362308953 6.859372584474547 0.1531018494287964 0.31074944161028417 0.660855787751636 0.9788945639344818
Ni 8.012707096486084 1.8844153098470584 7.385143394349969 0.21256235431488552 1.5575616967015047 0.4413388564957883
Ni 2.318154443703524 5.736730747654263 7.505609595250125 0.6106426572323548 -1.2625175816416194 0.16503216994440612
Ni 2.81616187025131 1.1722451303715977 4.987721015029432 -1.071560207191019 0.2655836437069233 2.4876878329830316
Ni 6.856526721809577 8.45486330949497 3.5793925732811234 0.044232230345498016 1.0380780162731735 2.979131319444695
Ni 7.160023606666613 1.2978895035344642 11.68723398498475 -0.1562294840511116 0.20092477007595722 -0.47358794633748125
Ni 5.026108643309257 2.288129202101449 4.7301426341167865 -1.775470402929968 1.6375718559775605 -0.4587290269477777
Ni 1.3373700543165692 8.61428723819904 10.25797037632254 -0.3404557104254653 0.5350542811730785 1.2871670047591834
Ni 5.049366849909938 3.29017876723251 12.869623178920765 -1.3921970831183441 0.9503157238555245 -0.14856271153447317
P 6.494490349235004 8.841001450567656 6.127577076503948 -1.4388224962863672 0.039649496070822035 -0.9966251484450256
Ni 5.331422430714611 6.989661183028781 4.78762813295808 -0.5884666353559478 2.500562889173487 0.5195356167121892
P 9.230059613593001 1.9393766119337221 0.8398724728716283 0.3044219567303596 -0.24348912580072904 0.27361268465898686
Ni 9.12428992953012 5.983421618143432 9.42936548022378 -0.3665444370927171 0.5566407490946027 -0.12633963847021468
P 0.6795864424482013 7.415604321767202 12.238954056612778 1.1674998932131377 0.6557248942829739 0.4119506331416583
P 5.080773308245175 3.218985851053462 2.638597652788022 -1.4805281035552695 -0.9776938587581615 -0.31758754757804014
P 6.994064390735168 2.7296736009869194 9.525043012223625 1.400398902202846 -0.5344978944489763 -1.8044338800418536
Ni 7.004029545018041 1.870427014207191 5.18896707402431 1.5420797990158215 -1.1365278703116555 1.142667150440174
Ni 0.9788098983523016 4.567572497632615 5.000202950138168 1.325878305286452 0.13639008072768122 0.4141702665007964
Ni 1.5715650848305622 4.058487527486657 2.586566569556072 1.3655583974848935 -0.340057189435466 0.15638940666774356
Ni 4.876167833518098 0.050142802369232596 4.512575042893205 2.377779343485647 -0.6684130312736037 1.966111788802046
Ni 1.0701834106930406 2.4911587919651867 6.621730074074227 0.4026290986304163 0.27829080686094654 -1.0735026756293706
Ni 1.0064064232826433 7.49249823318715 6.714518174827586 -0.5279562366757166 -0.10087928941558111 0.31933126974202425
Ni 0.07660098223358659 3.7309352236863114 8.424206786956463 -1.0357830495914098 0.22327485563638325 -1.778527701699053
Ni 2.0616930870616565 5.5907574597543315 9.871664449861463 1.7778250192050737 2.4515718039867647 -1.2725543970523312
Ni 3.4760775616406647 7.8972503554691516 12.253349301343825 -0.24143764258833905 0.6971553935136187 -1.0089949828642881
Ni 3.029277123240413 4.515633186519177 0.701552423460945 0.48078986340255914 0.0648841022678947 0.10446700676683943
Ni 1.3481695005859171 0.3674768833174742 12.356841368283636 -0.8185999086750612 0.1769237791756695 0.3862054058567542
Ni 0.21217157605329243 4.4945904886381305 0.7266905680044793 -0.1542070543044441 0.6328045380413747 -0.5118963549993765
Ni 2.425500012629745 7.035621401572495 0.5065051539255635 0.11181264849863323 -2.560734416457061 0.5715060962422093
Ni 2.5585881242941446 7.849992349390925 8.722433727432275 1.5623773729225932 -0.855551803309062 -2.056435414188968
Ni 5.645375775135444 1.2177882029220743 7.6286797141391745 -0.8499917927227812 0.9568771791231263 -0.8135065533125538
Ni 4.214184951984482 6.977740077533175 10.203700609593552 0.6559172127994382 -0.4547947248903781 -0.4252810317019773
Ni 8.963799961065554 7.155889226378089 4.586449744313216 0.7571775397035219 1.0206644487824164 0.05075948994105452
Ni 4.593732186364032 3.2695254056118173 8.571563145571746 2.199996815854108 -0.5658841220697416 -0.054965557602602105
Ni 8.872917754005737 2.8658393230903094 3.1662224448556073 0.6916246935033766 -1.6403031388657945 0.3151614546350508
Ni 1.2863299245663298 0.6105923491490584 8.100393038246612 -1.4143450799702932 -0.4956948055388495 0.6202544692905059
Ni 5.771696851798452 4.642121121579478 10.23269411010569 -0.30596976083345373 3.5352964144544594 1.1616107814222123
Ni 6.488715194706418 6.89826913086612 11.60629004946602 -1.0127163975799331 -0.05907392334402084 -0.1618396311490374
Ni 8.105777002532653 4.096447812871189 10.735584925747633 -0.3223021794448901 0.07305841054857096 -1.0216116431870341
Ni 3.3511655114437024 4.117193873601489 11.124591177271595 2.1505984679266383 -0.8201595398526971 0.19173719003941816
Ni 1.3952977279106928 0.8652275333316454 3.11431372444834 -0.7298307722594528 -0.06913105046970675 0.4967872672720799
P 3.1075707912154438 1.0401581690909656 7.180492497059184 1.3271831401408045 0.841019414020842 0.04997993146255263
Ni 8.50958359389665 5.804651385264143 12.189893979843767 0.5302154650235384 0.541241640930713 0.7148535821243301
P 1.8702508858989353 1.866385333028276 10.81717960901581 1.16356147739068 -2.3250195352851115 1.149059170009447
Ni 2.562713234671707 2.725743158739535 8.762308249430214 -1.5154025468349515 -1.1571080084558523 -1.3546389223589121
P 3.912013664394843 8.753048535371459 0.7362061316057543 0.49709862786491166 0.9508713392486785 0.1894864463320285
P 5.553288479650723 8.759500393400184 10.386983435128565 0.5064124490666698 0.0032419039760653847 0.3033387509685098
P 4.248168445566824 5.303492188989681 8.737995126962193 -1.0801124676364044 1.1757629045528784 0.17035512481921627
Ni 1.5132480749760844 8.968601774943256 1.0429910538805902 -0.48041191123785004 1.2192006640215391 0.5394290132020064
