# total energy = -381177.79960680153 ev
CRYSTAL
PRIMVEC
9.16462463911241 0.00000000000000 0.00000000000000
0.00000000000000 9.16462463911241 0.00000000000000
0.00000000000000 0.00000000000000 13.41335453379944
PRIMCOORD
 96 1
Ni 1.8340988148085327 6.249034661705594 3.258022453730692 0.7693275448024944 -1.6190588847750373 0.008132142188831156
Ni 1.9811884396545136 1.924455949517234 0.3099853799620891 0.27092973851018504 0.1670142333714414 -0.17279818704307015
Ni 8.312492490120759 5.113274954566679 11.727369907843256 0.8185945093584225 -1.672457869221468 -1.0504031134974297
Ni 2.556173500856623 6.864585818725877 12.332746334752967 -0.9173822063522975 -0.3096703496134925 0.17105035111402803
Ni 4.24245488465962 4.664045700158607 2.7196478618695767 0.00547567840259057 0.2941539991454482 0.18891720409211982
Ni 1.8728908831127917 3.601175779899082 1.9452611983458012 0.5451782569809578 1.3851720579507627 -0.2036128584310816
Ni 1.1353958040591383 8.395680734157848 3.222963121267248 -0.45906301324842874 0.604302831057256 -0.2724171216889889
Ni 4.326853106436968 4.471868483728219 6.782827713792313 -0.1256978911211577 -1.2110584945303788 1.4747888870786472
Ni 8.404259749263598 2.997151252930745 1.6176529019877974 2.2925351895041617 1.3091355386104744 0.6894904207691932
Ni 1.225061522916263 5.955101046592481 6.056336154113426 2.0950371857215657 -0.4381648296431809 -1.965493438491757
Ni 2.3349750138139966 0.4824108469798648 9.224493652050816 -2.1906346579129172 0.3171782279547634 0.6310687862971907
Ni 7.1766054169039215 1.8716263199105656 0.13563668516769042 0.01580945622843084 -0.10026248176718862 -1.010552557159395
Ni 1.55906996468985 1.1673919823485566 5.279592308390392 1.1915931867169156 0.6886887508035042 -1.3588146510031565
Ni 3.4824978880067134 3.0572680417099534 4.2553461512607305 0.8786487943378416 -1.1028515611051328 -1.6610815090637263
Ni 8.011844863185756 8.702250883716227 11.398749960923471 0.9097110629602848 1.6269110338296044 0.07952164967541142
Ni 1.5535932233392018 9.0684738456271 12.04965157287102 -1.334920360884062 0.4357693328278108 -1.092654308857157
Ni 7.153652230146969 2.9023363054947717 3.818459579561005 0.031723299245209884 -0.558299110633632 0.5862210338548807
Ni 5.310164715880182 7.254426090514295 1.8603635195914585 -0.4586902032900423 -0.9139215014972065 -0.7470795320375715
Ni 6.825093236993047 6.633907656455053 11.987256750812405 -1.8755161407006602 1.6871949183213266 -0.0332289372564589
Ni 6.944735472046825 0.5393871521805953 9.483142314791023 -1.5469708085595357 0.2633835507318109 0.05771021022727481
Ni 2.261266445005106 1.4249352894839402 2.8058101038261456 0.09341460560741978 -0.1603846438700657 -0.26354681578255257
Ni 3.1711424129492625 3.9964564027301708 12.756330429371433 -0.8430960940442126 0.8134751858539861 0.27956247448451854
Ni 0.3996965867041859 1.7385833539439879 10.270537603659136 -0.06679083237230432 -0.6803627474363122 0.22268504457118424
Ni 0.5330843508388526 5.032306519316231 0.26776261537322943 2.2133169300017816 -0.20457933610940895 1.186437610657905
P 0.8096570597734903 7.198139381649742 10.594869862541445 0.48440586288859155 0.5877765512674586 0.7176445146059061
Ni 2.6202932235133822 5.079695797880229 10.487855974113637 -1.47647424520087 -3.4940284089436084 0.761480795064566
P 2.6420637252610586 9.094110817597409 6.850575550154451 -0.04965931489834028 -0.5729695681616132 0.5993210615719485
Ni 0.1431430959457965 5.365023105156609 9.615375596405096 1.6660342250833113 -1.6264286948765474 -0.8910448540093493
P 9.03879754947126 1.558669671302095 12.505724934452003 0.23404417833774532 -0.7418712483637546 -0.4706453187693894
P 1.5917393636768564 7.6398176471524355 1.158239819892158 0.28898993844600557 -0.4049428343652574 -0.787072013270109
P 4.991449301034235 7.5404266184882625 12.918562971124645 -0.25806008163636845 0.08467928261695094 0.20236458784627726
Ni 5.962915865230699 0.4628565149880321 12.242056228726268 -0.814342676060604 -1.7907137022422839 -1.5486667082047199
Ni 6.626356667549674 7.828182978822157 7.903091518036612 -0.5779634218317788 0.6568836904777654 -1.6012416540879586
Ni 2.912934982693285 5.752434323887513 1.1104620747904979 -0.5812976284113345 1.0127462223766042 -0.060309852633650976
Ni 2.565789639739738 7.779074258206211 4.974527807824591 0.12130387581852012 -0.15023907079563156 1.1912558579821548
Ni 4.574552835264376 6.716795680451325 3.9820776822904707 -0.3198634880964104 0.46717432950165344 0.7438106314783126
Ni 3.3267018819770606 8.385664301886978 2.4682699826633203 -0.6505220099257958 -1.9985686237791707 0.46040281510577485
Ni 7.119627292187792 2.537232345554215 10.98728292910389 -0.08549869319445275 0.21396052021399278 0.454950533741952
Ni 8.73636679744535 7.064468682870549 4.564751105810576 1.4923652053995138 -1.0396361047889127 0.5515983015746887
Ni 5.933858204310482 2.0048330422630434 5.833625649774324 -0.18837752953856587 -0.8738022648788178 -0.9611945755515575
Ni 6.915050078313993 8.218423543998329 0.6258505239356797 0.9292427052353093 0.3444136666319488 -0.7778949747565312
Ni 4.253462952822883 9.004909075167 8.4617709919916 2.3212361569832796 -0.20517171827776923 -0.39373128192015416
Ni 3.9022782856838076 0.5389213562384805 4.522182633295927 -0.37117885054093497 0.6650274026308225 -0.3868229848360951
Ni 3.657908270036362 6.707170443991215 7.0704366933788965 0.036845965183755894 0.8546094940004507 0.11024170446708756
Ni 5.505253156948788 7.391899576477162 9.87234575618983 1.143385259553121 0.571333575220087 -0.5336959673729712
Ni 4.677810334151183 2.128887602159122 12.988654343320551 -0.39129516167483575 1.146104201146181 1.1258660197224353
Ni 4.688054205846913 5.3569808470935305 9.039571753273487 -1.0010636438323532 -0.3200660910255198 -1.171883109882498
Ni 7.086730453775925 8.932546947753286 5.4962183532356175 0.7683937201343154 -0.32591097984207096 0.6624213324665431
Ni 2.173920608281562 3.3245002683444076 5.863265555622184 -2.1527317122195573 2.0149555497776266 2.4463704622914837
Ni 8.063764735092981 2.9181387967341004 8.656879447729596 0.9349945201174221 -0.2541430059701494 -0.11095107182928635
Ni 8.50974615451404 2.360302668166496 5.854836650536844 0.47224094539128353 -0.4107596981573506 -0.9053288747321891
Ni -0.09085204289719859 7.262723080733217 12.823039322440808 1.5810065579880062 -0.7897516169848012 0.3181835292908262
Ni 2.9886359208639566 7.061903166158119 9.85365114522397 -1.6191704706522372 0.873252820133251 -2.914516668788103
Ni 3.444661065286869 2.8597778403148175 8.630182608039433 -0.8443052838609653 0.5855569179083205 0.8461569923577233
Ni 7.39825878279627 0.8422209268673613 2.177611495268203 -0.5473572669101476 1.2404037804617152 1.0049352109726177
Ni 6.496343194722241 6.405676742395729 5.378591231486106 0.26841905627318935 0.34139082064522497 1.292856856055109
P 3.240402266607876 5.473939296933952 5.160515032867967 -0.3577008706591582 -0.4255142307587059 -0.16671958494915803
Ni 0.37938351679101745 8.653606139526998 6.189954086946052 -0.9688297234993121 -0.4689974987533213 0.5554840097823402
P 5.022008062158533 1.4323589123113971 10.492342899087292 -0.4209453804411008 -0.374302226661265 -0.6345469746537781
Ni -0.1367957164767811 9.091845520925796 8.738022556458334 0.5565132223778029 0.02902672624965324 -0.8820881590366938
P 0.18687059976953527 4.843131503294006 2.924649022831316 -0.684983276927459 0.4655059406602951 -1.8986892363830137
P 7.470993910866756 1.0616781376732536 7.184641306663104 -0.187417993838774 -0.00483418816384974 2.5034594939949915
P 8.79884895624311 0.6056184224577618 3.8554758008359507 -0.26280093875546356 1.629145322476762 1.216693067108337
Ni 5.32214622478185 4.360459555854401 4.8217358217185 1.002794510480531 0.12549143153730646 -1.7280523186573207
Ni 6.857125805590443 3.9130498168452155 6.5181082379237205 0.6233086827357975 1.1131226040138378 1.096061277656177
Ni 4.9213797630231175 0.7029861499983728 1.830910114071984 1.379890240726533 0.8552782379327013 -0.2829848699025062
Ni 0.6338727673293701 2.948815826359326 3.8324407358860486 -0.17866878689123422 -1.236392088199161 0.5208000852469095
Ni 0.2983932473557835 0.3941825452878605 1.1459135128224014 0.32282976981358597 -0.42268910260508497 -0.7566800312418129
Ni 6.666013005668404 5.688460162462666 3.101461341475807 0.47978584761807685 -1.2085146450626025 -0.4997072691323523
Ni 2.305735401353891 5.334409758570343 8.128664120098161 -0.6124876808608936 -2.3560838607900845 0.8598640575311708
Ni 3.393596365617121 -0.11133796677326122 0.14535653642854188 0.3087951460973908 -0.2436040541120385 0.12237731138835699
Ni 2.89219250714598 2.0134393500997763 11.399948111813638 -0.07694540430780296 -0.936686048887232 -1.617632436741156
Ni 3.939696619861908 8.536775055764497 11.029612135343584 0.5341939900553123 3.0806829523369523 1.7758547828525801
Ni 0.8983739013500956 2.0007209374615598 7.661086872407719 1.494118954865827 -1.5377734583309839 -0.6042519232146626
Ni 4.643858176807961 3.5959992585892504 10.720166241697264 0.2861941208684232 -0.09991461150946665 0.31852214357716757
Ni 8.37714896982019 4.724817514481414 4.811975031361174 -0.2049158935132213 0.36752582716938 1.1849972786669527
Ni 7.421957970866766 5.186837962143658 0.574552926294874 -0.9258311084505991 -0.6783207773056189 0.9144532056309606
Ni 6.103964698952376 2.960742749799027 1.8231871809614102 -1.7379734344257745 1.4422464343662516 -0.217501957708348
Ni 8.467487909374903 6.89601794724164 1.7966759318419354 1.6124912588598488 -0.6969283651044772 0.9114208465625401
Ni 3.8656514407042235 1.814720975810392 6.647518541396423 -0.8212982814428307 -0.48602565788020163 0.09737333314485165
Ni 6.870007974614559 4.733851408436885 9.66344355421288 0.28032094991709783 0.11520239090647257 1.046767059406739
Ni 0.20076623887083117 4.329245769186504 7.238541721082017 -0.22564978362646299 -0.24861950504875893 0.12689422542210405
Ni 7.235739667367731 8.027383524692246 3.423530123201901 -2.7562449574959826 0.05064456162974504 -1.6393777988380478
Ni 5.101793812399705 5.0207707916872915 0.6104710700265921 0.2373588445332751 0.1166514646481733 -1.2895352478810436
Ni 7.875745111349048 7.148539391876097 9.671060045672617 -0.10527304760790257 -0.19486802235891598 -0.02743984137850758
Ni 4.924200011891392 8.309772314599424 6.220406406419515 0.17901151494263365 0.8750909017832542 -0.8536049639953363
Ni 8.465131636933345 6.644579114269521 6.96047973879339 -2.165828397502515 -0.7375996175715943 0.820343116618413
Ni 0.8855217543300612 3.3549498585447726 11.916885173245074 0.46053008471225854 1.1902096761058276 -0.11540190851178835
P 6.458897567813158 5.591989456013706 7.738741060359095 -0.18031917801046365 1.1703363342206683 -0.375941562036901
Ni 1.2867521925155083 7.411795977363985 7.9761514296058 1.2435083875289683 0.7853000089713508 1.1618786903716183
P 1.3376986236843291 3.389411480199682 9.174202246425594 0.23846956109895062 1.5399218721325543 0.8920334431748638
Ni 4.552691357746755 6.0011165910303195 11.323519367483412 0.6863243643363857 -1.1426836055004064 2.2601822270947527
P 6.208996225353098 4.328763597605799 12.064497908768235 0.3593666883973553 0.4026527527795001 0.4609072655460191
P 3.9326641928452117 2.6523348896877725 1.9068466794868109 -0.8267356504083181 0.16515404023425104 -0.6256764116370257
P 5.8531990866778445 0.6292102591197236 3.842653675819998 0.4946815337829868 0.7519175768561631 0.2572388712866538
Ni 5.908557842688966 2.533784363873325 8.649116485280246 -2.205917809324233 -0.05332725066823074 -0.6065366054837812
