# total energy = -340896.4462335828 ev
CRYSTAL
PRIMVEC
9.02673250148082 0.00000000000000 0.00000000000000
0.00000000000000 9.02673250148082 0.00000000000000
0.00000000000000 0.00000000000000 13.21153545202589
PRIMCOORD
 96 1
Ni 6.323632205240513 1.981873245050334 11.345247635474266 0.6124941086187968 -0.02183020850121402 0.9467758290230661
Ni 4.6926641530707505 0.17614946017672586 6.1708439283527445 -0.6619495350364472 0.6068708488947484 -0.8300672858847123
Ni 2.6894878197043663 1.6853992481637392 4.883181463108772 -0.06816148746758584 -1.0433150963023967 0.016128273020430288
Ni 3.4830910466036094 4.149796470304955 4.95814396180396 -0.9913379319041571 1.3555177254194397 -0.4296081983224214
Ni 5.061848478934373 4.471184248442524 2.716225903560711 -0.043427217945699405 0.09898721459919081 -0.3087650641904037
Ni 7.140632722358063 6.063229030773808 2.5375399315972014 0.15881369983852006 0.24857425363312027 0.7730695283434299
Ni 5.15979755152652 4.367656655265921 11.560172327079139 0.07816899230225892 1.0649979805924692 -0.03792531429086372
Ni 5.527393172498776 7.9925486401563255 12.218701336629348 0.4538704133038957 -0.6460925133995324 0.5105786646292174
Ni 1.8503988885574205 6.545626633611967 0.40214814701301 0.11466888700050575 -0.5240062508890331 -0.3314725330902485
Ni 2.6915007810155864 1.7604655542808056 0.33531963682697247 0.8665450690957722 -1.041678074919606 0.12250998031147933
Ni 0.6748791298327793 0.015492580710524369 4.596636871793218 0.08314664802250842 -0.25824854349809073 0.47411270849269954
Ni 8.543477194899339 2.217164050154645 1.2673387773865201 0.7781302306957889 -0.01893488923128997 0.663174922803116
Ni 6.802608676522833 0.7289754340570416 4.647580138412058 -0.4246837644376105 -0.7719433851587867 0.9837156394722092
Ni 0.8293129800256396 7.342226735647197 2.482368543551565 -1.0872948443174564 -0.2966870499799471 0.5477200495662051
Ni 7.594884973768492 3.775837003034895 3.748125837432589 1.133651577205125 0.22154681720168298 0.42023189931384397
Ni 7.6696263175214145 3.710907717332628 12.807724507182275 -0.6789910638997662 0.7171112678102554 -1.0722868009443984
Ni 8.095155506634523 8.815642201601559 6.8107977280992404 -0.6942307636676559 0.041257721098206364 -0.24229304861009882
Ni 6.8626454732982785 0.5807953040274695 0.2371295504814205 0.017568605011382646 0.08709894780203709 0.5797883908556596
Ni 2.079804264177805 6.40577546951003 9.119936056711966 -0.8636572060250159 0.8560030319138676 0.6130762063745119
Ni 0.02264536341460845 4.934490312387273 1.548140561589078 0.5966278310105015 -0.7413616557171877 -0.44054644250147995
Ni 6.414359891962812 1.886632192159381 6.91250011599724 -0.4554655257051575 -0.2129541904366655 0.30338785903889043
Ni 3.4767542805028184 4.318316536310187 0.4559790653065554 0.1845085335014629 0.7883634783880229 -0.2390190058445174
Ni 5.991204733454415 5.574278020258762 4.916857493439573 -0.46696092793926675 0.16819539816373613 -0.7379839974942065
Ni 5.2411915970120395 2.9101372649575605 9.416521985079543 -0.04117878823115489 -0.0020579109702932303 -1.1785350679813766
P 0.13326526018863571 5.39401417548269 12.36586505659774 1.0819040123191883 0.9669749296787605 1.1237170917002324
P 3.977602524238438 6.251427373274375 12.607146903954323 -0.18744987551797393 -0.6499306561987 0.11917320262876249
P 2.3656899040327355 8.43960658589392 1.5771930996167087 1.6913678187520933 0.12210503156357681 -1.1291493184593973
P 6.192175902212274 7.636624584096211 5.806601738443799 0.8712604722935705 0.06952391503275122 0.19945718439149518
P 4.661350418592624 1.1960239812288398 12.641378078323868 0.5732153656238321 -0.25432221186049103 0.15915565655897107
P 4.111929328149941 6.015206814739321 8.24677211366491 -0.7186971242401364 -0.6687873838938869 -0.696074244634298
P 4.673419159727607 1.1440119495012622 4.049467951068695 0.742751594086179 -0.8607107218021821 -1.3473439313593956
P 0.11483357542908335 5.6692302177149205 3.7906137638710713 -0.5788157425297451 -1.4908634240430065 -1.2333018793096115
Ni 1.5068234023347447 1.1260848590793655 2.4886439278724626 -0.680668451602189 0.7443325654200535 0.14243654403207728
Ni 1.7633089749670579 6.504040477733983 4.758385083199 1.5250454692413542 0.11811185124378369 0.2993404284423941
Ni 6.164301352754663 5.563093898892836 9.280905261117038 -0.5806715647915612 0.41648708755943115 -0.422413480346195
Ni 8.531038357738527 2.2855505743421016 10.171904221916149 0.3455475231260759 0.2460885110967891 0.10942923586812123
Ni 2.344459029575384 5.026147752540315 7.0956913300703 0.3088074873925649 0.44771262123261607 -0.06228086031709273
Ni 0.6902038133218297 0.08365433926278246 9.16274172412872 0.18501632637581686 -0.46476237762605116 -0.004738028905617646
Ni 1.6037434274404372 1.1142508129851527 11.375475454052214 -0.6125979811865127 0.06681602918328493 -0.32760148017061647
Ni 4.098470470235013 6.964322586345734 1.6490377649625891 0.12094829225131427 -0.630685691926159 -0.04311945689729348
Ni 5.519928064855821 7.626857659707241 8.020432216346276 0.32174604983110394 0.7401257264275576 -0.19086275785426485
Ni 5.414324323241637 2.9930568282080863 4.876272402177795 0.27565054102462205 -0.5293803707167528 -0.507298708326365
Ni 0.8867582019470439 7.2512282469547795 6.8676995407339385 -0.9318811712994208 0.09111783915344307 0.8148095883946934
Ni 5.134992091063593 4.424615336314344 7.0116262744861695 0.10365428105755697 0.3768918417653122 0.5198965995960336
Ni 7.96049471362654 7.3193710493691295 8.96558525245661 0.7247204476160809 0.5340955168042351 0.2746719791614366
Ni 4.55547587500832 0.4873966072065613 10.45060187481088 -0.3589136600203367 -0.6992600985614473 -0.3459100486718172
Ni 8.049994764750965 7.31450564063932 4.645717020857638 -0.2805981148378845 -0.02783681970661012 0.39436840128352085
Ni 7.294159385951024 6.0321048576747645 6.971488909148324 -0.6413642546859277 0.3789312407928442 -0.07328492473708023
Ni 2.271974368906788 5.201627429177612 2.6740674528525408 0.25071058324983275 0.011161673043774327 -0.43656457503559654
Ni 2.277859798390714 5.234015344803879 11.541979850726525 -0.3657749059165442 -0.4190327367994203 -0.5755558408315506
Ni 1.1729516533746767 3.288483724143553 3.700418654356674 -1.0162118123277015 0.29367268863365553 0.2482950318298046
Ni 3.529307916170634 2.634244217800032 2.87262397071017 0.3153609722403665 0.18464711596185618 -1.1578207182521607
Ni 0.8386159303724708 3.306943391773351 8.17934061775874 0.20084043789226702 0.6137071550902914 -0.3262261970896446
Ni 3.6151431139661105 2.6487772568631005 6.907664495484142 0.2558414767184949 -0.347097384111699 0.6326782968761555
Ni 3.9474893451611734 6.841459732502613 6.094772044253302 0.33577270312749913 -0.6369337297183999 -0.4929635226506155
Ni 0.9704369133871371 7.48390129968127 11.276719391589113 -0.7113566247146652 -0.6010781534723713 0.31610247839208144
P 0.09856379306431662 5.692663614862576 8.127023482478162 1.003166034887337 -1.222275960512753 0.24428951021483739
P 8.486220631683784 1.5776290907886008 8.01052357225961 -0.5263539251856032 -0.25718950610595703 -0.28781314452908496
P 1.6057834689486692 3.2181293723065627 10.27463746264707 0.6085500363693842 0.3473141281081954 1.0895239907582914
P 3.927224331063914 6.0315813071992 3.82436922944644 0.3448893207167867 0.8448153907281644 0.20643824369501867
P 6.951080370006901 3.9768803856514534 10.442411017888006 -0.20343442387168836 -0.6221912813019026 0.4100881260116228
P 6.223011219876524 7.835519604416489 10.120656754417542 0.004392986861373079 -0.30035267175699243 0.49975380609957154
P 2.358170635995757 8.381781338541114 5.90942705184456 0.8279186149728258 1.397967152832902 -0.3801388879477002
P 6.99221518926802 3.976113113402782 1.723272709031389 -0.6615409867441187 -0.011604931228780013 -1.3867651134694954
Ni 5.414847873717201 3.029885896144309 0.4951975092924642 0.028853176786266435 -0.81814173809172 -0.08259180396030291
Ni 1.3453080806232651 1.1428745812267613 6.870566430924267 0.16390242721533707 -0.057932867761042166 0.5045604834595956
Ni 6.737814791805625 0.7860686134172908 9.108904487122539 -0.5303357926514867 -0.371450873255399 -0.14919725979467854
Ni 2.7772096045583408 1.8333834981015922 9.11051575884475 -0.48305526239796803 -0.7472469108533711 0.03259927409225998
Ni 6.421879159999791 1.9030969519426335 2.52294099738807 -0.6093231670899828 0.028890200671788952 0.29999837374136723
Ni 4.257575654412431 6.667622921150706 10.399579172947472 -0.2794470319525768 0.8988178130865488 0.30012847156132827
Ni 8.32163622097762 7.283914044748177 0.07446693108986879 -0.9069545832610703 -0.8073731867213062 1.1825701572826988
Ni 7.409836960853645 3.757539816587169 8.155784457051297 0.6117957970001916 -0.14125460790883415 0.30478859604115893
Ni 3.181670400396169 8.416227349140286 12.546783339468266 -0.35104582723648575 0.20404711775502277 0.2987809563944983
Ni -0.054768795783391916 4.841614263368696 10.222293247169478 0.662005327975047 -0.10609657195046245 -0.542819269830478
Ni 8.481427436812673 2.317451046422154 5.623436701894517 1.5689164595926914 -0.4902044718482396 0.559876482423081
Ni 3.626733438287216 2.679793109174096 11.341059231669753 -0.9105351015234772 -0.012271618278501446 0.32098937417073753
Ni 0.9896096928715825 3.1684191573249985 12.529172184678176 0.10588265616744345 0.9214242376321551 -0.3753062424457472
Ni 3.1648806782487733 8.525712585659514 8.119042948418745 -0.8487849168988736 -0.6123804658590679 0.06135603450997821
Ni 5.539714662139204 7.798862044394675 3.604304716448703 -0.261596119814085 0.15755925860612865 0.06350676230439385
Ni 3.058663118835652 8.606032449996894 3.652645576134697 0.7816562415711764 -0.7778669497320733 0.5901108558275902
Ni 3.332290456176516 4.330340143783483 9.429706430331416 0.3318916229055381 -0.17431128125348688 -0.18369529357154815
Ni 7.357554127155948 6.2819196751098065 11.45083422629701 -0.8914112362098325 -0.8183425412486165 -1.0439452736872281
Ni 0.7167234502556115 -0.0824393410901806 0.2941496133097374 0.2760390347122923 1.4588714445174424 -0.10622872665295252
Ni 4.62650723177061 0.3386288369018302 1.5033932440465672 -0.19232520133240427 0.15936057348092558 0.356014998316303
Ni 5.939319075979561 5.617488987957463 0.3248955663238475 0.04334391420327374 0.21599426281456993 0.27843530285861073
Ni 7.934452590833401 8.847705154863682 11.069100034464823 0.27664092996234935 -0.30303073280978776 0.21565719119012536
Ni 0.06344890159894877 4.828308859903501 5.963911505559326 0.4078263265606396 -0.23929282833119433 -0.5479568481673595
Ni 7.961866776941811 8.798184501261202 2.5916542892861383 -0.530754368246144 -0.4720429704478644 -1.077802331445989
P 8.545634583927956 1.5577341727171705 3.5858748370356186 0.022616451847935242 0.962005244378311 -1.0060081323218224
P 1.8560044893388896 3.3550468483988736 1.423160036339625 -1.3190551117170315 0.1611261500217806 1.4496859213634323
P 4.6019635465454645 1.08215175279368 8.214694717631046 1.912479348188571 0.9223632045066567 -0.5065973113839661
P 8.505312170577195 1.4748868233253436 12.279580327531864 0.1457298700713684 0.5210934481176123 1.0614961380867975
P 6.39215413041303 7.612243380053138 1.2142164575814536 -0.24244988590293728 1.037178901497672 0.5682533936328665
P 1.6564234373609756 3.2941615387837206 5.962022210481128 0.29187625885486507 -0.7569816216426318 0.1781921043651318
P 7.07632628118707 3.849856208200834 5.935427651668946 -1.4517199210743257 1.625135944207053 0.7964364852041445
P 2.587341316575372 8.492223408688096 10.355359919246693 -0.38626582678104443 -0.5613641227122009 -1.2834543317942864
