# total energy = -340859.8649838396 ev
CRYSTAL
PRIMVEC
9.34247714420828 0.00000000000000 0.00000000000000
0.00000000000000 9.34247714420828 0.00000000000000
0.00000000000000 0.00000000000000 13.67365965260605
PRIMCOORD
 96 1
Ni 7.398083341712993 2.0585120466205558 3.6332416708766777 -0.3787731179484251 1.8107809053058042 1.0421871533455405
Ni 5.508632759452562 0.12997534320387746 6.251104633825513 0.7573868275008504 0.3412532666260962 2.6612511803269006
Ni 8.845438568370778 6.577916625603852 10.806512316544696 -0.16208440016999184 -1.292569149611361 -1.7494012166467419
Ni 4.490667119634725 1.154253694751828 12.637934905467725 0.3598030046038255 -0.46155106977760507 0.404739974325832
Ni 5.580112051219766 9.268848969910634 4.152143398649828 0.6209910903462145 -1.5568083634752479 -2.627289735779791
Ni 9.31939177065048 2.7970909108145237 11.201284288992513 0.07917583630021849 -0.8242704766972772 -0.27343296454801297
Ni 7.06744373709489 7.997655490156833 11.035832757757317 0.18376702734974804 0.029263524850807666 -0.02409406483472625
Ni 7.959099087448266 0.6623096844527679 2.1004522945098945 0.483175075805284 0.6417378359752626 -0.3842601092049253
Ni 5.910265847032236 9.32595018952652 8.79313377646281 2.478272453206403 2.5140213286712383 -1.26914151471604
Ni 6.772810038955785 2.4341917330070135 7.432919570067659 -1.1722518060758265 0.4688638013889344 1.436740674056674
Ni 7.828687450567022 5.046703325112265 0.622645263968277 -0.22667745356002897 -0.6931354737209481 0.47133771685072373
Ni 9.245474092378082 9.244306282749159 11.751716876746622 -0.4440004624883514 0.09291015516717548 -0.18403776451263143
Ni 1.8067976879636787 3.138894775485143 12.762364554305766 0.8108608881595906 0.42534813749448686 -0.3727086569219001
Ni 5.2121585933382715 0.8568630316407574 1.8995451286928529 3.3240872317333596 2.43978586709543 0.19095094669269694
Ni 4.527962287944054 4.272697788015247 9.066101336118408 0.16326813606544785 -1.3035086793420003 0.5546391452835415
Ni 7.164231799140143 4.610643209671901 4.9714281849272055 0.14486726496075697 -0.6116852395642561 -1.9110595850229084
Ni 1.8108710079493668 6.69884564829823 6.817550227211433 -0.48981417838835645 -0.1964093987041069 -0.40228174259332655
Ni 8.819980318460226 4.443879994661499 7.313178910451675 -0.33496743361738446 0.2423660679398794 2.6583746301100537
Ni 4.829126377528105 7.036305261149251 5.963342327542997 -1.092388713900596 -0.6340412386619532 -0.6905306891082494
Ni 4.562650905161624 2.412283624368392 6.780302705534964 -1.5693260363262844 0.5868172726779829 -0.19745120970505992
Ni 3.9954504396315675 3.9783723916181772 2.569951003741028 -0.0310992925079658 -0.9286343822273491 -1.699766327228434
Ni 7.510697559849429 3.3616100854365696 12.542560360197323 -0.36450632361676577 -1.820578608122516 1.525864879818856
Ni 6.041378169690835 7.839935792912822 0.9812627845522982 2.363545202164136 -1.5112317032867133 -0.4765082053080697
Ni 4.751256831471428 3.380024107665449 13.146280568443103 -0.6440204613618522 0.9632195764013864 0.4191147549902653
P 1.1344289584912077 2.65583265809983 3.6484465522452734 0.3403844908678977 1.753329862277187 -1.1805654681478444
P 9.109597106433473 1.3360769827368386 13.352930554891342 -0.2321636734855808 0.606366141344188 -0.12996695081015683
P 1.7231638335786301 8.074403938969745 0.4410798283493329 0.5361475142372573 -0.028886601127363156 -0.19453480738921336
P 0.8300426485790284 9.10073109573068 7.101592359140046 1.0671417664083493 0.21409473179901192 -0.8678900131594409
P 3.639660886844949 0.6744904060063007 5.120771417264868 1.4016029498132765 2.6460770436896235 -0.7249222792142418
P 4.926615125350713 7.828052162128887 7.8638310464160215 -1.3176656875686727 -1.5297868405810815 0.33931054107742853
P 1.5994507527288966 2.8963640717501273 8.724615115666856 -0.3764658099714871 -0.39220481797329876 -0.10301510481166129
P 7.75500333422041 1.9911808146552914 5.726938420245171 0.9118281093032876 -0.09339480811307786 -0.898980306806342
Ni 0.047069267779574576 3.6910538529946537 5.407672347165088 1.2768018594747752 -2.8538314350929044 -2.9016251575374157
Ni 8.410069796230736 6.8110487974452845 13.056608671152663 -0.6145466202724513 1.2981705549585385 -0.9399408083791039
Ni 4.0627536441657375 8.669080629449134 1.0771698510134906 -4.069109109910954 -1.3793066003089212 0.5736503962787217
Ni 6.908565572698986 0.5582597150110117 0.2371643849281824 0.3669943801459421 0.3333319548964904 -2.2485839807341925
Ni 8.702152998140273 7.88854470090717 1.3342692134312635 0.9786125139176888 0.12507696970770718 -0.04768059390541466
Ni 3.301556643078762 2.340907099848534 10.648594558787618 -0.3863861544089926 0.5432859250542514 0.5292135061215855
Ni 7.0796076421897665 7.192277915188391 6.315302398994446 0.9464824661523634 -0.3691263388872804 -0.39845876930281054
Ni 2.0300081491977693 3.908574745716625 6.886178194988654 0.48278015435971056 1.3392560121449386 0.4165739908462825
Ni 3.118537518033733 5.719240219171302 13.57200977278215 0.16549239741027624 0.33295194584925236 -1.515411545696016
Ni 5.826678705032344 6.2045351885671165 9.66663482544878 0.7058722045613262 0.16417650681233018 -0.34276584661588066
Ni 5.702984309136673 3.1661561234627538 10.977993482455952 -0.7337424486090331 -0.06398781570587045 -0.1462183796720127
Ni 1.2479867668078146 0.9257077448851077 2.2260992681051266 -1.95335500335701 1.4951283699669475 -0.7401573509964414
Ni 3.2797045893023293 0.5309553916390565 3.142029176529176 0.3377899906678441 -0.8056911710331931 1.0606443316094636
Ni 8.76327148287966 4.1320187688765 2.900073969379294 1.6238226247122678 0.17186359104394272 1.575663805618854
Ni 1.3022198459750631 7.212859392088554 12.10401888285742 0.719086132148439 -0.0893751454307235 0.2098722090772321
Ni 3.7417554758440343 6.320241766600946 2.136058342971947 -0.3583780992318409 1.2001279636608042 -1.1052105482556127
Ni 1.5492816510703054 5.763112491310732 3.6893862208445496 -1.0603561109450836 -1.049583960030244 -0.47451817146123443
Ni 3.0219643329602026 1.2692502445312699 8.49688009280646 1.3383093319609531 0.9339200561063207 -0.4494571147275485
Ni 2.270390083215564 0.8536211921108633 13.004799030527359 -1.8726776428106007 -0.8936118434055771 0.1771523502467078
Ni 1.7481456171605805 8.13665286342993 2.699344310625849 -2.173393611444283 -1.5277857509906527 -2.294561218795254
Ni 0.9981502460342481 1.1275155254879754 9.789437949035655 0.21448631081047576 -1.2067529251764895 0.716001065465212
Ni 6.643108430328926 4.750780365142827 2.6042855410791077 -2.932560413663692 0.16485399249532898 -0.08281189039090898
Ni 1.9589305839429159 1.6193128588976426 6.263561892699174 -0.0028099586449693544 -0.1968256603059191 0.7910222561671086
Ni 3.05174814973629 3.1679031666676245 4.70027960554962 -0.7431853391894878 0.6499705082977 0.010467218079911005
P 6.091883600522555 7.264691454658735 2.9677172400774072 -1.0174809088481123 -0.7601736462173683 1.8987771681111298
P 5.1550200038142595 5.041116523847491 0.8300594650376849 0.12225724087072493 0.01699756299926105 0.6776723450883426
P 8.848026434508474 5.711616757913682 5.393465242343446 1.636473480707059 2.712300690704548 0.19846216746807757
P 7.779415226703445 6.123619994998205 8.100480660859773 -0.8774856272676759 -0.27153137664992594 1.5401316741505153
P 1.4529046580144338 6.879426386838065 9.765303528120452 -0.3098716669910212 -1.0170505061789128 -0.13549148017281182
P 3.3786787909729283 4.58184035298411 11.376197880965103 0.36938293498277674 -0.5680261081134088 0.3432636121879056
P 2.583848872572931 9.081635072678509 10.88521708004798 -0.21878699506835866 0.9146321544109861 -0.034580309078030766
P 4.984781387348178 2.148171798690854 9.103498337427379 0.6051947467439062 -0.436603655803648 -0.49784527622294905
Ni 3.5188906862601055 6.090173927225811 8.37841187856215 -0.3052477950657646 1.2673674535347528 -0.9529886427019975
Ni 0.1174190540736825 4.793512855084427 12.546485134798212 0.6808283742188209 0.28552871937028246 -0.21792541839901175
Ni 2.9183562626820314 7.508922489213464 4.319276575750673 2.2713953222017524 0.4386294279844253 2.35569562421273
Ni 3.605336626231604 7.086567787578156 10.511639450993586 -1.3325636877264277 -2.1838700854955744 0.38568141503248415
Ni 4.64070730075893 5.57431037298327 4.025525741691034 1.5474539188435414 0.7355813015899848 1.1457275345330526
Ni 7.287926195035814 3.928474221793496 9.352714517726062 0.4873009250481995 1.1814031335577913 0.01620103523989468
Ni 1.9209067024251376 4.367393135205467 1.1332508721375487 -1.1937634548953568 -0.2958537554453744 1.6232163585868367
Ni 9.268465928352347 2.8794822157543964 1.1949616699207257 1.5491773292925513 -1.0627040423519698 -2.0423519395127085
Ni 2.496478027375325 8.406472942573648 8.534100521299537 -1.9137862399254524 -1.72828680326563 3.7600154587365373
Ni 5.204105378137209 5.871289032857256 12.349666236930108 0.3257703404991486 0.16395976281583374 -0.39928589318979624
Ni 8.169435615333095 6.453820503195831 3.228460168537424 0.36116491794835864 1.0876679113861591 1.38704973458945
Ni 6.625890245160066 1.013546648181987 11.58930165054663 1.383388997908411 0.5039465040246806 -0.926822782939907
Ni 7.018349020294909 2.7481923860322017 1.2886573720685868 -1.8616586659922778 0.161131035117787 -0.024896249021047444
Ni 3.1993312594012373 8.885387000157023 6.633201667684835 -0.10671415092980333 -1.7619422865365462 -0.5111885302990745
Ni 8.703199355567788 1.4180852461184246 8.074145152355975 1.4529625352321751 0.8927600369282431 0.6340294115874112
Ni 0.9741587650176255 4.583811615637734 9.790750567058565 0.013962375717363052 0.9794638061743905 0.24695985795814884
Ni 4.916469195294617 8.853930879992316 10.589333358482074 -1.6962344028157752 0.8416326221248086 1.7285799090260163
Ni 8.778929474384277 8.01377126303599 8.35924111569373 0.3768203650974285 -0.17194046702846516 1.597294239404436
Ni 0.2256245572990032 7.861105845865963 5.28295495003448 -0.1756773083630781 -0.5536973501955625 -0.6132983496876471
Ni 6.258469308469361 4.959500644501223 7.022436353996145 -1.223179446163629 -0.5338309502889387 1.6892453730924524
Ni 3.5745905343212825 7.959603581207961 12.718965011504123 -0.42339872707759985 0.07592390502182408 -1.2300000686298882
Ni 8.001626042895175 9.309245840594386 6.5178641174937475 -0.7769020147156427 0.28002295906070485 -1.2891197576101798
Ni 0.2842046910289596 1.0859508451752986 4.686688169964347 -1.1832532993926526 -0.9305166868517265 0.4661062932484553
Ni 5.0647623332139515 2.2338796829768723 3.8276679603770405 0.11250993167597396 -0.08486620181677643 0.32292592907181805
P 7.941189558979082 0.45352587625055735 9.807185852652196 0.6135379765022788 -0.3198552605662943 1.2720494323914544
P 0.32862443232243055 5.870765854143498 1.6168828806217768 0.10565434220672126 -1.0428733807792878 -0.24683155991040068
P 7.05639158676675 5.02423466785176 11.466566727042084 0.5868908062283957 1.706856658416312 -1.5476374956092573
P 5.630514714804142 8.574170405287191 12.661289229550807 0.7248369185892871 -0.06574207939281582 -0.5422199456835823
P 8.887143385838925 8.813636776555908 3.413437476768234 1.3186167386280323 -1.8863926784038483 0.7485684578782722
P 5.237065637103971 3.8812573428768253 5.219837175210374 -0.9455571261246167 -0.878021702276804 0.8470054564009477
P 2.983080943555536 5.499000665633194 5.380120448151802 -0.6379961095446431 0.11005581370852657 0.9791002521873847
P 3.2210338335451683 1.4150863109913465 1.2683972763783034 0.107847236092982 1.9841426781618283 -2.3668071607448593
