# total energy = -381169.18281352334 ev
CRYSTAL
PRIMVEC
9.28144763142979 0.00000000000000 0.00000000000000
0.00000000000000 9.28144763142979 0.00000000000000
0.00000000000000 0.00000000000000 13.58433679169751
PRIMCOORD
 96 1
Ni 3.5054171118672164 2.776739945918309 3.8063040067894325 -0.587775522826194 0.063455083130852 -0.6407577314501803
Ni 9.184372893174636 2.7921193045138497 0.13894883873893069 0.8678938698141827 0.6899781590388891 -0.11634884580608994
Ni 2.1132185417923943 7.427886788086903 3.247824457201343 -0.26544171881242024 -0.3984104325633784 -0.5059252250176062
Ni 4.358957591748419 3.3120010263074806 6.485705699639015 -0.2585560474361805 -0.030434148120141134 -0.3367417519089878
Ni 2.331657409955376 3.142679578595678 12.250599331985649 0.4309091765220321 -0.28953295543366914 -0.6322946882844916
Ni 3.498298241593963 7.876032201742371 6.810384657218932 -1.622181232454103 1.7371319123610858 -0.7633816116317047
Ni 0.1244809182931072 6.641441892567298 12.36194978642534 0.26247955086030283 0.9523754345980309 -0.5569156000225441
Ni 1.1351395986432542 9.225833119394482 9.51171191362328 1.5656015362868456 -0.6673629927425345 -0.37446677726358735
Ni 3.669940051194049 5.6083146839805265 6.864029567786529 -0.7044141319585611 -0.7993122640900427 -1.3921497748201765
Ni 3.71740537398077 5.887444937693444 9.08335733058536 -1.4861444213007824 -0.6437780063337428 1.6349117926468941
Ni 3.8059967908754238 8.877732428914234 13.442121868224675 -0.9283194220900916 0.24959575291909913 0.6903579109758111
Ni 6.85383853837319 8.98345739799197 12.151365807326574 -1.7227692158815107 0.8021587323999023 -0.21493316853990727
Ni 5.233845401001828 7.261024923976682 8.049113563857947 0.8288203008514887 -0.17400249176381646 1.1201003208832516
Ni 8.97569810783755 0.961660062427648 7.756901109818889 -0.6933743292046317 0.24691897741788443 0.6038099505812374
Ni 5.954893217062061 4.497390382003396 3.033504695462442 1.7092418708190371 -0.045162198358935125 0.5050412797507561
Ni 4.648241749084464 0.9112738680959558 6.113848216001769 -0.38689240462144986 0.06625424314254397 -0.22964167839467547
Ni 4.6525390593015645 0.6379046088792678 11.478248314575476 -1.1671062573191449 1.2004400955845842 0.0866142948561347
Ni 6.522565112306772 2.219314768772256 7.479522265259248 0.939419131547679 -0.1400240779358427 -0.14764996991221668
Ni 5.515982843721961 9.041559259674582 9.65091042330139 3.9286669706010855 -0.686908776084946 -2.05975059460513
Ni 8.220930792816787 0.3099298092732335 10.096830145833618 -1.5036500342847137 1.5159283374314345 -1.5978611676514998
Ni 0.30505240858406213 8.799517670383983 4.2195391117633 -0.2914774807545496 -1.0359198322795902 0.2895828348349981
Ni 6.384800586275621 6.098857750058704 12.155726231387035 -0.15057459975817938 -0.028989702364130714 1.047954909067253
Ni 6.203153376213258 8.863114149018049 1.4186803962334202 -0.61420003556631 0.4933710425016793 1.286512916114952
Ni 6.997441094915261 6.191124620184398 6.931244882821562 -0.07083466342437478 -1.5066212010978957 -0.3511355587368147
P 4.565293452302116 1.8769592943273974 1.8967946758931977 -0.5793872987624988 -0.008209018173353604 0.36516041226099694
Ni 6.385079029702215 7.157694568367653 3.4671849731063515 0.36474800731392665 0.43195715817057223 0.2058623165868906
P 3.464857186060025 8.652972894967569 8.970226694504978 -1.0438568277384799 0.261412285938053 -1.155156026935804
Ni 1.6208377490986965 6.273961539596109 5.088488650872216 -0.43594519628404277 0.7341512540116776 1.3979213871966312
P 5.435865388443318 7.574691444034807 13.505113196478277 1.0819929724885688 -0.5295996858164105 -0.7815405419289185
P 7.8811555607917 4.3672830502035795 7.868645097634832 -1.3086377730384493 -1.777276088680139 0.35527786303996234
P 8.957868447087982 7.165982901032601 6.323046474980852 1.517379210945348 1.5746968137198945 0.9623317744797942
Ni 9.243421462507667 9.210546575274472 12.01455819853815 -2.9856755483211157 1.0029595753034857 -1.0867885941049993
Ni 5.519537638134811 4.5452362441397955 8.21029146948663 0.37837356851716125 -0.6957412867749114 -0.19103193644227748
Ni 2.0637205819915367 7.114136735000801 0.9589387420050696 -0.4733519190672751 0.025183698354479207 -0.037363271139806614
Ni 8.691602279683707 4.526422749949595 11.87639178582795 -0.3486647285988189 -1.0271708824423664 0.22449921496178757
Ni 5.751174724718347 8.059665641581104 5.991928977233327 0.919370697537236 0.03179117636866783 -1.4320831206800047
Ni 2.258454633103817 1.6366162099390222 0.47058702569418664 -0.027525459113778405 -1.3449870010914449 0.43139640057109574
Ni 2.6177023420953773 7.319757924092906 12.00672001607953 -2.3256623110754338 -0.9226632522455785 0.3224497607663479
Ni 3.849768097535998 5.333908687072154 11.499901931716934 0.09439882389756 -0.6078121297620951 -0.007896372028941239
Ni 1.534167591847542 5.022469714426781 2.3281648012411322 -0.32907549361298166 0.8722596029820461 -0.3544772215155379
Ni 2.51801959537473 0.2438254835103107 2.543585342659835 2.3711682659270323 1.2651617041326855 0.5171596602808448
Ni 3.1762969816331252 3.678154132278572 0.8329291692999613 0.7743396533051051 -0.7764991228502692 -0.0519059448406719
Ni 1.291689774521946 8.998456217237832 6.692581740440304 -0.06809720988855368 -0.7274267908036505 -0.8080678987954858
Ni 7.457076940641507 2.186272815483103 11.777457123780085 0.8498742933083104 -0.30319296941926493 2.507553461558707
Ni 6.928739820126973 1.9606408254664431 2.8376596550780517 0.43981753475525537 -0.2697349468711354 0.031548207119926314
Ni 3.971160150083423 4.986801111480091 2.411708966956392 -0.9422038933816677 1.486353451987795 1.2959617202326779
Ni 8.479168508087602 5.666175228026757 9.458203440334715 1.5471160758881486 -0.9931148212989219 0.18356365308969033
Ni 7.297129754958368 3.836365687269274 5.832272300858602 -0.5831678488508537 0.7634546309614851 -0.7603299692895744
Ni 7.727204190227885 7.4351077542832416 10.624731038313154 1.1122137190463233 1.1146282420250868 1.7836246566059861
Ni 8.097942331290223 6.136846714893677 4.774296800882583 0.030956853392830556 -0.7490657092296648 -1.4886656450607394
Ni 2.3998017978904773 2.3010100701349314 9.97492390109175 -2.4119719302069558 -1.6324270785518271 -0.6403242434571875
Ni 1.585456871026154 5.004482269068809 13.220018684567716 -0.12288896091745288 0.8227851504010023 0.8974044776787901
Ni 5.389903660160204 3.734344015765238 12.68402158538758 -0.46179918123266916 0.8069106452625909 -0.3679552013973147
Ni 1.261302315232989 2.68223624693231 2.4587649779060197 0.18451676103157902 -0.6005341080434432 -0.21333445659421968
Ni 5.293766426404854 0.2159031766914658 3.849312378461139 -0.745139120481749 -0.11594672527166483 -0.6755223886248753
Ni 2.0528520069068183 0.800614881498974 11.801324366162966 1.3978704793540377 -0.25757388602856934 -0.2767175488365557
P 7.770316514112188 9.04635776805955 3.0924474562933675 -0.6057902142360599 -0.46176241445746274 -0.417596518573526
Ni 4.203381967862807 6.910167643573153 4.38166836576618 -1.0831018892820314 0.24853131621032684 0.636944014131045
P 3.123689736901968 4.845685982882259 4.601164390805464 0.9996330820334139 -0.5085958298712338 -0.07727064885770564
Ni 0.8982464283103784 3.8085584704000883 8.264982399193466 1.637908670491689 -1.2516646980875152 0.5070372271348622
P 1.298121817676267 8.572855439688926 13.24789365600404 1.9004381007533204 0.08423936686605492 2.862885317765057
P 1.15062105316188 6.648115253358 10.284294039077528 -0.06848261825243045 0.5123455267216531 0.33669650049334915
P 7.01571626514738 0.0495258041435169 7.325014007842245 -0.9690125289340794 1.1808876273739533 -0.1915960364758636
Ni 4.274932647049908 7.560546517963831 2.129697751922982 -0.009390440075964474 0.04167912490634112 -0.407721168441343
Ni 7.8299590960886185 7.675422994328957 8.29776075937211 1.368209461954495 1.5589709183442053 0.8973011193317062
Ni 4.282506308253264 7.724429037409498 10.70595112956111 0.1184851754228024 -2.1342439378280145 0.7573441471883732
Ni 4.314582990996891 3.0598612220790735 10.68385014664759 1.2566482673450357 0.7444647201225437 -0.10699980049102219
Ni 8.410263041453144 3.1001055786694574 9.637149749159118 0.6440844818305682 -1.4503001579086636 -0.33191990504031227
Ni 5.32912874158229 1.4829525642493548 13.448669929473411 0.46584609760853324 0.5297812056995972 1.2497754514846025
Ni 0.881153714496529 4.053904255019602 4.471352209037837 1.5762718715164983 0.9633167641008828 1.011162165718936
Ni 0.47857371131365745 0.46409279684125954 1.754077569447695 -1.6130329902959317 -0.967875844226475 -0.7914423744236627
Ni 5.543771497696041 5.281180783522806 5.387235243988679 -0.40544959879834686 -0.2939393120314809 -0.9917554790575501
Ni 0.1777787027222173 5.065526349625764 6.657221281552379 0.2907532009940154 1.5391906503934847 -1.2864365543510619
Ni 5.64645215197635 2.7018943528498456 4.573411006332086 0.25958320314911426 -0.2769944566470262 0.9522965017309791
Ni 2.3739529664550023 2.051097813319276 7.0756326498266295 -0.4761690768010961 -0.6239540296292803 0.10128192417063847
Ni 1.5097759476779087 1.462570505422675 4.836662559571104 0.5818344747514108 0.2105772055640567 -0.19753965565380818
Ni 6.617384380509577 6.269376504504861 1.2815330864645527 0.18553800320724176 -1.019080135014432 -0.17304475583623746
Ni 8.377963603968242 4.332514747669544 2.980295084785087 -0.6159285882216424 0.39898661678182257 -1.3936980931439031
Ni 9.024481396176817 7.013822849846541 2.2248158827369977 -0.06800002218905708 0.3559856877402643 1.0266373785363998
Ni 1.3910847963684458 6.948834154079504 8.125661374407656 -0.25092912701854203 -0.09728334453420664 -0.21915749103389995
Ni 9.17451599587321 2.7594022018890567 6.280718433414789 1.0213727877033507 -1.6220243951612647 -0.06764109618774157
Ni 1.5263711759029102 4.538145218209202 10.393131077519831 0.24197448892841553 0.5865331657786609 0.6148860058897411
Ni 4.008666479645632 6.000233088359115 0.22635408663629342 0.24910004422960325 -0.7754765951230257 -0.5724388924691238
Ni 6.238060900460591 1.8341903840025613 10.053211054912914 0.19761833141054352 0.6613167865484546 -0.9329299242789093
Ni 6.68671679373148 4.125844755003935 10.576492570945257 -1.3994074848238542 -0.0866798579867475 0.9299225049111534
Ni 7.320286966603434 0.721554583096633 5.237780734764358 0.4354266047764114 0.8171050692970896 -0.4205694851589208
Ni 6.17694256832321 6.107508059178224 9.858112242911796 -1.6993215263815313 0.9224915025544049 -1.0190739643668447
Ni 7.649416378285078 1.175513895499382 0.7594850748120211 0.697223784857709 0.055672610971955735 -1.3256970425135814
P 0.33249672085392074 2.3460900609004978 11.444627198959006 0.8879397327214643 -0.028074903859345197 0.1576415339072898
Ni 4.5974536680737215 1.500875039474454 8.53559599663163 -2.6281315149547964 0.610345180596594 -0.7003839277532453
P 3.24042250277772 3.4941401530901595 8.474059071209602 0.8554386747699655 1.619308538891998 -0.4426148949947345
Ni 6.871863109521374 3.5399162524222105 0.8234323921635958 0.7161257639685344 0.28439846242058114 0.506322974676657
P 8.95460137754928 2.4443249018028554 3.9663950549096443 -1.309338141539584 -1.0736898519395122 0.3148876321483738
P 8.890410886271813 5.356880269766157 0.8538421269266804 -0.1301698108495823 -0.6844795978181631 -0.6770599083153243
P 2.9019745177527305 8.894411190167213 4.778100338089856 0.32199698949964545 0.2789824336113324 0.5382686743453181
Ni 8.02357009204697 7.901231331849126 0.14804929806477746 0.4717974300959617 -0.2748694398842234 0.8458093792103176
