# total energy = -340856.0689929332 ev
CRYSTAL
PRIMVEC
9.41802622447424 0.00000000000000 0.00000000000000

0.00000000000000 9.41802622447424 0.00000000000000

0.00000000000000 0.00000000000000 13.78423336819343

PRIMCOORD
 96 1
Ni 5.128134033290735 0.9361743950082441 8.992861530227746 0.349362783107108 0.3286636028865436 1.0708456976224978
Ni 9.222677377075232 3.4671332827934234 5.976209386995896 -0.9710267311506309 0.9541870338854728 0.4169609418720561
Ni 7.484910296049561 2.3035738334673654 10.377487480178637 -0.11956812407433604 -0.8737387586307339 -0.9724048424450801
Ni 0.6091748789067893 1.4209917740300422 5.089428771534828 -0.7546048938803391 2.1035699057829254 0.1575201778380771
Ni 5.453818792952273 5.604987529464443 4.845405832354863 2.7824799799331115 0.36236048091835654 -0.44677802523348864
Ni 2.5601491177986246 6.006666341516281 1.2247624917672975 -0.3396987776547827 0.14459498513597677 -0.3912131434839908
Ni 9.114417167355752 5.190434275769583 13.66031281811366 -0.7619250816908362 0.6148374120399926 -0.18320781241216835
Ni 3.495877098370966 7.580738711351495 12.288050852792583 1.3595103915186006 0.3898512301394576 0.013300059543015804
Ni 3.606614248947883 3.9524724204597153 8.350570988039909 0.5250285215059602 0.6050903599555579 2.27328559724593
Ni 1.8357522242985274 3.1222451679672023 7.214860641814373 -0.7691223707702237 -3.3132921980003838 0.4966972786614349
Ni 6.2319737792821925 4.577678663349498 8.389470261132939 -1.7521237577842275 0.18086939408697883 -0.01216337483541131
Ni 4.2727229790766135 0.754926366821252 1.4135176285377953 1.5045630330172863 1.3135871466239248 -1.9541515311163764
Ni 0.5454204932021303 4.7064042437275635 3.985366760128026 1.2532222723826223 -0.35683672288664997 1.8121001383378599
Ni 9.258635400625382 9.163890058321948 8.934071386066638 -1.4950939171845863 -0.6491513548305143 0.5887983076637536
Ni 0.34955286314062317 5.850035149881248 7.557991352975204 -2.3040599023143096 -0.5167742519169681 -1.9987401163600285
Ni 8.30263982794201 8.373340949678777 13.134705968165798 -0.3124743947211909 -0.47037329605492534 0.4471788602163331
Ni 5.080281042809249 5.395784916284901 12.52587013819767 -1.6746805879043998 -1.7444821820785699 -0.021255052724034364
Ni 8.601031148041384 9.354633340396646 6.157140969506804 -1.7212448088171841 -0.6146075554173738 0.8024441248508052
Ni 7.974647651892365 2.834571561539925 2.666559627197192 -2.6053597684759193 0.059942699102219346 1.007383415402794
Ni 0.5026588876161945 2.2117574972729135 2.5787958676223397 2.7694740545917464 -2.552071855686056 0.16117551520247728
Ni 0.18181028434360386 0.9128996271718149 13.228921075601273 1.657577609675526 -0.4551513368988484 -1.3026769274693244
Ni 5.917863773665477 3.6029883089094312 3.041325487940253 -2.065556659763946 2.215623466647771 -1.173888313237985
Ni 1.6022981939786924 2.9380756680920865 12.448347540175575 -1.2250702354284384 1.2802733629631433 -2.7511863120261517
Ni 7.757289028132825 8.30846016805568 3.898649343249984 0.37030493257641384 -1.4543131357227985 0.6780430981642
P 6.207873050559082 2.550533313177173 1.092935555403096 -0.27343604987180653 -0.42968481719662777 -0.7304105560223226
P 7.7089086281912005 1.1721769431836764 4.394703369180553 0.25046504289793 -0.5788625366072805 0.5223162647811197
P 7.958241450471631 7.4833657397734425 7.424160260662476 -0.17835228409207993 -0.13321939630918347 0.4420610793737935
P 9.094413279974788 7.369369952174956 1.7570759180823807 2.8712925679921457 0.005262533950519969 -0.2967101899083987
P 8.846107022536412 2.9793172042696954 12.013028480790375 1.655744413121529 -0.5232076662471375 -0.4659993353569458
P 4.795818983273171 5.592188432030013 2.3536852666013726 -0.7374983161070395 -0.1402811882519713 0.8304444667184729
P 8.266116722827425 3.910967179552038 8.122359031032806 1.5436335166561868 0.2231074768205835 -0.03410954008919932
P 2.9842899220367145 4.834517652410826 13.03204100773682 -0.6317784107697055 0.19609418145653326 0.09315620973971053
Ni 3.5548245235675062 7.095361901580906 5.89285608903145 0.2345190610916348 0.917081387282427 -0.2963430363769671
Ni 2.1418380717002794 3.655456132167129 2.684354987463826 0.8354444910362256 2.2984633820631384 -0.30652049113060115
Ni 3.0184491026067497 4.207569074697373 10.930097694485582 1.3346647932298303 0.8431971383984511 -0.1655970413089406
Ni 6.207242042812131 7.743453947830266 5.835693379775914 0.07120953026529027 -0.11151131520813053 0.013848218737001958
Ni 2.9605470783044123 1.5482669783927279 10.555028573302941 1.2464322460439825 2.796080344325365 -1.4656740692615724
Ni 7.270056867225679 7.675107332611974 1.3873279816314938 -4.214027025603987 0.30678222943242006 -0.5967851825239722
Ni 3.9347100232843397 6.385883161381867 9.137568559050612 -1.4734683684950107 -0.5377889064954222 -0.1564094612724016
Ni 7.791231594103161 4.780533526955231 10.123705582380897 0.5513566178775279 -0.04845680994980687 0.4182817175660086
Ni 2.230471115081753 2.284549420798087 0.5466194079213378 0.7177650993441702 -1.9241606411812413 3.461242729872155
Ni 5.230517394740103 2.2850674122321517 4.716233837540893 0.34603500428545564 -1.0727406006523654 0.9731718025180918
Ni 4.321235231383272 2.655242927066794 13.018422542033962 -0.1705034774716225 0.02765915647816527 -0.60217138653655
Ni 1.2349104148619245 3.2541728772103946 9.81912944455879 0.16408060466441418 1.079102281204335 0.14035600735396475
Ni 0.44483880014069976 9.188734811104897 3.7091718438796177 -0.21344218581667757 -0.8793329648890598 -0.2546811378618065
Ni 9.036539509750671 6.808893802491089 9.834912172653432 -0.4601158799929753 -1.1593919193940228 -2.0239027316685854
Ni 4.823771684660506 6.928907708750797 0.5621798706006355 -1.01731301581168 2.174024303049746 -0.07666232584974539
Ni 1.519410146502298 7.8394989777319 8.382825843737802 1.8538018889520202 0.8882161263113025 -1.1974930971411184
Ni 1.0928300735110683 6.987647937373712 3.2209752771025046 0.7586749501846547 -0.8114278164066542 0.2470490752378455
Ni 4.666565993434967 8.30430681855709 7.853938695308402 0.30941092530451875 -0.5003852690359833 -0.2191037549778291
Ni 0.6917285864575604 5.050595424624316 11.397907060220524 -0.7587731663254158 -0.5459765845125372 0.39931237555235743
Ni 8.258808334594077 6.091899477485076 5.77256152559474 -0.11514094154091783 -0.20593713568888403 -1.6217701130586135
Ni 2.5041212806849935 5.0240460091219905 6.56311440144834 0.10690518389468685 2.1374182217909383 0.07736526545404096
Ni 3.4110112654190523 5.057593017997224 4.528616398320122 -1.7234721554858061 -1.1962358276952494 -2.2300630391118688
Ni 0.0844439053838028 1.9588175710061795 8.521882056916327 -1.4123948982224577 0.10581760725746293 -1.6425806220460613
Ni 6.4361094944339765 5.398327783324854 0.8474970869042232 1.3705723057597168 -1.6195149984758495 0.03362951512898724
P 7.36445374256438 0.7873780592640895 8.425309617554557 -0.1388053750373932 0.7940571863386905 -0.4243078691554305
P 2.04058487337978 2.938433553082895 4.988858380104686 0.5471006708146513 1.592179029665058 -0.7686904254391278
P 2.3287482171629 0.7791005561477388 7.95339210884618 -1.0817600305421564 -0.0324411512478409 0.6064800412142329
P 7.221836573727311 5.322522091456032 12.14339939032355 1.5118842492690476 3.5867184776801775 0.2681490904412543
P 9.092115281612756 8.233859983524317 11.221358627044408 0.6601145387102373 1.6322494153233824 0.5440886234612049
P 5.1010948804325675 9.119964384713278 13.426725051823574 0.42775623271534724 -1.0705950150642722 0.3277017531939066
P 4.508719876436401 8.978524469135447 4.403511107164864 1.69758294642387 -1.2645099294812998 0.10740680612145373
P 1.7623104569742547 5.81782550070851 8.915918140809197 2.494658093653278 -2.5099425306161742 2.014130225662854
Ni 8.539813978561034 0.3083198031864813 1.5119651968908798 0.4695369161965591 0.04149606236125756 0.2539005509420401
Ni 6.442212375329864 0.30110088620083686 2.769486408751024 -1.4165215187963216 1.9534177382741456 -0.45477518450635224
Ni 1.9524038952498535 6.87977386672326 10.737063006667105 0.2746249279735851 -0.8864590344108797 -0.4500327847253604
Ni 2.2143097823389404 8.78870415361599 0.24846071306598724 0.7337812722667685 0.8479261684430042 0.24612964874736967
Ni 3.3602669409328794 8.469715610492996 2.334925500464771 -0.37673140492804796 -3.1935420398222294 0.16200392464104357
Ni 7.000456452834215 2.7575226902293486 6.869854801662229 -0.409000806484715 -0.06682554226498169 -0.555173934741089
Ni 7.002679106987656 8.938403678060633 10.23568873780739 0.3867512510578952 0.759711361868969 0.5070256571706365
Ni 8.108016319124864 5.61541328432825 3.20748112934382 -1.086993511026954 2.3974529106551743 -2.4429287835997866
Ni 6.145356193480533 0.6838532330545651 6.34081602301304 0.507228774320378 -1.284294825417711 0.20016783730527463
Ni 4.6209827472372895 2.2724755113713475 7.08182913991532 -0.589442626115972 1.2850620426010384 -0.12488593674282364
Ni 6.835009988794013 3.4021394848574387 12.389461332148516 -2.4662090942839656 -1.8441273419767337 1.2031940041806375
Ni 5.088286364972063 1.0088118629058058 11.699188772521982 0.9329237536313223 -1.4471855235390818 -1.5780114799154243
Ni 3.664412674963408 0.26123720723784005 6.236111118136456 0.9728696978966407 0.456973991929884 0.23153195343885288
Ni 6.111197012910497 6.89648144497836 9.443067663427959 1.7825674189860656 -0.2954693755227621 -0.24613581939495677
Ni 5.498384892333967 7.535324989623149 3.067543388924776 0.16382940788555655 -0.5863421328137772 0.5877670381857619
Ni 1.477744799151364 9.02366506810765 6.064842430377368 0.43656380370464815 -2.050242655114695 0.6964264857673942
Ni 4.040276677546686 4.002227852208129 0.9785630467616535 0.7547966981761711 0.8650242615758716 1.5324782713703156
Ni 1.9320232868259337 9.100789283626817 10.500704457106078 -1.433957197774266 -0.8622636681115988 -0.152221391332983
Ni 1.0688141070226231 7.268380458584525 12.878085477309385 -0.8460214952211236 -1.0765484044342297 -0.137511338816318
Ni 8.771714034578675 2.7269988677238386 0.4761264245608031 -0.36588443491121503 1.1581865862320118 -0.5626705002284502
Ni 3.841264368579103 2.399882568099067 2.875046470395118 1.4503595503916893 0.48028181341788906 -0.2472107976266904
Ni 6.201120325864095 7.292434097177266 12.083383019167623 0.1853873365619904 1.6701374486184075 0.14006367292452654
Ni 2.8765006136209283 0.66550974367043 3.805262080306406 -2.150162151720168 1.5349452448535694 2.5015424794779366
Ni 7.188449671295335 1.1202459474121913 13.134967789290652 -1.1120144585513236 -0.4346948688167094 0.44450954091428607
P 1.583961297212809 0.37193762751306886 2.08450677977802 0.14913838153228506 0.2244755608127037 -1.6997632419046402
P 7.430737810072488 4.194082461359548 4.462962396756358 0.04937726488154722 -0.9874018300745445 2.8732707747644386
P 2.4174942768572607 0.84701111675881 12.435252716722426 -0.47787757485177046 -0.013819165271279427 0.9947510713507642
P 1.349876259146023 6.580516088225085 5.349937023554547 -0.03755713231816758 -0.005029592004107466 0.6683634089825908
P 0.2464565571174613 4.34257647846673 1.79627845161499 0.008189220679011702 0.28050915466850396 0.044200091555981945
P 4.859522511637031 4.647805285495758 6.646991341662495 -0.39001809473462506 -0.7613211295582502 0.5536179031078787
P 4.434213872165778 8.347403705871256 10.093022595234737 0.48335145348214825 0.00850315237500471 0.45266662280378167
P 4.723375526712731 2.925803980117795 10.330924759269276 0.7563776695100457 -0.029099745579433758 -0.30456233896296575
