# total energy = -381173.57955763454 ev
CRYSTAL
PRIMVEC
9.20697721577479 0.00000000000000 0.00000000000000
0.00000000000000 9.20697721577479 0.00000000000000
0.00000000000000 0.00000000000000 13.47534181080373
PRIMCOORD
 96 1
Ni 8.502311784113358 8.116557862865987 12.774960443217624 -1.6126586376756487 -0.5540058825749169 0.4972809190790468
Ni 2.9857305628266193 3.996638220593547 11.450630716704726 0.7390990849352561 -0.6978429064989465 0.5509357282900255
Ni 8.604527642476247 4.7815698355160565 9.19735200005008 0.3587133710840726 -0.0068003107512850615 0.9334575146476052
Ni 3.5631829516450306 7.335345866640885 8.99058631466145 0.20344547961528187 -0.5213479873305795 -0.4565880693453749
Ni 5.598458867514551 0.4148010129019439 12.46888185930594 2.3511892517019444 0.40139959709868933 1.0674829517978521
Ni 1.7620496671956705 3.119056796383905 7.58169879092367 0.18440131849963726 1.6992621338985059 -1.4157998101389488
Ni 4.5045871402369055 1.887540763348271 11.066677680153425 -0.6898583456315731 0.9879960120151178 0.5052963331843556
Ni 4.492912693434154 6.09403361010515 7.074715683164862 0.2826475411677455 -0.2762832895126145 -0.05589886805014889
Ni 5.439371512384633 8.354291215305922 4.410789220921142 -1.498562078238845 0.7348531651747087 -0.9079722258923072
Ni 7.703569703730181 0.5244073116816844 7.841826273456926 0.050580541161029016 -1.0535403735748305 -0.15043884551126352
Ni 7.685791031193816 2.9723159973758237 8.195028927613501 -0.03352564256127129 -1.7172223179213522 -0.6642347315261979
Ni 4.464058027598332 0.6392081868700308 2.495687372001865 1.634847772178178 -0.6231988966308106 -1.6815863138852973
Ni 8.849193848577436 6.736892363345285 1.9307472648908186 0.24223519878896987 -0.7708450098882853 -0.30139731097142286
Ni 6.729572816651131 7.716339780792811 6.189466688531456 -0.033169287663117074 0.4846557741158686 0.9268860320776746
Ni 5.6335650707155684 2.194013405874435 0.3732388774469131 1.7460032467087867 0.4500124730103862 1.1364329966050042
Ni 8.055754986931156 1.6660485182900826 1.8904695027236298 -1.480463054645289 0.9454820499123071 -0.43706696859331173
Ni -0.08297327648769154 6.476555882434725 11.21541915525791 -0.00496171488064952 0.40561620628319817 0.24837859268254645
Ni 6.550359009856533 5.904231779790708 2.1096728933061373 -0.7831181708286836 -0.334184789815089 0.6458955668973779
Ni 1.404478302465036 5.523909974957867 8.025913333163743 0.2965111865237151 0.41063654231592506 -0.15305699986040092
Ni 4.100557369696585 1.7229476359880334 4.411826847226087 1.9096045977439369 -1.180694794636857 -0.29515878626087877
Ni 1.7560927530936357 1.9637100838523402 11.470493848827957 -0.2715537452474291 -0.8011668008002782 0.04278547059664244
Ni 3.9883151134092514 3.8854823875891196 3.6293267949223527 0.02484199874434431 1.2411720260863077 -0.14167626882728504
Ni 4.968784505300868 3.9994095206626548 5.711550007078866 -0.9050707359747961 0.09061313160288265 0.8020476607433349
Ni 6.703286897390993 4.83223582980276 7.347699788344301 -0.5843847519770904 0.07894880789107693 0.022898758975044432
P 5.291710015679174 7.650924209394115 2.048238418750903 -0.46612814762532623 0.560350593846022 1.4660633342801914
Ni 2.2963949898228515 0.3524476820447266 1.1980330198750937 0.3263673506531992 0.679182868195598 -0.21947990737032522
P 0.934314816322065 1.3642714340205457 2.8969964808464344 1.4561838703829502 -0.09188017124076435 -1.342040002647979
Ni 8.102728983451373 0.6670905959374215 5.303261088990476 -0.48651442459116206 -0.5454975879935895 0.9116877270706815
P 4.909003603810124 3.8967885553129196 1.4581669472922305 -0.8378497580436086 0.7574835009797148 0.07792268061940773
P 7.6290944669892875 1.1669198825876042 12.23145970268772 -0.6528617138025659 -0.6189964285136889 -0.330327877962844
P 3.2616268348228648 0.40993512557130196 12.427566470833806 -0.6017281283515444 -0.21501852916486192 -0.25037608272854944
Ni 3.457339544354473 2.3163833368329243 13.433796984298054 -0.6567895881020623 -0.01092924531799408 -2.6244828624586156
Ni 1.5295090497689479 8.083974371355787 12.559044864112456 0.20492129282986 0.9682417122063262 0.5945002431445375
Ni 9.009846389792896 2.8706709715853096 3.7657106655326302 -1.5485584647616297 0.5962606774790699 -0.693535023152212
Ni 4.3989002515549025 8.040821270279686 0.13434636660598062 -1.693150364573813 1.1804855068395284 0.12251100875274386
Ni 7.5732541516433205 5.818754205566147 13.473589538778723 0.5642165045593315 -0.14699973792272747 -1.2830447550606936
Ni 2.5300404444864273 0.30921908375744195 8.18155359611468 -0.9974255328591337 -0.41112479480625325 -0.2927365499726314
Ni 7.2968238749825955 7.768699858842689 9.981885873567322 -0.17020805771839073 -0.07728196171161529 0.4256039622590348
Ni 1.9638758094378683 7.2483859691235475 1.3875825790204555 0.6030455616113872 -0.6803529772442992 -1.207821732760636
Ni 5.891342012027417 3.519873331960377 9.747563706096173 0.44195514992354856 0.0697170048801638 0.6549088261395818
Ni 5.943278569136502 5.8645865369416175 4.578045006022196 -1.230849304004061 0.32913205788252997 -0.781049718335429
Ni 8.081580557342603 6.7443316007400975 8.00793763132014 0.7580324315046494 0.07701559542410606 0.025549052113697932
Ni -0.042125602445826 8.979500193687322 1.6265947805620469 1.1739199378068685 -0.7018774815796365 0.10211110494015319
Ni 4.220957007582686 5.995528163462695 10.945157553169617 1.3798452464212105 0.3465728790667966 0.4728045312042374
Ni 0.7019196691315279 1.1088975136988524 6.495384150346102 1.453556460062432 0.08998295421805148 0.578835540024087
Ni 2.831384800838197 2.34441858171808 9.388283526439205 0.5677561422814738 -0.6592668459979615 0.6486057667396894
Ni 5.713573700617703 5.949272311146432 9.16653348602575 0.4225546339097497 1.2546330366872198 0.036027583047518595
Ni 8.39183726740499 4.341660475708921 1.6605123630357495 0.12922467332749357 -0.25211389135526263 0.4999808345087131
Ni 0.5019220325163226 4.04606127298879 12.101328290140335 0.6523392656401926 1.3624771874564083 0.6629003289854906
Ni 4.6723014327912535 8.644550371381262 10.815322605280787 -0.1737114428859589 -1.6608375113737202 -2.1384826584997105
Ni 8.11537016283637 5.266740694126287 3.7653341001744027 0.8361255762636502 -0.40790165988326527 0.7221308325120338
Ni 7.100567953809534 5.262873763797299 10.99428874439479 -0.24984952080111808 -0.23975459845896127 0.4746055889687181
Ni 0.3986252750567125 0.9101814882783968 13.010321157691415 -0.03056835970516026 1.1308727289084073 0.4461735588802703
Ni 9.074930510020536 -0.0034249954342455897 10.728662855212795 0.4649161295950961 0.3786916139782123 -0.9098416750008782
Ni 9.333388767628445 3.3047891428759377 5.9176960629171615 -0.953143937332939 0.8547786725884633 1.0342529861001284
Ni 2.619707193234056 6.212103882816886 12.578503809946536 0.4309593130336771 -0.8749847152226929 0.6037176479777473
P 0.6923784788936014 5.619064081981867 0.21704159238906406 -0.4757103919971227 0.13280056360421 0.03237404545533133
Ni 0.7139633157109276 5.708859728407129 5.608585621488009 0.3127536165245065 0.19152815935240564 -0.33488130166148133
P 0.7657636095608 7.738049832496981 9.00562499085042 0.3393984728055445 -0.26529953680760116 0.03154332202391987
Ni 4.934000546293933 5.92592341754093 13.778940771509482 0.46079182301407734 -2.2709042414979472 -1.162342260271598
P 7.666253826055456 5.793306121210624 5.756180827959257 1.6223491254905351 0.3861467847046769 0.9287428827807553
P 2.495247278502519 0.21422517813278522 5.585475188586129 0.3240932099070418 -0.04188224205608271 0.3882728299087442
P 1.2269862003645349 3.7297279581237093 10.002274724075754 -0.5147952738137264 -0.7511624438576934 -0.934134743220288
Ni 2.995213749109611 2.552487054348499 2.0265697984431155 -1.1437362151346366 -0.14427693967492572 2.5794127095928547
Ni 7.513758666438764 8.107774406833002 3.4119021922911794 0.12365926342457413 0.29041047294261596 -0.2093657017544588
Ni 2.068752484146179 2.6416566263395436 4.531218321133559 -0.8042595807929891 -0.09376556118893528 0.47941509454221953
Ni 0.7631018725176807 8.735450855043377 4.166251912497586 -1.1568694100824852 0.3287595050344596 0.4827433875845041
Ni 3.001732288807046 8.496410111873166 3.6429503587504524 0.5739848968000051 -0.27557597903294473 -0.4977041226593945
Ni 6.295021917442734 3.1087265682193252 3.011604009518331 0.12138049469272644 0.6550427806142848 0.16779199207773038
Ni 0.41673539876413473 1.7418403527382267 8.780437985932652 -0.08178036380260109 -0.6779916761009743 1.4731089282730632
Ni 6.731800905078785 1.2079645859367087 10.056202750304266 1.0219795680494141 -1.105781076047102 1.1394306457807475
Ni 3.768111845127392 5.818735791612201 2.345747148495396 0.32304317137597266 1.2019678450830205 0.7420424838342963
Ni 5.7070919888281635 0.9150271202596966 6.329596878072365 1.2658934400923876 -0.208238530128551 -0.0566606859168379
Ni 6.898124944110093 8.67086391157232 0.9081596361349551 -0.7271892208715477 -0.14039843055612597 0.4004066370578007
Ni 2.2767749218917297 7.371326732654412 6.77239630795157 -1.5295641830473141 0.02128616307228592 0.33257219391233045
Ni 2.5969475461548757 4.487904097960419 0.6828437335395564 -0.20392293347233267 0.015409392576534753 0.015262325475709198
Ni 4.246165710536891 8.407424679421597 6.750513165080293 1.203409205515237 0.6810752001223045 0.06532813178384878
Ni 2.35779631926098 8.724089445457734 10.535102736897656 -0.8768328241750254 0.544068825966863 -0.7948524285464762
Ni 1.9334467505395303 5.709439767956477 10.374692339176606 -0.14181022330198806 1.518950669197526 -1.3316933693063324
Ni 5.337081998205955 4.000882636978459 12.052790028232272 0.19643973772141007 0.12327874015670383 0.6783259195119413
Ni 6.763776736108717 2.833023642739529 5.648270454338086 2.4521171349672737 -0.4511923522511003 -0.5951239927714654
Ni 3.8162919556311743 4.425130928953197 8.901514336626327 -0.41948396540422594 0.5799971644323559 -0.5080330153892283
Ni 7.804561034155556 3.093535056212591 13.207492252375673 -0.6426009553065062 0.10111685934768391 -0.4085518918727544
Ni 0.6932485382176234 2.8703579343682013 0.8688532100385001 1.6145951925767288 -0.5722247195757888 0.36266489953265285
Ni 8.364032196944178 2.689993255451881 10.78577097128805 0.24610650881891807 0.31305212160153184 -0.7015977455556884
Ni 4.870868305184734 1.0782474873531438 8.847814643426764 -2.164821810614872 0.35578591302463247 -0.9109364507269538
Ni 3.36563805369564 6.469171886901754 4.887398511643456 0.3375017700034639 0.47951048246950323 -1.5036472060712363
Ni 9.162046926146427 8.020740853499875 6.348516295055782 0.27640078892708525 -0.4915404170508438 0.33881894615299074
P 6.899966339504848 1.1977816694037096 3.8106913515380247 -1.7783754923919048 0.07660267625640355 -1.3053840419878422
Ni 6.302230980413203 7.311683935818275 12.141269076950284 -0.5435947145439218 -0.33551919235579636 -0.10984704013183018
P 1.4462411500180954 6.8316597773363865 3.357933655363982 0.014428002499871926 0.10127652485399977 1.2269556253766096
Ni 1.4533673501957998 4.753101862713133 3.3396338679309 0.2417052944274289 -0.765563706884688 -0.3994735837205701
P 5.8196012474477365 8.473742534563723 8.609665135627614 0.3454878735327341 -1.6879150843168027 -0.8812852035194243
P 3.0642108345511065 4.809430147838711 6.033300707195319 -2.5636536469863844 -1.4444622110706478 1.5890484544558763
P 5.416087067617947 2.841853133657383 7.7834512773500775 0.3092242632150094 0.7252089572167253 -1.8165039238325105
Ni 3.6591841005506187 1.9412082321284256 6.581774135988763 -1.2011180954882152 0.46584378361568807 1.801178863439666
