# total energy = -381171.1752147232 ev
CRYSTAL
PRIMVEC
9.17692850938805 0.00000000000000 0.00000000000000
0.00000000000000 9.17692850938805 0.00000000000000
0.00000000000000 0.00000000000000 13.43136249163573
PRIMCOORD
 96 1
Ni 8.656358246673198 6.416178180652727 4.270085493866541 -0.517885996923908 0.8004165528978151 0.2996810996112645
Ni 2.4239572402539156 8.37078140232233 2.271042077253223 -0.9747034086712698 -1.4523940643232147 0.13059481420214283
Ni 8.403955999588577 4.927102198297724 2.670759725443139 0.2811249338756319 0.03656005851222091 -1.5742733530292305
Ni 2.310502870681956 0.16653005442647614 5.473615833428268 0.48111536506277786 0.33931336929090594 -0.8783045236245455
Ni 8.53212098587362 5.51537085903309 9.696422708302833 -0.13511147112557376 -0.6151554575010438 -1.2887546609612772
Ni 7.275808623175916 7.637902699063711 12.599397273066753 -0.8053433007754711 -0.5535163445330079 1.9890817673346584
Ni 0.05871031907899132 0.2520314991649659 4.774956979615326 -0.7549874740307384 0.5613903479644461 -0.9295098428537669
Ni 6.273164923724035 5.478589728786029 8.864968189980631 1.061016627347218 0.5433700001276255 0.901437767207899
Ni 2.3148710887452295 5.726495280805516 11.444649651111643 0.6133801107681759 -0.9956111053582144 1.4661270976385912
Ni 2.9929084660666114 1.024007589475623 1.36234351464071 0.20594896276342597 1.3594898226933103 -0.6419000725847397
Ni 0.723566873702306 3.7642660313825953 1.2741367113201758 0.6949714984884224 -0.07174740504663127 -0.16030211145858844
Ni 4.135582920618269 7.566019816522487 4.467513349547715 1.4381226420058653 -0.40069228661901957 -0.6850421551898525
Ni 0.34026858635022433 4.3297116704302265 11.561045226333349 1.257910164776595 -1.263585103674185 0.00040469163758639974
Ni 7.328557609368557 4.9494480196928325 11.75837947734174 -1.208035391433339 1.961093252541532 -0.2670257754700885
Ni 5.409340624782955 2.4283162813884847 10.061715861536968 0.76160472223694 0.08269259120422533 -0.7258365634983951
Ni 5.0351330030054084 8.178111784174362 9.26504832685437 0.5748220479893197 0.3530895971393919 -0.7254208161172152
Ni 2.869286059490225 4.946860125798204 7.33991772941168 -1.5407538811155463 1.0241480364556426 -0.7363030102473578
Ni 7.220682812448847 0.8589421728703622 9.007407888865302 0.3305906447059274 0.3540131373949258 2.133336595522397
Ni 2.3955729997713413 4.33087714037568 9.587817427858257 -0.6180831726708 -1.490808145325039 0.0694210709062998
Ni 5.145090962741008 8.328576707210992 6.6862129785499 1.42891089359961 -1.3787553557911416 -0.9909142141031774
Ni 8.181323709220887 0.7800719768136405 11.222010936893861 1.1261208160457188 -1.2411306313254107 -0.13550716390209566
Ni 6.4182338126825025 6.65765070565046 5.390865631915344 -1.7491433349996652 1.8031136185685335 0.1931178724370287
Ni 2.55168173396115 0.5448223271703314 12.438852411541257 0.6813906744801942 -1.0669481623403045 0.04246665380464299
Ni 3.8424993485872347 2.4499830100594706 11.81070724250685 -0.6669547015605223 -0.11564976285653632 -0.07983815247456573
P 7.005961034624312 0.16668514452157976 4.8927364356856495 -0.12968850033778956 0.3676880637788571 0.0770472199929899
Ni 0.49608641190010516 2.2037017744206544 6.2968514944028495 -2.4876248409555806 0.3611461488952813 -1.6227183359044957
P 5.820017361231614 6.467220258106358 11.102377741225258 -0.23639905172316705 1.249820445789925 -0.4707278511808667
Ni 7.792065924368196 3.6661096019607977 0.09322107716459446 0.03513515314023626 -0.9856460237257025 -0.09138009167589424
P 8.506884431936639 2.1158969205773714 1.7456473081500143 -0.8015013013215616 0.1709045695647831 0.08909258119329817
P 7.735040489399325 7.138916377693029 1.5024192366911375 1.0302644337660256 0.2819890816481402 -0.0157084118741923
P 5.936123863199133 2.135067524640772 12.338117265153535 0.8196180655269305 0.41466957473471805 0.7163913589250952
Ni 4.825091458820096 6.14453191407507 7.096742884139289 0.4708988295410922 -0.760631045469761 -0.7848883753552289
Ni 0.3730274687461659 4.326655753171676 7.872027257247867 1.0224477659350844 1.1404279766970102 -0.8675429142326673
Ni 0.384036112419912 8.332623732769614 13.224116694615823 -0.6903190873180757 1.3800720177200363 0.20179791670952987
Ni 2.5611431474553417 0.34084030900850576 9.564110667936292 0.01897911220566409 -0.25725558345720206 -0.054079812563539116
Ni 0.8814164712673312 1.5522224287696804 0.37060475956821576 0.12392640104303172 -0.07162964852184438 -0.8043526547274277
Ni 6.89753562198234 2.4943167526302172 5.368180264158174 0.8800554448773812 -1.3064402511664983 -0.7950488608279984
Ni 1.3374731201590335 1.9844924784596902 10.988480125996878 -0.3255883063953296 1.3197153710088498 0.36973440478492453
Ni 6.561118592609334 1.1868154816196121 2.840317248649183 1.3638280450573481 -0.22926655444344385 2.17975477777562
Ni 1.7085972938919156 3.673038183132587 4.828480498590615 1.250558352397214 -1.696769706493955 0.32978408964423206
Ni 3.765449855185457 5.110640772384854 4.568570606132959 0.46710902348135686 0.41805108961244125 -0.45797466528025643
Ni 4.989808152134592 3.6784617479968618 0.22752726413859312 -0.3356935131501315 1.2208811370477555 -0.271143654293204
Ni 9.139284942811257 5.908492130870315 -0.03001589840620933 -0.7405106205708021 -1.3810438947150023 0.7123017622367539
Ni 6.778841226120193 3.398813199589005 2.1567544425549077 -1.5267141151930288 0.0620062664994674 0.15889906046347474
Ni 5.76538710465458 1.2117950815528706 7.444574177434774 -1.2457524463681382 2.037176823069672 -0.08541230412823353
Ni -0.015464042559711183 6.844291081639663 11.403012090194236 1.4857770106590347 0.8514938311896046 -0.8749083534588029
Ni 7.410131328621582 2.8205473911413876 10.907475376323521 1.7561405922531046 1.2456604008749645 -0.2664413637215282
Ni 5.267612137872873 1.5281238139920401 1.043839850098608 -0.8085692639119364 1.1700334582682688 -1.129502845144074
Ni 7.319050311230844 3.480249264911465 7.94384498359529 -0.5561599528034422 -0.939073575282802 0.405671742111482
Ni 2.988163993926459 7.703976585735078 8.05926046283137 0.43226209100550067 -1.2341958518787908 -2.1599058613704933
Ni 6.662229993073933 4.682610463756257 4.23387425089202 -0.5510396008577413 -0.542877119651607 0.024847398060983013
Ni 8.821148355417328 9.189042250246278 2.1990362238673598 0.05794443772526795 -1.0128369823181975 0.22099197313947747
Ni 7.765774023630215 5.543883576517525 6.537621984354699 1.886272607886216 -1.7249793361589518 1.4663317574502295
Ni 4.369622133365473 6.067620074603858 12.733362078292949 -0.282012735797224 0.7528999953740905 1.4739293672918292
Ni 4.256654141014844 6.589612956236361 1.8828891946165367 -2.6383830174794753 3.508293660613371 0.3886271279243694
Ni 0.736637573255921 6.833636667413906 1.8664624922357382 -0.409580847357901 0.5829775872169185 0.7033268124316533
P 1.0206029489263067 8.992655975973047 11.024985948382808 -0.7022932289608163 -1.0287814214625959 0.7066345366486476
Ni 4.657282140532233 3.882538288524342 8.137095501330242 0.8202305022999488 -1.4705301118022933 0.14330274868711448
P 0.24202222302712426 6.636057392409109 7.940567902354964 0.17818053440090603 -0.7127252229274178 0.908287700250197
Ni 7.8373815983103094 0.6884164836860093 6.80299857324154 0.5934301500088102 -0.03138134252475886 -0.12226289729767974
P 2.9296151887926647 6.992149756924256 5.912875032019516 -0.5448576404167456 -0.6364794157898006 2.0912435230070887
P 3.803882832599302 1.957200292492934 8.940318116186361 -1.389659147187839 0.2544811060358585 -1.1985066260072974
P 2.1566883686682363 3.2843034832160445 12.8099343714021 -1.1786890770607377 0.5634132919317457 0.6598772258884507
Ni 2.1472728398175662 2.725612063694819 7.474459763453381 2.088989179755273 -0.4117624283902521 2.142260123264272
Ni 7.3062209649021534 7.798554012962176 10.412905910738248 -1.1189109285608407 -0.009827270503066947 -1.9528937474498755
Ni 0.15781656062168964 2.4136790801050365 9.000651833953155 -0.5049880579153174 -1.2279113044216594 0.3319247901363187
Ni 2.42817862745792 5.296849832724953 0.8286050819595004 0.7102194257864285 -1.415006624813692 -0.26180900715583943
Ni 4.847024318423508 0.8826195666204725 5.146750151450756 0.3749822834474252 -0.4276060802907281 -0.37787091784912985
Ni 4.553426838385031 -0.23703180919769518 2.8665082031714157 -0.28512197085016705 2.2450481996667917 -0.6418957017093655
Ni 2.3087225465133105 7.242285302618901 -0.18641829431455761 0.9300860270722111 1.2619249423629428 0.22178618690599866
Ni 0.8624349119352402 0.10656616688646973 7.246556245237908 2.010569762005105 1.212884491995524 1.200009950025701
Ni 1.6374485656470394 5.117174745622356 3.1756174457988684 0.15321255160165873 0.6752645069777984 -0.47277599195914705
Ni 7.023057652800528 7.810557435707475 7.928264394041033 0.5230706264486411 -0.767557083165633 -0.033310441226671664
Ni 1.2110701041852265 5.743408360407646 5.858813745022152 -1.1505738068817604 0.10216638365812081 0.46261062139037096
Ni 3.13262720559044 3.2785587258471174 2.1476610239017604 -0.06013270362583836 0.4987616173896314 0.23471575048347318
Ni -0.11352503192298329 8.541380506936315 9.123145478298904 0.9168677286097242 -0.09192336577387394 0.6304056987918949
Ni 3.6207021587316417 0.48480521344383964 7.241318054333462 -2.20026498191383 3.1841703687993417 1.978726392242263
Ni 4.834690526244854 2.808213598962732 3.812465096323616 0.9560883646732435 1.1255659719835132 -1.7884159073470425
Ni 3.727613378137395 3.0595146146028314 5.76637913064752 0.6693615112298021 -0.7481521962764599 1.434623370603355
Ni 8.84166796800027 7.749420736679052 6.251587211261482 -0.8353565593081096 -1.4107789598855898 -0.8306776657752016
Ni 4.809022656658768 4.6723965421083085 11.131846694680688 -0.13422546897619464 -2.675087314879044 -0.9853544606272127
Ni 1.0596232497772307 1.8636323274233149 3.2386776290837247 0.2821628882218431 0.2174397370118449 -0.601211593726442
Ni 1.561197465042541 7.527651077609572 4.219677542186381 -0.21472516629415922 -0.3244765613883896 -0.15766158851194784
Ni 3.8949638499900407 7.893737117483763 11.29120956778906 -0.7948372590378247 -0.36203857880256357 0.04490380249122589
Ni 7.669140964373342 0.7368697495521412 0.05185974180118917 -0.4162616018121863 1.560295293582584 0.05950818266796203
Ni 1.8321738158247807 6.990084947965776 9.733224945485915 -1.6704665498230522 0.3693693081360219 0.019405915330437545
Ni 6.071832284879157 5.84475836101856 0.8788212358297393 3.111549302898506 -0.5238974932253108 -0.6081648851158236
Ni 6.1211858074511865 8.714402320728253 1.2138745735972778 0.016690059061171256 -3.525561446554883 -0.805389066411742
P 5.992185720654047 4.088385976291764 6.283863387207573 -1.6833639746110107 1.5412452189296681 1.0662819895112152
Ni 4.0654895391743935 5.942529359434773 9.345072062849228 -0.8014784185034262 0.8583550770858122 0.6603981313889271
P 8.891810706440873 4.1216064582015335 4.946354477026593 -1.6583653956841442 0.46550054134365637 -0.09781607710922509
Ni 5.687676872386088 0.2718160397586882 11.254273347446897 0.4135413746675458 0.16151798614356055 0.5513882424464117
P 4.152009622999067 8.542307376735454 0.10607336581504578 -0.13422521186587852 -0.12977463229369265 0.2166756051523107
P 3.0463457219120795 1.4887731437077596 3.9563015237570895 0.6700122574399235 0.7331626648461632 -1.0048369948318565
P 4.92216501065478 4.811482073551536 2.3721800908110655 -0.020815394083454473 -3.653125958571134 1.7559130496233308
Ni 6.519602167150825 7.8373632444529004 3.543609533764954 0.7786601350573299 -0.4121406376652773 -1.7535604902307542
