# total energy = -340860.87497462466 ev
CRYSTAL
PRIMVEC
9.38714080240463 0.00000000000000 0.00000000000000

0.00000000000000 9.38714080240463 0.00000000000000

0.00000000000000 0.00000000000000 13.73902943105449

PRIMCOORD
 96 1
Ni 4.606401335027251 5.227848820082649 5.943160201886874 -1.1078911804115694 -1.7326885318777514 0.1277141502202381
Ni 3.9274576135142807 4.003183677106648 9.993454183040212 0.37280070241507407 -0.7105331003721054 1.509381280341536
Ni 3.7363072685370433 5.764812039322836 12.107189497322581 -0.893517483919558 -1.566257681813606 0.6877898931383187
Ni 8.050684045203697 7.4378257938395125 6.471370851188604 -1.5592138875929469 1.1143284513964808 1.9159559938832615
Ni 2.616515260859657 3.862151276039123 5.913992478471204 -0.302759224315956 -0.6990250997325058 0.30994571476206617
Ni 2.785080145442295 6.749269640304901 4.459427812644789 0.756332160984091 0.5946316265160791 0.7882148686253005
Ni 3.2450500371028865 4.299441835898653 1.6620927550889648 -0.2988159233974918 0.762936553674486 -2.273782848597323
Ni 4.313954355337577 0.14603950188817308 9.555948657659886 0.6805113571990346 0.33342091506587096 -1.6234490434229332
Ni 7.364268159736403 4.735080259004464 0.20881788238732688 -2.1919574904893993 0.16577753275086288 0.6964712229624005
Ni 2.360499774017631 8.766378422346284 5.702507709426311 0.853824279094994 1.995213334153693 -0.40613454068051347
Ni 5.086544191936386 3.054519243408294 1.910989034464963 -1.5404980563509985 -0.5848043560130122 -0.07563748412965683
Ni 6.116304133676696 1.9724541539877225 5.54551153697597 -0.4692399537814306 1.7041145768948005 -0.014379408650123621
Ni 9.166514679528413 5.416079764318939 1.6071639015981085 -1.0690932337077652 0.685519094826271 -0.8866498102654471
Ni 0.8834960871906943 9.532922940368984 3.5782062296326522 0.15024884098764446 -0.2585377926037354 0.7692372990815333
Ni 2.6424049947616965 1.856025448553716 1.946298764005398 -0.43571174011699804 1.496540419823126 0.6450028798797794
Ni 0.11083678575110403 5.822167468670717 9.683941381655865 -0.13307027232582888 0.6323237417502143 -0.8840987617088194
Ni 6.209818828793488 7.0059891626953865 12.483117257492395 0.4125736114376379 -0.6467394029549118 -0.12770052337348328
Ni 7.936067057914395 3.59102249275682 4.567760109271504 3.7920673449657594 -0.9953637652340989 0.5081392019497895
Ni 8.885426140020561 0.2572292441275718 9.37907239874916 -1.8364543988125084 1.6575845516540615 1.542858071942743
Ni 5.66882852621611 9.090694744529586 13.674744358964325 1.128956228611985 1.118319831944061 -0.18925376149593212
Ni 1.7838852726881724 2.9325802864150066 13.458890814662722 0.29445687509784774 -0.38937840426809717 0.4502302454481472
Ni 0.6004371868612188 2.1876637404410024 11.251302868200298 0.9521823447506181 -0.1905665667700847 0.5374788314541711
Ni 3.474077494587276 4.638045386145371 3.7861745757915037 0.38582102593414197 -0.6668814251204257 0.789269278031744
Ni 7.0768902359956405 3.2589617795404577 11.74586718928409 -0.557521351927343 0.5213186767545408 -0.5714060803292353
P -0.14102019778468494 2.4852454860641124 8.713004079346428 2.2629713598041152 -2.0246066997141456 -1.1622245037468113
P 9.092769302612382 1.0096808478982282 13.475624331578521 -0.2746475536814044 0.05702938211016629 0.11791027675593886
P 6.0274548474610325 9.207001417135192 2.047157019249661 0.09741832745017416 -0.18782217125572814 0.7278368817578755
P 7.112861758951627 3.2093507412256366 1.7713046267942227 2.3102161517236923 0.7073801565654204 -0.29367423129555226
P 0.8931291709217576 8.043868981094603 9.375898606496703 0.22155658739369585 -0.9396726423193817 -0.3851563957669496
P 5.388819507882563 2.186593606407343 9.308645376051537 1.521969915639824 -0.6882231240209953 1.9855637268790707
P 5.690907081015818 5.11210537591581 11.370461354134202 -0.202416009909503 -0.5892621346740496 -0.849911574304149
P 2.909225080487424 8.750157443309764 3.291417818324468 -0.5837000672052399 -0.37134828623926364 1.6837936059492613
Ni 0.8843672138426556 9.309893865757472 11.394477414763271 -0.9726156729043055 -0.9576865623982991 1.6048280858876363
Ni 8.048966198465454 0.8887153373899451 4.927736301341341 1.2448091086182627 -0.8299037637236546 -0.17664995668899255
Ni 4.703445595026991 3.325863930925458 12.415768278212639 -1.484231777659102 0.503109867055998 0.42354656550937375
Ni 0.9395682944122495 5.471801831194393 3.545164433272323 0.4603308242172588 0.1416346169560722 2.130391396851144
Ni 8.416848240387466 4.827937854276026 7.072329963069749 1.0241804323554748 1.8682031519790145 -0.6742856880042967
Ni 7.795926435208251 0.8862117869796211 11.736744766004175 0.01669160172306803 -0.34752984366342726 0.09794437515697325
Ni 9.1661861296058 4.008027441680054 12.631965391861891 0.880647055714793 -0.26332981467574 -0.22519752658039283
Ni 5.789932027691891 9.319140199293916 6.297435583442313 0.9373763900860372 -0.309933373466892 1.4958984153637527
Ni 8.054758064244119 8.24631205626914 13.457282797470038 0.8194594284618791 0.2514513180705992 0.05160358310890468
Ni 5.936014710427036 6.9910354476460945 1.6365794455268357 -0.39414754352196635 3.109218854993116 -2.790164235951246
Ni 7.1475096950765105 5.8636398560453395 5.147560606136261 -0.5022673165500448 -0.5709988175884876 1.134943042323039
Ni 3.9422986828758195 7.931533068982311 12.856035500371059 -1.5442855484178888 0.5878575410170392 -0.11028129945577135
Ni 7.793232325842812 1.057893202256775 7.352166258015407 0.3318723396318285 0.41697456871881095 -0.222246671482185
Ni 4.882120430085515 0.30684309858458647 4.163819243985496 -0.9791491031474493 -0.07005253384271162 -1.1652234384741351
Ni 3.704681991700216 9.318971230762285 1.4618049674067803 2.092539873221009 -1.195738833454173 -0.8791041367077054
Ni 3.58237693622173 2.3455178975464004 8.348947297237716 -2.15683313598244 -3.407911622549183 0.9006183566303974
Ni 7.394353945507264 3.3077561366190644 8.257294072111053 -1.658277463956028 -1.0752638812948514 1.0277388391306943
Ni 2.972691538395939 1.3049439697817433 11.28323228839406 -0.15036711173306364 0.7738128342673577 1.5244623430443747
Ni 7.131551555978082 5.884366662592004 2.8739303703720225 2.77064930584677 -3.2803517385186214 -0.11631747834752225
Ni 3.693652101441008 1.593213671883888 6.284767637140355 0.02654149793395429 -0.7407628457909242 -1.4990935252622828
Ni 6.6368023082235625 1.6278709951494168 3.0893858999102317 0.24975104755004082 -0.6726890329411382 0.6436067708632013
Ni 5.813306007900765 5.353120212005314 9.148242610260713 1.5094638127530133 -0.26471486794872473 0.6839532930010479
Ni 8.773935070566422 3.719063091170095 10.235164606251596 -1.0067609513274467 1.7351189956961153 0.24435918711050822
Ni 1.4283942564190582 7.885920952582743 1.6552232455641234 -0.29898073111013024 -0.30982924378886 0.4606437274719873
P 3.534662100317428 1.5557871421277496 13.674895491928728 2.0858619469802013 0.533123639809269 -0.905370526603402
P 2.164693407279911 3.902656787927193 11.527347697038982 0.05754514540432025 0.6145623040017352 -0.3265067044445409
P 5.191511198641462 6.272243314090283 3.8986832112916847 -0.7716996445790968 0.12188494513297074 0.17804863680873206
P 3.638624682973368 5.21300775072111 7.976866387304688 0.15015808104605108 -0.20298602348036007 -0.5946239132065952
P 4.9912834886594135 5.335763388950611 0.7674400512403395 -0.7271863926580703 -0.945582065825281 -0.8291985101265138
P 6.23888141623392 8.723422866749573 10.900930659725523 -0.2340323512632034 -0.083017835754128 0.2788597919905391
P 7.643967402428626 6.634295941671045 8.858637118044623 -0.9474006070912588 -0.099851362371699 -1.521991770016695
P 1.209730202208001 3.8929880330616746 2.102126237445295 -0.34714443529955047 -1.1350381731400065 -1.2515333147159735
Ni 3.689578082400586 6.9450384584800355 2.202572397215193 -0.310799063901297 -1.1268975463107431 -0.16146065054306386
Ni 5.31179801888103 1.2306447515675885 11.398572085513116 1.1652782029714706 0.39299286109223286 0.39267738673434305
Ni 4.631014417801416 7.199345485724465 10.458753154445613 1.616714810022893 -0.3692320112272093 2.112582650804497
Ni 4.75929908187149 7.231834379500738 8.328297465244349 0.7337393632852396 0.38803474575600916 -1.0427790212932686
Ni 6.327533572496015 2.1356120455581866 -0.12194458927767501 0.7101158103290286 -0.4664523637339644 1.026549961028916
Ni 1.7423377881883808 0.43196523497097805 0.18580530709332813 -1.3200164471890363 -1.2301175680443588 -0.9172101995508075
Ni 1.967751196524009 3.7345518732362164 8.299953932777411 -2.639276475828022 1.0718648829156314 0.08523001291409836
Ni 6.628241235954288 8.758849935548085 8.621955386077376 0.6222635293007348 -0.7659660845294293 0.3839199522566872
Ni 4.917538111743379 7.305232432212863 6.032491987131749 0.07310906128084829 1.8858733155652685 -2.04433888803575
Ni 1.654614958850254 5.369697902386387 0.1936210403952997 0.3833116292487269 -0.7747859968139044 0.6179998689283744
Ni 0.9985007633886821 6.243603147978926 11.883930437765242 -0.42332210820339355 -0.03619881851806024 -1.6843561633209507
Ni 2.6668397218635844 8.23965657355103 10.474031664561263 -0.3820124508213292 -0.4901821032507364 0.6272974921802165
Ni 7.042195364167528 7.853394510243888 4.01099941040862 -0.5482615238919718 1.8028986743442499 0.7647003304431281
Ni 8.282405612053527 8.925922264767987 2.2833581296158267 -1.0090957701082104 0.29504282950830474 -1.4630132345999578
Ni 0.7038553153596827 7.319989017308585 5.645806563781465 -0.5083400051066858 -1.8924620245263792 -1.327142002490224
Ni 5.179814821396379 3.595753611642471 7.7391267245866215 0.03753733482382567 1.2326400773558965 -1.6592732522103941
Ni 0.3489096919621091 9.031217821395678 7.415585780220691 1.383272784045521 -0.49853021810511555 -1.8423969895491883
Ni 2.5876873519353785 7.205738128504483 7.6560326943011034 -2.506027511832484 0.14936926659616856 -0.6537713701010289
Ni 2.507126910910252 5.838745159051791 9.668896611342305 -0.5226299393667967 0.8367428981326751 1.2025921089305804
Ni 8.219868481068978 7.692724210944649 10.75301560713625 0.17584622984077458 -0.11332702826063064 0.7551494535298995
Ni 5.9432146473026215 3.9910648785324883 4.053398308565015 -3.404947397714536 0.4446802621641955 -2.2351630793425956
Ni 1.4085498410931299 2.583134588722003 3.8095034977252773 -0.38359033683141036 0.7161177935487345 1.6133746899060666
Ni 1.769419688952479 1.0195748941392542 9.336274547115304 -0.3647405511147589 0.33564414796943487 -0.9741969013484965
Ni 8.90393758137474 1.7431732437058869 2.293153610880068 0.6535111744611067 1.635887783406918 -0.9651962405117829
P 9.326574814685653 7.411541800030336 3.2044365730973854 -0.3740140059968849 -1.2743564832580763 1.3355240559063322
P 4.196577548698311 2.522578144413789 4.2262906649855205 -0.41225402331469 -0.16458736909750363 -0.212847232545156
P 0.8140049624154897 5.030972319311269 5.73249962379071 -0.3108553710605292 0.38796429752938993 0.22016304948027887
P 0.8168642854563023 1.2787350730977358 5.5926781638665375 -0.08853748002077655 -0.9524831638204887 -0.3238942065223583
P 3.8231570937950803 8.952403388530731 7.345983887185862 0.8206197673185673 1.224407405033459 -0.1233288766683489
P 6.372713880425859 4.091873381931327 6.1092787976171286 2.8527821678927836 -0.601485416213119 1.3973428889853419
P 8.314565955907185 5.910631882119889 12.444016061844987 -0.289642741538656 1.95491900541002 -0.4874503061418702
P 1.8514069753558178 7.405440158610349 13.358196834379767 1.3503636920223259 1.8034756298936425 -0.0602777138441349
