# total energy = -381165.13988284586 ev
CRYSTAL
PRIMVEC
9.34332031420879 0.00000000000000 0.00000000000000
0.00000000000000 9.34332031420879 0.00000000000000
0.00000000000000 0.00000000000000 13.67489371713443
PRIMCOORD
 96 1
Ni 4.31051265697086 1.4294158417951304 7.210128866739775 -1.0975095800669292 -0.10045094362891088 -0.21736028992416115
Ni 1.2506781299906695 9.459270612020603 8.33575039571539 -0.8514092418955982 0.4501533694636248 0.8861908683511577
Ni 5.975090520114995 -0.24605259515346328 2.1869021533616304 -1.0949101947708693 1.2851600016314835 0.05139892329726633
Ni 8.060043037180005 3.1311427453017613 5.516287725322164 0.13765352082113713 -0.5888980664664115 -0.9148910644993276
Ni 2.282003136090418 0.5992880201415346 11.59785472027896 0.37437576021167784 0.17491420494480844 0.12545029388672588
Ni -0.14103648122933377 6.94836547898834 -0.5077515139968246 2.118676679517377 1.87454786325012 1.5776420123911474
Ni 5.722026697625513 9.27846802649378 4.82481664129118 0.5977619446149447 1.4474812004026296 0.5964483680098438
Ni 7.57798378454857 0.7426117461094848 10.812724327796838 -0.9249119390704393 0.08933709310393646 -0.22245981593425557
Ni 8.119139536247607 9.18246541338396 2.8489315017069354 0.7922311888735453 -1.9878540655751442 0.7876566821289854
Ni 2.185047504339509 6.840861238945364 10.555745654222877 0.6363439186532008 -0.0025721316025504085 -0.7335588718433174
Ni 2.979248391888007 3.7176042557326237 0.9573913148551744 1.1243511257398056 0.2862661117569393 0.6053613542287575
Ni -0.0659797229194752 0.604222227439179 6.484880746538153 1.1190585098822987 -1.0603342565682128 -2.96462515540872
Ni 6.957232289678482 4.3576870797048235 12.066985621011607 -0.3563464135137927 -1.218526777882966 -0.92881230256611
Ni 8.086550036050326 9.140822236096325 8.23590954674518 -0.943330293676627 -0.585573630078869 1.356382130302264
Ni 8.871239423827944 2.2355761789573094 7.775188568354156 -1.0653229680320557 -0.28461212109328404 1.8132653622905546
Ni 0.832874757736738 2.7626889206802816 12.20997018446317 -0.10577466983466943 0.9460944866853255 -0.18748304274875455
Ni 5.488284860918132 2.1982402721946004 11.588857103108667 -0.4783254610224665 -0.004259289496986213 1.1191364143080855
Ni 5.647952856580779 6.432773050838546 11.638975605977999 0.3134115618234796 0.9098820413205104 0.26655937735663127
Ni 0.5054951022142434 6.299443874286029 9.002988644966655 1.7825360515274977 0.2654653729615041 -0.40259284607584217
Ni 1.4789634678118084 4.396396454509104 10.639956063147206 -0.6293572029227226 -1.387281905204914 -1.0896790282789168
Ni 9.608203132990969 4.220256185667615 6.976862605020938 -1.9304320760122498 4.6609449188494505 -0.3269450775335402
Ni 5.784150432376577 4.610834992074404 10.05937430399907 1.4426693808362832 -1.0773241062579897 -0.9423535315856544
Ni 0.4241708448412154 1.556419590700412 4.050352582933259 -0.30191873069253167 0.0659685935813251 -0.6626357624701943
Ni 2.414491413841973 5.295775095417917 5.599554458925415 -1.5505958069066328 0.4272368698767674 -1.241753095400758
P 7.290153468299316 6.8694985147781225 9.99735895176013 0.23398144342060992 -0.4769393793082173 0.022679700985702878
Ni 7.121842901626783 5.366662864339007 5.970116136541305 0.8356936309325543 -0.6646209112210231 0.1753096406110142
P 2.599993689334172 1.409206240612012 2.5378008140150285 0.9400791337291811 0.2785042084233333 -0.3531579884834821
Ni 7.8279175948344735 2.9531244691381238 0.47120978943502395 -2.43174731306167 1.21953465032219 -2.159101106081011
P 5.561116040401444 9.320868012702281 8.13567254100652 0.29806387572281573 -0.8429572544735031 0.1517231115403258
P 6.074550161628769 1.2788015232228402 13.647625900175726 1.5912284928263305 -0.012098583035746905 -0.3417978262756565
P 3.057330517217326 2.6850459313914645 11.572638033902116 -0.01731509423967986 0.47508509970829793 -0.4114045308302011
Ni 1.9523801494333572 1.678639559760221 0.20661257272434722 0.499324688981953 -1.3907873472550112 0.7879919539812171
Ni 0.5174078352278706 8.637432183880488 10.812231934832274 -0.735697772563191 -1.8074153312676806 -0.587029388688789
Ni 5.485201565314605 2.904772788082813 5.579602733374592 -0.7344381891244771 0.38055900620425426 0.4527848935492008
Ni 3.0696730429514454 8.130715909740848 8.359817853730922 1.331077332988888 0.2717218953941772 0.5665078716966695
Ni 9.511593204080455 6.029627479017382 11.226430654226082 -1.0210043486203384 1.1708852647456027 1.3143826459420267
Ni 2.8676144044003076 5.769275866919562 8.066929064027882 -0.48435212683252066 -0.9072266059755342 0.2629186952802504
Ni 5.462674820768836 5.598498663764207 7.612853989160459 -0.6338340077471536 -3.2181091876386314 0.9475175922850972
Ni 4.301888772600996 1.6523194272901132 0.9669710208621327 -0.5264480275613063 -0.5117639431865703 0.4905561987607035
Ni 4.765765924491631 1.87270031638221 3.4708789415383907 -0.6322070136666919 0.4584660030943781 -0.2590651258621151
Ni 5.803556508038775 1.8991979719325212 9.26535561119078 -0.03596073436532517 0.6463331686554288 -1.5362436519500189
Ni 4.6232148910885655 6.527308762706687 9.501521105108933 -0.06721120773917458 2.518765528224443 -0.10333572137587364
Ni 3.3576248223608376 6.420253002024224 12.868129529660047 0.2653594435112591 -0.7937016027714847 0.3146490337750065
Ni 0.2423115298211838 1.4060575417684105 10.099182453236608 1.117427659147095 2.1672774712442155 -0.720927813342868
Ni 2.9742029990822356 1.4309107729968404 9.468181336314796 0.09179635327770642 -0.18030477983276044 0.228247112039994
Ni 7.195524323231068 6.1736641003021475 13.59371868104206 -2.8288248857462377 2.1720530382559886 0.17455322206096388
Ni 3.304984557420622 3.7411400788395466 6.742255576880568 1.5683099363569442 -1.5127530250272463 0.9482855807993734
Ni 2.635797291615128 6.880710498790948 3.885173897128309 -1.2520871303369145 0.6743746481736773 -1.5142026129895794
Ni 5.178180069763399 9.268769660322686 10.357897115668555 -0.6325402286363945 -1.156737512490311 0.29093009289151184
Ni 5.188373631895058 7.98758559049712 0.07558185289445922 -0.5810055510922123 -0.009524651660983596 -0.6622444405690465
Ni 7.621841328678738 8.12777276393748 11.938797139128969 -0.6624264746728655 -1.5752400878178743 -3.190146383877119
Ni 4.908111404854463 5.321637405207501 5.314200122478994 -0.3861858654727285 0.4970366642787246 -0.029820682905858324
Ni 8.10765659595447 6.572829417798759 7.716194845806672 -1.452850435134343 -0.42662906108943943 0.9150926389871724
Ni 2.4895743334478615 8.498188685761207 13.545870604935326 -0.3672442913732191 0.15459683354369505 0.5968252917332882
Ni 0.2003768409492141 5.830353149829429 4.850334182572371 -0.7866832624721226 -1.0325321467542796 -0.2820011658329982
Ni 7.389818662853324 8.829642963140362 0.23075290863596173 0.6634847407340508 1.0065583483983376 2.550973223305239
P 8.59100522674738 4.828235362083092 13.211478787744811 3.849560811196538 -2.1726613612639483 0.7153050678394519
Ni 7.810099883574091 7.906186586564006 5.889968203157624 0.6368673952568387 0.8094534662891028 -0.6973016892834959
P 7.356145337534806 2.8437515650930103 10.392399193472022 0.5772885072519413 0.6886627826615753 -0.11254387023770294
Ni 0.6440359826687224 3.3190836273167497 1.2646099544586065 -0.09644799311710486 1.6645933788717266 0.6992346446401506
P 7.81265995325702 0.6484955493098238 4.894175843058521 -0.36763972703942494 0.2201450517581499 -0.24891466769167456
P 2.6542970652362903 6.298873931765377 1.2444265145715183 -0.042870831221597135 -0.21315396515229743 1.5894667729402174
P 3.6340656315170627 3.755379298535835 4.468599762887698 0.09931220203877736 -0.43163602738572754 -0.3795472771102883
Ni 1.4159988342597822 3.1507824039642274 8.34416031805701 3.092853526261216 -0.8359111462599992 2.4283951087599855
Ni 1.1042309321431463 6.9558681649569225 6.785522623186061 -0.5201583378978525 0.5703413865101469 0.15373114310929006
Ni 0.6272217439774884 8.179544100116704 4.6844855807226535 0.23676697658554707 0.8220061061431327 0.1443126780088676
Ni 8.378902519184754 4.781957898070154 9.848753446990138 -1.2781599161645665 -1.666829467291097 -0.7260579354805817
Ni 3.5931325465502386 4.828795961283732 10.52897050206825 -0.3912326838680166 0.1824007431298407 1.3210741990295896
Ni 7.24375454112624 1.9431396059427866 2.985748539619443 -0.05840029431576395 0.6946408546218811 0.41446542914371204
Ni 3.4249434430378445 7.333553189748962 6.0813894718765935 1.167925925006963 -0.13395678869584027 -0.013017495305590484
Ni 7.227282267947397 6.533400607353655 4.084499614576321 -0.7154109972896968 0.14047119277559034 -0.896034851024773
Ni 4.277867096853517 5.310051688394248 2.8429966248361462 -0.3196225757301979 -0.3969407899963874 -0.667153962055522
Ni 5.773994243524959 3.6314681885540914 1.4109067248539575 -1.0299566727176197 -0.773455708038255 -0.10055841574105262
Ni 3.0805299808038646 9.61623838820016 4.463730958830129 -0.42827251023013335 -0.5690437507446457 0.39917919240860283
Ni 9.227182542955113 0.6755930460048211 12.604791792486811 0.27908964861315805 -0.7361024642007774 0.46172050547593385
Ni 6.697245067061079 1.4826260492559982 6.853938149632324 0.8298559412048547 -0.9854904719844447 0.19201821161494673
Ni 6.182998076992825 6.770235082984574 1.9281463803216357 0.4570788929388645 1.20030357000672 2.2163616303653764
Ni 8.892514163492281 1.4048335668470102 1.270145871564939 1.4387394496542576 -3.6207002339422614 0.8697383792220892
Ni 6.306227124613788 3.978077330990583 3.740138474934401 0.5376253843343645 1.3199794233035138 -0.1372164332837185
Ni 3.894725573175235 3.415450629906985 8.918806266002356 0.6069325553706192 -0.06158537691196491 -1.0145382812800205
Ni 7.300571270111233 3.8860736588453384 7.912388682387101 -1.1806796251282052 0.017394027106731335 -0.10352701145107332
Ni 1.499883161315739 5.08381253765545 13.410694254016695 -1.018653846110291 -0.17579300800533595 -0.40026471216329773
Ni 5.747001392014082 7.510468954151339 6.84799019211352 -0.04981538086023033 2.625392004536446 -0.7982619684486575
Ni 4.838036504774303 7.418063519245634 4.102727497585172 0.6862086646941279 -0.45367449524300574 -0.8942397067975633
Ni 1.684572567967008 4.7290933934496815 2.9590004830928454 0.3150940917322251 0.5631512965196108 0.43235259383677793
Ni 9.048211248150386 6.888045004999339 2.709242327223143 0.802232008839999 0.5148492669801132 -0.9383618939277582
Ni 1.3745985832924241 2.9077533071662227 5.718717293677726 1.012819498816701 -1.0793809887870185 -1.125395764954236
Ni 4.522344408253177 4.430882648668553 12.560061582267645 0.26283770553066993 -1.8730334834881228 0.8579604127505546
P 2.15111256606069 -0.39636979614941337 6.447192596611041 -0.9269582800765067 0.9752867919785656 -0.6357083419517309
Ni 7.767456971045311 4.948156874420271 1.8875048069391451 1.1485148674702026 -0.7433038670452231 1.060264836782858
P 3.769562458312059 7.857162186467926 11.423267311223247 1.1801047264613418 2.30117023947134 -0.17641624341163167
Ni 3.7076069033211874 8.562853803555177 2.1192798747842763 -0.893815474775951 -0.11410710095976476 0.14377891699258463
P 5.224550966976443 5.557201189316967 0.6146344232590896 -1.770875584470434 -0.5120647622564407 -0.9869912248996874
P 9.152398609589568 3.706523078199947 3.589536302678125 -0.5374610908423583 0.4498852034039026 -0.4610093383415222
P 0.394448809555216 8.661154873387625 0.6799376898097911 -0.8485113515225129 0.3000868196901154 -0.8705068819569975
Ni 1.1799305108697404 9.153996317311394 2.4976236036370696 0.982547844416353 -0.6695635999382791 0.8924175659871598
