# total energy = -340896.2493122809 ev
CRYSTAL
PRIMVEC
9.03174105829190 0.00000000000000 0.00000000000000
0.00000000000000 9.03174105829190 0.00000000000000
0.00000000000000 0.00000000000000 13.21886598119304
PRIMCOORD
 96 1
Ni 6.527826283566215 1.9354659692474117 11.298018868644577 0.3434356189893956 0.30311043700778767 1.3548878051449247
Ni 4.590246886924899 0.3864754227651106 5.996553085921632 -0.7525845210162007 -0.40795179639491036 -0.21077209518368217
Ni 2.8363369752511782 1.8649732307456384 4.675036871429019 0.02487182354101523 -0.4886510113181907 0.30904145778024195
Ni 3.2888904215174644 4.318861133369321 4.784859229287592 -0.07266066088952003 0.10463721379611655 -0.19671381731840315
Ni 5.1196514173566685 4.612889461610863 2.702781911567991 -0.08788339137654542 0.1694076733042824 -0.6299341584721151
Ni 7.2563536078158695 6.011039095310869 2.645610991040608 -0.6176936505418652 0.4275705990671024 -0.5948180314952725
Ni 5.1460060375934615 4.2463362531426405 11.82734211340735 0.6861243325104376 0.05038385176919065 -0.816186414137562
Ni 5.685453864016771 7.788648295367506 12.316241994978272 -0.3995170353639958 -0.5439022184820116 0.9567355113389394
Ni 1.9092106981616135 6.542015148676565 0.3546638246163667 0.1501917624974639 -0.008854107956520234 -0.08102908745887336
Ni 2.7934813642081395 1.6844106646819028 0.3545328643718727 -0.6377094315421598 -1.4093630533746695 0.9769081296320722
Ni 0.4611769525726914 8.913470351197022 4.853306278452959 0.2790572527133258 0.8598329471829192 -0.5908690741498532
Ni 8.665657441650364 2.419693731199248 1.442706824747366 0.4461331925606381 0.1093824417905858 -1.02939745778004
Ni 6.774699892048915 0.6187898647564773 4.789908875680461 0.7785914866029237 0.6430077038266216 -0.1888801802065973
Ni 1.0468781310030832 7.48336641784048 2.6049753819352675 -0.39172839255751246 0.20750859394106194 0.0005263048171152226
Ni 7.5156277966910014 3.8901605150829437 3.6208592873500693 0.5750724734372289 -0.7517450558340408 0.7858839064992788
Ni 7.827159638989743 3.9891213012154143 12.547149291721905 -0.009040255825397333 -1.5246176376753162 0.5688357484988977
Ni 7.764551610380609 8.8833675584454 7.057460220219372 -0.030091162958425594 -0.8270264421758596 -0.9118052264851523
Ni 6.894234984178444 0.6264298144680276 0.543969115967702 0.07623346584244291 -0.2471074392796067 -0.9962775352976196
Ni 1.7934960324749099 6.5940741037981825 8.994737956711301 -0.5120369943422988 0.37986660812291995 0.5828940263641768
Ni 0.046396053514876405 4.894246257229986 1.4691318925639565 0.19490247514127726 -0.5683127861158923 -1.0478332958877246
Ni 6.253333611106779 1.8867216630726429 6.89453754750193 0.3943953978667143 1.2075129432709655 0.1937814741629566
Ni 3.3945888864356264 4.476428886848109 0.6344463877792608 0.952503732645779 -0.2117509141571837 -1.3892182029956783
Ni 5.896995301709089 5.552443414315859 4.8279921147793186 -0.22849033839905164 1.1770592547667986 -0.05673396235693455
Ni 5.079252439865518 2.8110029417473377 9.614358741639741 0.15386046959830277 0.32882249706191113 -1.004170050671819
P 0.3488184818414342 5.647114123473526 12.324490684033197 -0.4548183790394619 -1.24571979335799 -0.35484977436360826
P 4.027948755772637 6.019845042785466 12.410399701247163 0.44668649396094684 0.9856575936899282 1.0389375360599913
P 2.4143740357504915 8.501821659917864 1.264164659145238 0.7007055727587223 0.5949686981405238 0.2760760585978148
P 6.226843514754992 7.746795207575421 5.710682226150916 0.06180417779099034 -0.446590848923347 0.8700929343480306
P 5.024041407135044 0.8186568740327294 12.662232638712736 -0.8236436417465557 1.0177611590926923 -0.20162693834930437
P 3.758522890013969 6.289063178501143 8.181883073096706 1.4082081138346199 -0.02699092676654706 -0.5216444355250758
P 4.783706779136045 1.1282450856683592 3.753867027528682 0.1708950564830863 0.21415078184792796 0.3998451081273759
P 0.18303003770482254 5.520163971983337 3.5337860787212554 0.5716829881397058 0.08006158133928148 0.42619454465518214
Ni 1.542856187995382 1.1287598949053357 2.515960348991542 0.029645847890890874 -0.3229670667223986 0.28762056890230464
Ni 1.8180623679937855 6.5099344046460335 4.724105417105673 -0.02113832464051198 -0.5331820038510301 0.17296787985171502
Ni 5.940329595025105 5.526973904697025 9.079457493635624 -0.8244211433425285 0.7283217918140941 0.805412977671142
Ni 8.758205691673128 2.262613691734438 10.24734379372527 -0.30052853521322437 0.5268450058894089 -0.08904193046102085
Ni 2.2889683119712316 5.200928054611948 6.901437797625614 -0.7679466052945677 0.049424316069398753 0.6040688606695791
Ni 0.5491415940381653 -0.12747399246816538 9.166173045320855 0.5760137543045757 0.8589199484503465 -0.1403043281804229
Ni 1.5646497790273846 1.0390747067794406 11.446255930496692 -0.22164760444560538 0.39732234170552216 -0.020946777454996183
Ni 4.294484464411437 6.96903586313702 1.622575753102333 -0.6841042167566154 -0.38865155340440166 -0.3316252566180289
Ni 5.590810250082103 7.759900263765822 8.05445333615944 -0.5342101880052283 0.49578145171538485 -0.12278997344574338
Ni 5.3042963303522175 3.1152642325414113 4.627911956415476 0.37299662047596405 -1.172149476170007 0.47912533121594264
Ni 0.5219795361560085 7.35465507685537 6.784239216892679 0.3706893124990261 -0.41219514505229654 0.4642340159264069
Ni 4.937210249165019 4.615653174356736 7.006224056702818 0.7008343850271027 0.6923299471005173 -0.15290993275957537
Ni 8.116383081019505 7.1312459314895955 9.093509076282782 -0.3239428003721066 -0.22913594240285054 0.15094560994435294
Ni 4.786506618845917 0.26783537616864095 10.49420656411877 -0.6330328520020969 0.07064851555549767 -0.5794250939789698
Ni 8.104090881519069 7.01622670985986 4.654971052450237 -0.2983137869500927 0.45132399273295826 0.4916774568493404
Ni 7.170127576492816 6.117414940804 6.963883254896756 0.21271404940140137 -0.2268358335147642 -0.23184331403168462
Ni 2.3088923326163195 5.392021630681202 2.4504865489632386 -0.11318767446928893 -0.607463745283741 1.580076332864253
Ni 2.314528139000062 5.338327930438659 11.267365139691982 -0.4421587812939224 -0.29890282668434326 0.8005551353582084
Ni 0.9806483742531147 3.3372734580522496 3.6967882307594944 0.03724654305628424 0.29487827890598245 0.04843675534514884
Ni 3.572243231897495 2.785361829049511 2.4376912814891245 -0.3958007628546732 -0.2970282353694497 1.6848140767939759
Ni 1.0467426548880896 3.240001607486702 8.478368938064238 0.2858092267251787 0.2291624247654118 -1.855314726052121
Ni 3.6379852746334858 2.8127731629832566 7.112608933936948 -0.8106564854582684 -0.7462765765203019 -0.2708801162191722
Ni 3.981516575293762 6.909923118294725 6.069429300873196 0.9948045502965189 -0.04997890302128812 -0.4099261465124618
Ni 0.8912792970622053 7.497952679554811 11.314675205396016 -0.3166562940130224 -0.10838022577831657 -0.19681871832738362
P 9.128741897922168 5.475556203186379 7.939382633606006 0.42129145092660997 0.17491369072417617 0.23236987595911596
P 8.53315276944543 1.529263417791004 8.095629946550655 0.5158635671772406 1.227972239566582 -0.38535874158574274
P 1.9798660080013795 3.243822033929527 10.50926247636508 -0.1667617510410031 -0.12904675298873258 -0.820157225859852
P 3.8853285336481647 6.177466986710252 3.8535106132807213 0.5763405415163751 0.6702266874435748 -0.9808288048427174
P 6.871456933377487 3.975456277083039 10.289089403799458 0.12414520192205715 -0.9781114059115541 1.0554255064126854
P 6.325948808743455 7.5905189930595744 10.267396968266652 0.12212997126424127 0.23957950633367772 -1.0726966347883076
P 2.3241740383876204 8.304496182558895 5.880730039342933 -0.6039611314471212 1.6132595044844409 0.8563408748692607
P 6.823697086971673 3.82491521810193 1.4552916526561899 0.26796885610964816 0.24112448222329438 -0.17681193618815355
Ni 5.060927037377356 2.677044159241469 0.6959543503346455 1.4051081347530576 0.230368529258371 -1.0195205649859604
Ni 1.4874464569629182 1.2051413285388395 6.827650280007191 -0.13692101353048677 0.08345415196059822 0.5754828215017701
Ni 6.859715670078024 0.6738663245460564 9.165314126751793 -0.4282131177471077 -0.2412972603557328 0.6164296962277771
Ni 2.8349551188782414 1.6722268460734606 9.217727126120595 -0.29655540949808923 -0.321546275115472 0.5858579940885071
Ni 6.654071959258437 1.7912200337430142 2.554638779822272 -1.2520143681174503 0.2242806711930783 0.9416801596677138
Ni 4.008476322177528 6.879106818004137 10.343339459287575 0.6732171375304663 0.3276269340919132 -0.4523773736981371
Ni 8.249348372015419 6.978744984711576 0.35852308754549006 0.7089475010525403 0.5172882154389091 -0.34854928606687713
Ni 7.37017160789266 3.7905855705625013 8.183086100997851 1.3379267518105538 -0.688548368570898 -0.3655841300619768
Ni 3.0946357360983554 8.277834483128116 12.297048642180052 1.0708791219635945 0.11312596799341808 0.6737619542903429
Ni 0.1827861806978337 4.853052486530871 10.056503106404003 -0.4963224118205194 -0.061858685178009604 0.5792191486157509
Ni 8.451758719557153 2.3156300114020114 5.858416220029355 0.5975423724049709 0.1708194660501445 -0.3086714760353329
Ni 3.7324121267841637 2.4551523463636253 11.669046401603996 -0.08940805555118796 -0.16491467052993533 -1.0285862747326544
Ni 1.2525128100816711 3.303431524526799 12.535067531786757 -0.8696964702405602 0.47466189612795034 0.1796216377228068
Ni 3.1147313598224353 8.648786149463136 7.988438534845262 0.15196659500969956 -1.043677364737822 -0.07407811006233694
Ni 5.697962825301199 7.9040378183782245 3.5130455886898044 -0.664564604061791 -0.4580980782319981 -0.0499202818692108
Ni 3.1940119823168067 8.498208963518028 3.9301801594521115 0.2911553215284405 -0.2859922892702623 -1.1140302034297718
Ni 3.399158947381417 4.499215969390066 9.29977597723134 0.2216170083179861 -0.7090449458623531 -0.4451595157934592
Ni 7.276964040776926 5.8284172922992274 11.300372540349072 -0.0704687954445238 1.8875489034954782 -0.10655602808538421
Ni 0.38694687964528907 9.10273048384336 0.3923559893299415 1.0492587154803414 -0.29310756015880485 0.4851957057797386
Ni 4.521939829745026 0.41926154576771 1.6970243941619254 -0.3370983639174581 -0.39918124929113186 -0.3112824312956188
Ni 6.083862022990536 5.659045053333981 0.31285860505158014 -0.29380715732899076 -0.7251336238940995 0.6457233029855718
Ni 7.901960517948319 8.765729131925784 11.578761505875729 -0.22243256224074592 -0.483483093964006 -0.8912618551161618
Ni 0.007005921493379332 4.840471271318447 5.763200896889413 0.12625402073494385 -0.22851193566560646 -0.1839711729407541
Ni 7.997967924773925 8.618195642697536 2.493593242406066 0.26894973196567873 0.3849118838563113 0.7606708975687608
P 8.640323408146523 1.5075420806869984 3.5727029475143737 -0.7015846329295659 0.06942209934756431 0.611816880046114
P 1.707649334273839 3.3230755612008998 1.4932294807249533 0.19103579309701937 -0.3202062161478098 0.4759140233674965
P 4.731087856072453 1.16973690382046 8.197177423305407 0.36304593702115534 -0.6344251043639332 -0.039757225293279914
P 8.639357011859568 1.5985820299628313 12.3593884280815 -1.0353495615984172 1.0949271640517337 0.5553881076344241
P 6.4930179537538075 7.553425632774272 1.3498840097982145 -1.87547628860166 1.1186111379322348 0.19912962584874738
P 1.6971996099373174 3.3342749200403867 5.992257589902228 -0.12283933862644007 -1.387895627529513 -0.2210084281997097
P 6.934390104662606 4.008033766868548 5.975654540422688 -0.8223058967717387 -0.5534055299867566 -0.278207760228837
P 2.5160895028878363 8.61265015372379 10.174745756396492 -0.28932932406329526 -0.3105658648445684 -0.44164250377913616
