# total energy = -381163.46701717156 ev
CRYSTAL
PRIMVEC
9.34832086906328 0.00000000000000 0.00000000000000

0.00000000000000 9.34832086906328 0.00000000000000

0.00000000000000 0.00000000000000 13.68221253462768

PRIMCOORD
 96 1
Ni 7.76972590266004 8.427240041577852 4.24996909630402 -2.2419867871326487 3.2982628144710873 -1.589917744434707
Ni 3.985637848856629 2.732831993835209 9.138117199749015 0.3185139160470514 -1.8491757030339186 0.33579867126942814
Ni 0.6054598845674017 8.147949611289823 3.9999809773608104 1.6844739198457377 0.0467025462628615 0.015199847668889951
Ni 7.938752889875125 9.0560361391968 7.6097864180317485 1.141953669312917 0.2662125355401738 -0.21825734781713382
Ni 6.359653247908553 8.162794744617491 5.808044364936887 -1.9279879853471313 0.4059059696094751 2.0596624057666983
Ni 8.639082337760641 5.480808267261616 1.7269414647313037 -0.808374117181995 -0.19420981994962683 -1.1601948749112923
Ni 1.2550214070356875 0.5473619408616164 1.0731806765887182 0.6525796637857729 0.9773290192195749 0.7106367158295052
Ni 0.5892508312444532 2.861156392568767 5.830907552959227 0.5478874283820048 0.5238442713898721 -1.7585060071614875
Ni 3.9576863698580613 4.335162212829019 1.8299141524627827 0.16722532094098297 0.9587530559896004 0.05014036829981688
Ni 4.354634764920664 7.053466916241561 2.4780126627359933 0.0378252983778897 -0.06918992873210018 -1.0421521863425471
Ni 1.2615278382674613 0.05098013229792268 7.24831583499171 -1.7068306902743833 -3.6388185408095266 1.0731226665821325
Ni 3.2778577893450724 5.420380722028591 3.744356755846284 1.1327141529925202 0.4084989271476319 1.9298854594801602
Ni 5.724752696849449 4.818059068732032 3.4614214153035587 -0.12150982118173913 1.450542612936773 -0.994682680006674
Ni 2.4570004422192437 8.436083552993452 11.276893325481824 -0.7747695417536721 -0.8338460362008543 0.830442409835944
Ni 2.401779911635786 1.8648497618826982 6.969486276915931 2.267104665246199 2.324414040490629 -1.1061240612088177
Ni 4.009522808335338 4.861397883660914 8.353292020065354 -1.5916923198366264 1.0105558995935047 0.8338902591752283
Ni 1.6364515896776797 3.6564460824835314 3.594892064601903 -1.0805588111452038 -0.7237583408131277 0.01086522484927806
Ni 1.8156308532113075 5.337199364125831 1.8477554225861161 -1.0874912765989788 0.41649917174428913 -1.3458812307709402
Ni 2.7361599960169785 7.740418917154853 8.866894370255556 0.039722772510918686 -0.4885872479597908 -0.4836730984876251
Ni 5.618312716957245 5.735185422790051 0.665426557588175 1.4334404060388475 -0.5841114437110456 0.5340384383140545
Ni 6.839437113006709 3.344576754432958 1.2337876313175113 0.799152855694043 2.00532882532114 1.61158597343676
Ni 0.7856123082895747 6.312238565139077 12.888096970517587 0.9725192565357573 -1.4094723252590242 0.871431450653796
Ni 3.6035065421594887 0.21987063403027138 13.57239872250242 -1.448501671247344 1.8045932884378533 -0.3848548053661307
Ni 6.592314254368872 2.9856666764423196 12.757335464568333 -4.804770372809254 1.2091967587312915 -3.3646016469076376
P 6.940146572288171 4.734288766622947 8.571139677488505 -2.0076515599170457 -1.2042697537433196 -0.8001674130014864
Ni 1.8995320318106867 7.335795550768565 6.017409356124819 -0.6612748775669257 -1.1872755331781681 0.182897223150285
P 2.87860035906085 2.140662616857193 2.9064574200199904 0.7235755353783602 -1.5944598552794345 -0.38544795886543937
Ni 9.369728389790758 7.640055345740599 0.9022615892568079 0.3861413853880382 -0.1773328416886301 1.0828874592783801
P 2.721370952613723 1.107458164228868 11.168297622828057 -0.15161923897260984 0.6536106761534485 -0.7405844112315311
P 4.852844170188109 3.082926605372453 0.3346904486296049 1.710581415566067 -0.17795607709492578 -0.10077464551691677
P 0.9920064031478277 4.0039979507807715 -0.11511709119871631 -0.6137125544069302 0.9927792923363742 0.33608946303696957
Ni 2.328769526693039 4.585987006478039 5.98890913069909 1.461106247385232 -0.3279519215314997 1.1034498568107642
Ni 7.819290699198638 8.965460259592412 11.319677784991104 -0.36557795941438975 -0.25987399491665564 0.6609863997922294
Ni 6.6870501367004715 1.700057563960708 7.749016567735115 -0.8727188020066518 1.0709536839552718 0.563511765182823
Ni 3.6423114215317476 9.04215388290487 6.636693537395594 0.32134958572363365 -1.1541795219551476 2.244631423844347
Ni 7.6559661876320915 5.940988703777833 12.673846546913381 -0.8732029407319221 0.8931840118395391 1.2898255254279527
Ni 4.2351258326405 2.3800731108884032 11.89366000397858 -0.1540198779943025 -0.0250595140717891 0.6174036301052721
Ni 0.4879935603679029 9.149145413720456 10.16023267432112 -0.15570189368241572 0.5641892508658218 -0.7831899046068834
Ni 0.36766010619888534 7.226186490147092 8.305363179655435 0.3493162461398887 0.05302308916425062 0.5523004698480359
Ni 8.797695295676593 4.39778661343484 4.434979842312332 -0.30977113685741486 -1.0041991041375415 -0.3985449012587136
Ni 0.3796745680079018 6.973267672653363 10.787206784228758 -0.14246071240179337 -1.0397348351503062 -0.799592771444939
Ni 6.8637988368429195 7.967302661400752 0.8942566222111645 0.23690453060467587 -0.5842687952245164 -0.13330090027939623
Ni 3.1747458116346374 6.106940093471001 10.960929432949186 1.3399309267247763 1.397171139294168 -0.35762733710874534
Ni 3.845366296223349 7.786085463946828 4.703561771198067 0.8414284765338025 -1.243766012065729 -0.8242025995738193
Ni 8.3988959331084 2.3959559078176897 13.175491460051054 4.800428808011106 -1.7245646172190363 1.168644548340542
Ni 1.3527674486440564 2.0912006518466844 12.57719612849519 0.14223471243391633 -0.39938436644087344 -0.4662834422562679
Ni 8.754440615634328 7.351874662433293 5.954211903457925 0.6539001823694094 1.9626192022677555 1.6973759726193862
Ni 4.29605818719323 7.455435359539023 13.508284199571392 -0.3559360654492515 -1.3995254984589576 -0.10638659238705549
Ni 7.476936497230228 5.834436544036805 10.333723484687313 -1.3107350218871103 1.4259939770631311 1.1874300564781612
Ni 2.510229780486081 8.78238274631216 2.8628250678200193 1.4066896203075645 0.5111479068691261 -0.7801637161860498
Ni 8.906191906130566 4.477340822892302 9.176920209457128 2.51844028367454 -0.07102672483052283 -0.7652927126114885
Ni 4.061004010624673 4.655762872446369 12.76969114008419 -1.000275343603103 0.2820577301025465 0.10245871808755902
Ni 4.634878723923694 9.56838020541603 8.793147337638867 -0.9473270735408459 0.26001566270084253 -0.6376047876434954
Ni 5.030322039347911 6.736960821106274 9.180477245496911 0.6022827153034337 0.40770317071921397 0.3271962743123978
Ni 0.11761870182748443 2.1445702149245514 7.83521462873916 -1.0746936106136782 -0.8486211376274997 0.8732235095572122
Ni 5.759444315098174 9.287556650527412 12.746800841931716 1.7792257562073421 1.5381691511075057 1.9675665189707017
P 5.026227474865846 1.1574062419176128 6.398048670832605 1.0223937727686974 1.7396194546696295 -0.30277593648650436
Ni 6.804642663229897 1.0528359261724698 0.9958008865342888 0.48297247287617456 0.20318862640946941 -0.7205565460463783
P 9.57744807652928 0.7103732836835306 5.6236767833951635 -1.8797605177993109 0.054844458643705546 0.22912000156325057
Ni 6.453641264581329 8.641447462906674 9.547871859386914 1.187301501320097 -1.8508746880028963 -0.9095010038320079
P 7.7253961657332155 1.1041582070093046 9.597812458419071 0.4392243812559467 -1.0937007478438003 -0.522422451341681
P 4.9625280173754645 5.069706514605759 5.5733398155638305 -0.6104446822889357 1.2146050742310566 -1.2238029386802407
P 7.559575652530342 1.9656527043715126 3.123881598513832 -0.32520392647271734 0.5623426845753864 -0.10603820790870126
Ni 7.331411188343706 6.768548796870877 8.123731851592938 -0.1701959735335327 0.3305140258317211 -1.3433355815309511
Ni 5.2160357790755185 2.4511296967974707 2.6060921354662856 -0.556103902754526 -1.3638516992064318 0.7196895700603928
Ni 8.50606508201796 6.527577133276871 3.7364209663740824 0.09477189096626258 -2.1924105188664176 -1.5554719040520115
Ni 7.060730561452894 5.968014699023605 5.488701989290509 -1.5394883841395615 -1.6213970459899107 0.23954196822752294
Ni 2.917124788811049 2.5809124335657367 0.6835828661202881 -1.9817759777018644 -1.0009309749092312 0.288057142219091
Ni 7.314696390868977 1.42811491377063 5.455672502468522 1.1479373977001779 -1.7832035099081676 -0.3259210071444
Ni 7.962469579580599 3.7869392916276805 6.7429362677202835 -1.1708860360765512 -0.08569152593154919 1.1140191476861783
Ni 6.448611868025733 3.4084444816965744 5.034383884707402 -0.19812612428489748 0.026201083875400037 -0.8055497603593224
Ni 5.863575259768757 1.2489449985577379 10.622363170542723 -0.8078539830124667 0.4554876371923446 0.5984692550946145
Ni 4.988535045661089 0.41392307585377214 4.286172338015643 0.14594224319249058 0.6988592635786028 0.5496872005949051
Ni 4.9693709881537105 3.5320760234210082 6.928234942007243 0.5411220846337133 -2.590810152796519 0.6028761259130585
Ni 2.3464004595998276 0.8938798848855317 8.97365686721313 0.1612081682126256 0.5194983357163505 2.4903381261216855
Ni 5.1002007368443305 4.321859552422677 10.460516628484429 0.5792895968423701 0.25700618645055734 -0.1089633519752962
Ni 5.100369006617565 9.274590529667542 1.9698416868930035 -0.926856721501636 -0.1937609053376663 -0.29119311674491144
Ni 8.879334180658029 4.301396078333091 11.646819464626947 -0.29706705902718517 -0.42490333664758434 1.3061692568932988
Ni 2.2586477728575014 0.11136187075934352 5.033604234758077 -0.4074463175134015 2.1951114627373483 -0.9481439130151865
Ni 8.496744806244859 0.12481036496915603 2.2539390237031274 -0.5032595052599849 -0.7340818342263228 -0.8172953309310247
Ni 0.5097442982227415 1.24916000993465 3.63692398429199 0.9882058140330786 1.756039547898866 -0.8078380421728668
Ni 1.8478545147859102 3.668224966610018 8.69998477768702 -0.01850808610651651 -2.4277086242159216 -1.2932692610021792
Ni 0.20880409194381508 5.465729425915565 6.723918044016375 0.5764292445754394 -1.1290377325821974 0.3621789610351698
Ni 3.662709457376187 2.7069558420398794 4.899640928956982 0.4844050915576432 -0.2600215762381135 -0.15565047161919
Ni 7.281958571653932 3.2184024694685207 10.372307743690218 -1.1209894083564242 -0.16395770593330475 -0.4299426988437047
Ni 0.0263052397170801 2.2038853099900737 10.1023160880376 2.339091697107462 0.8366084294373398 1.4711214655293892
Ni 9.136721495463235 3.1507206273448984 1.7319493601492075 1.0018997665804035 -0.5800200472504914 0.6723583890745969
Ni 4.776150546875651 8.224802156054782 11.239828168598406 -0.4539125793957408 -1.6363822065448335 -2.0289382372099642
P 6.520220004858184 6.772933159295737 2.762589568399838 0.30110214832850724 0.22603879153476558 -0.6878366872158541
Ni 4.017020161565054 6.628567042180391 6.841503091889212 0.7883904749712164 0.03591599717031879 -0.08719844949437885
P 1.2937982414457405 5.641533945663747 4.4665304247939925 -1.4147155759358343 1.687412176538455 0.02836106764119632
Ni 1.6029565564830752 4.530859959101933 11.029149738347162 0.39293038328541363 -1.3928491148800464 0.5747228034072941
P 5.494531602101046 5.941988974096511 11.817737617126784 0.5215978985578567 1.6811538543335691 0.48082225930239125
P 1.8632698956784313 5.578844106812779 9.179259159305103 -0.3947985468424039 3.6232517967195217 0.046423324459545855
P 2.322917477912737 7.9770249149654715 0.857110134937349 0.08157956064570467 -0.7411263997779302 -0.39257557104915614
Ni -0.030993422565836516 9.275516013420336 13.015683786745129 -0.3779009997561169 0.2583824979727937 -1.2063047818954773
