# total energy = -381165.2774044179 ev
CRYSTAL
PRIMVEC
9.27117079880285 0.00000000000000 0.00000000000000
0.00000000000000 9.27117079880285 0.00000000000000
0.00000000000000 0.00000000000000 13.56929560835427
PRIMCOORD
 96 1
Ni 5.396377752532443 1.7231583717162917 0.8683601202776254 -0.879349419949292 -0.4573030931345286 -0.6899071965916376
Ni 2.801349195223766 4.3810918237968695 12.794665537600537 0.8410695505324871 -0.9975813417107078 0.3198876564661265
Ni 3.954376910492299 1.3721796537531596 12.31402763992274 0.6185601123072185 1.905678523216653 2.03787564890891
Ni 7.23130008983094 7.889349260224452 7.592889662925456 -2.880912607580413 1.680815497157544 2.47386352550543
Ni 6.815840378037509 3.6760656302921966 0.6433905220333276 0.2078289533949582 -1.5157607015053185 -0.8869035781474661
Ni 3.6125117535550735 2.0298672484803335 8.85016613261892 0.9379379190164621 -1.332596340736576 1.8012207724211946
Ni 3.5621971089084843 6.3377353642582674 2.627069724048793 -0.6329755164016002 -1.7836369979011604 -2.6019314595206606
Ni 8.824810407237687 -0.029612119955998727 3.1991649416169885 0.11145346538700161 1.6152986464016568 -0.29894087901113037
Ni 4.629104917392023 8.502321997547812 11.623689762525235 -0.603104954094413 -0.611298802759115 -0.5023267090330703
Ni 5.938351862860487 3.605067003296881 9.33267680682493 0.003372001796026451 0.549247541954325 0.45400565333017934
Ni 5.485371722306279 6.5903562298065 9.313218473273377 -0.862129970747212 -0.2875604050883306 -0.40088717623864506
Ni 5.5084291244135315 3.225690688769809 2.605834107029627 0.5857993729364299 0.16292746489657747 1.6797862845620812
Ni 7.573526822434503 9.080175539381717 5.347971114863607 -0.6757779562791071 -0.13151295514103803 -0.18999166810322118
Ni 2.077076050864788 4.793297354593256 6.474549106580961 1.0216106147457695 1.2920402736910845 0.4036238584435178
Ni 6.60155580429205 0.7297273742181248 2.6420371024010043 -0.8249929566855985 -1.284791305438155 0.876791686524445
Ni 0.4867012434671573 1.0442676090682133 10.615300657845788 1.3523920353062644 -1.179443438728259 -0.7079455421505872
Ni 1.4666992414023166 1.8398175155504597 13.027120679255127 0.1311594284563612 0.7177674133370154 -0.9160326343029385
Ni 0.37922055885541867 4.191032819696063 12.606201174899992 1.536876400438011 -1.1155556389353627 0.3821934564838837
Ni 5.513639522477174 1.3076430328972715 10.419386909301585 -3.3990983951329263 0.05276700728938654 -0.7221598859777563
Ni 3.707430001554296 7.204664015744032 4.575769725255871 0.9857961761503216 3.7085337459174776 2.8382536352593055
Ni 4.130176853700078 6.655968306490471 13.068507186294445 0.14302455532506336 0.2349263238323825 1.3128548964435904
Ni 7.547845678953564 1.8024917813792478 10.149141547812103 2.2373189493433343 2.9863306654066117 -1.451324742518436
Ni 1.6204708824762661 5.235031564807255 1.4650906932456584 0.35025058502870005 0.6039223077893858 -0.24341353536778726
Ni 1.3024419060045616 6.359837835759552 3.8621473020632835 -0.051519508035530626 -1.7773033423736486 -1.5154830223638995
P 4.1834026460192355 3.993547607678928 11.024035062245328 -0.4561568953452273 -0.3341940457864696 -0.6450144498440052
Ni 8.977284084381191 -0.20233310729734524 8.40346442901969 0.4749133500171239 1.349097937936025 0.9970784339323602
P 5.551428815194972 8.776248013897199 4.627441669326868 -0.5306096151381635 -0.38633061858070883 0.1305107391287688
Ni 7.7305526445054955 4.531358962258619 11.770455179726063 -1.2921120074692845 -2.0879216577227075 -0.20057175761191262
P 5.184318259810602 8.638181736381627 0.4144658422695467 -0.36484956588879747 -0.035008140644068736 -0.18485871775203003
P 8.51165806667608 1.9044097634319384 12.03251873286828 -0.12704026408166505 1.3913339637871007 2.2260441477604633
P 6.735060665709201 0.902043211389754 8.161429386441327 -0.3058548325221442 -1.091512739053546 0.530530425160796
Ni 3.33382035534677 6.236948465059251 10.940882857275588 -0.08699996033032759 -0.2547096771068968 -1.603348416018316
Ni 5.919744622800471 1.7300561228895113 4.7221420448091935 -0.5049618326630723 0.406689641853035 1.2888629044043676
Ni 0.6001766672033634 3.360716022219767 5.546056171640026 0.07067859746248473 -0.9324252167283489 1.2979723229048032
Ni 5.726310912480509 5.4882921411497785 11.351407524782047 -1.8227709877881446 -0.3268998261179015 1.2799332060149056
Ni 7.896321180765125 2.511384053162458 2.3722923841418364 0.8400125700228823 1.6295546421000386 1.9122199238795972
Ni 9.320030002556933 0.8548418259420456 6.43259242252934 1.3614212353880681 0.17223640100232915 -0.7955383988699074
Ni 4.2657584574059415 0.5184485140887373 6.949243256574412 -0.4747847948590597 -0.21978484020525374 -0.6953674483752604
Ni 7.865874655425269 1.2859206794041889 0.611465244929858 0.7141056482147121 -0.11526615426487245 -1.3777855356787045
Ni 7.581444402410215 6.351827544074522 10.519501648608049 1.279286573569842 1.5019191676365358 -0.08497547370113108
Ni 4.702356438923753 8.718442263137758 9.179764603296352 -0.6841610381364798 0.7144925992404856 -0.7644277935080318
Ni 8.084665018243557 2.2462378356854367 4.707026327722074 0.7317138482147786 -0.6904774672728108 -0.008364055693979144
Ni 8.215277274330004 7.272603156331871 3.8032976174569284 0.10082915290393603 -2.1472408643083147 -0.6428182135236348
Ni 4.8877335017040275 4.259203739557196 5.061821986757806 0.5136387916117799 -0.37939763890630146 -0.45732237640823814
Ni 1.8857005404916736 8.833645833135641 12.356838198817174 1.8756446958587247 0.3994427304826346 0.047290814666163715
Ni 6.356203536754307 6.4596698043525995 5.023136171810908 -0.680810376496692 0.7480616934451827 0.37864944788636723
Ni 8.570112799400743 7.061415153677615 6.309763314440095 1.4417242433141946 -0.059569889143832905 -2.175139390490796
Ni 4.665976364187579 4.59622934526805 7.523984466326529 -0.3634747970284579 0.5064312181197471 -0.25708666197950564
Ni 4.555899751714952 4.691870744599949 1.124019148540191 -1.778191144295241 -0.5319221633019999 -0.09943921453494486
Ni 8.561768745562171 4.060745054592228 9.377631787555874 0.31797526993476205 0.397451925304851 0.7545419018528876
Ni 5.833105530443299 2.484488386289461 6.930369006791563 -1.5269707112885251 -1.282763990595481 0.703154291409531
Ni 1.7093535981989212 8.34359955119631 9.603682404330815 0.8034671667986808 -0.3021226191732216 -0.23030090924522917
Ni 4.265517406961716 1.3076893887519303 3.3266481775139707 -1.8069864712603783 -0.6537052927497838 -1.268292022231551
Ni 3.2402000712779926 6.520924430698649 8.12533486376985 -0.4377154008105881 1.0652126677064364 0.15886280790890062
Ni 6.313129676605413 5.717976129812869 0.23502325600268387 0.3050909577729262 1.6513982203376916 -0.9830389251201586
Ni 6.6943602253188335 7.658422934656507 12.47088843515115 0.6970764606465673 -1.6712337670063797 0.08299700981852158
P 3.062601520909454 3.041602318749048 7.18696349620114 -0.4087987177762379 0.09105741822915285 -0.37067645698321966
Ni 3.1804381034519538 3.724183007427962 3.233142855964747 -0.19745558058043414 -0.5946305980748147 -2.1815432371346106
P 8.830271126916484 5.3525158428543484 5.037261727842516 0.4971168826973568 -0.6759203953942423 -0.6074290353910635
Ni 2.0881272866154297 7.48114887527058 0.7135185860781522 0.31213423777295274 1.254497796660936 2.2585902000172844
P 1.0243809474196168 1.4870587327684321 3.7479617066337054 -0.6568317541939075 1.0763118629433917 -0.08111804762825385
P 1.0381764497660557 6.081656351952494 10.43591462572161 0.30386325601341213 0.02517649926562761 -0.6146114120721158
P 7.178278263272281 5.681800020837194 8.470334603599099 -0.09460862591552094 -1.3345056419441468 -1.000649182002754
Ni 0.5060223636889173 3.286351960176227 1.2051409670758806 0.6584376652284467 -2.2873346191398287 -1.5353229399079622
Ni 1.507733443946227 6.334017624714638 12.508271650582136 -4.062342994831713e-05 -0.3465314843059 -0.7365948304561637
Ni 1.4783345609216587 3.1546642482616982 10.743191825263766 0.4877904630901083 0.3470955843394861 0.5105804644014305
Ni 7.040026562338075 7.853627438624432 1.5745405745633003 1.0701134474421634 1.3087136205817074 -1.2228624291438421
Ni 0.5846261321995447 3.9045907225888192 3.324070791994945 0.19099851210118074 -0.1929121841841258 1.1238453897479805
Ni 1.1470570811884881 7.946172266865126 5.307901114096598 -0.9621471692728139 -0.1526083423587565 1.0857336704779237
Ni 3.0516615392099933 0.6498655078120594 1.0255537505424825 1.3134290237795057 -0.062201413229409 -0.18904678769144861
Ni 9.090447996774092 6.739584997123894 8.723062087613046 1.5593025906520113 0.6370787399366963 1.0165121171769398
Ni 3.254700182615244 2.4700346308068686 5.138896012064696 0.44023482479833215 0.6054721687750089 1.1092793190083476
Ni 6.77852391503723 4.372367651950095 6.398180617381977 1.7174673440526231 1.6214109299469819 0.4259016960051117
Ni 5.973053855658014 2.8817024336892136 12.029438849884754 -0.1849967859917911 1.2201794829950405 0.4038565432796141
Ni 2.2679787315203823 0.48487760414488273 5.107238671801153 1.1941699463051563 0.5887720824115086 0.7286118122506872
Ni 0.7986705826178724 0.708841280343086 1.3658854558075968 -0.04958269602413396 0.3968148059414843 0.8123505853312396
Ni 2.835615442987501 4.335514747496402 9.130493892496677 -0.18921622338977734 0.3799118595385586 0.6843034772516151
Ni 8.10638737173664 2.541737866792997 7.535287877926514 0.39643171157045276 0.06814606084861811 0.12960879613978968
Ni 7.168524991452083 4.456030698438177 3.9871746047804457 0.3275888817651261 -0.6473837214071302 -0.24010761092300584
Ni 5.141402009567546 7.4406153159569834 6.903216528483756 -1.4776368980504038 -0.12277377549582724 -0.4445784464790085
Ni 6.459521465617692 0.5785053051504055 12.571803276509023 -0.2552670922722636 1.0163689067308561 -0.7584695190420679
Ni 2.0565404072509685 8.66994476799379 2.958771823410637 0.325063287129795 -0.3255037171013233 0.1699740873307137
Ni 8.30909225298835 4.910559124537987 1.8135634137059393 -0.006495635026672684 1.899807666258173 0.2944741014890283
Ni 8.96219988927524 8.613946895566041 -0.22112947924436835 -1.2221062677041081 1.147631950644617 5.059932306962222
Ni 4.663723469651165 8.308535982732444 2.5735389102059805 0.47135365769032367 0.6038282054136828 -0.46504031387778616
Ni 6.222012608688207 6.0801358799196885 2.525774764682715 -1.422127037908557 -1.188159478445018 0.9806336581127756
Ni 8.560730374417815 6.156391260833304 13.190644665032181 -0.7691293127487592 0.7500249878191405 0.18041893681312152
Ni 7.088755836755335 8.960753586609886 10.35109268286706 0.4966425141640995 -3.25175721471038 -0.4049731733825606
P 3.1262481093558945 5.295729920897402 4.557926429680632 -1.14195084109944 -0.7486283645819299 0.8323892491496697
Ni 9.28461412959766 8.046217472389605 11.509598733039162 -1.0314630820598172 -2.5031288501284505 -6.227264821359559
P 2.9259166478627137 0.6619031961498393 10.778389825706142 -0.9812347820318842 -0.7740792005548669 -2.780864812927191
Ni 8.979110505054745 5.063329479151308 7.2304675386812685 0.5268383210211894 -2.3352021322450685 -0.5093417068983227
P 2.1441437013850426 8.250804401340458 7.216191789680566 0.49097194614188355 0.3759042810410623 0.4514417492577451
P 0.011917163115667114 7.005426552420797 1.4739242649094266 0.3025386236647177 0.3654925987894351 0.9641282042585847
P 2.9760829537743945 2.9384605421333667 1.117347613937706 -0.1334811346110024 -0.05804059698350004 -0.7654019844958431
Ni 1.1755103047780184 2.3001404234826115 8.497771706854511 -0.4356333214705788 0.35485723056277596 -0.8547372778275667
