# total energy = -340893.75966168114 ev
CRYSTAL
PRIMVEC
9.00371708802625 0.00000000000000 0.00000000000000

0.00000000000000 9.00371708802625 0.00000000000000

0.00000000000000 0.00000000000000 13.17785006800331

PRIMCOORD
 96 1
Ni 6.203722964830776 2.021730592546148 11.345706932167053 1.0746460452051945 0.6684042895228552 0.8212286045471597
Ni 4.628549716050265 0.4616430713193065 6.067648891962166 -0.008670531190804423 -0.7622251294297583 -0.7943682898212062
Ni 2.5168539849089147 1.5194312378674901 4.712767782190972 1.095961775963835 -0.772045972174922 0.5096849491703545
Ni 3.506875676713625 3.924450055993878 4.665630623455238 -0.3147649905275805 0.6820298507260899 0.3435191798421374
Ni 4.7030554728432294 4.331328019676544 2.6600806104296497 2.0198786981108565 0.28591592750637207 -1.1298769406540412
Ni 7.208906915782235 6.026511810123933 2.625172299896477 -0.3719470961655272 -0.9801682884405829 -1.2992344774466786
Ni 5.090242307812153 4.394795219632266 11.30269437611251 -0.3277251502326743 0.32447270473364764 -0.06695564008494274
Ni 5.630825466464669 7.7342467818365055 12.27550996504938 -0.9772020067234074 0.3818872380973745 0.4936201823980079
Ni 1.8394413415455007 6.238378270920941 0.5168961804082955 0.356007027896503 0.6718837634310234 -0.50835234640186
Ni 2.778745096429997 1.5298215270927569 0.3033721353423345 -0.22947301402729514 -0.16205406115268867 1.4007249180836974
Ni 0.6341065661401153 -0.15239871185849813 4.56168361299009 -0.8180630623349846 0.9450699020755531 -0.12475918135697224
Ni 8.58301816396532 2.3192674190090234 1.3918179577068375 0.42721861504432235 0.42841854888969444 0.17269945668167677
Ni 6.605315746732478 0.6028591668712352 4.5609984301391 1.0434948164133706 -0.6549543346655365 0.945901653948229
Ni 0.8827072912440257 7.347933307400382 2.5776794943458397 -0.4949291310174186 -0.2982489951504283 -0.16301025441837086
Ni 7.582246034262025 3.8484136673393063 3.7669408344609767 0.7704596015244086 -0.22792032482819458 0.3141852067647105
Ni 7.583587588070141 3.9113226368513843 12.430336078966054 0.17040886087528717 -0.7775728155304221 0.12610309697937636
Ni 8.012551669144122 8.887505859823262 6.558009318120283 -0.27445986315063053 0.17203019852879406 0.14577383593542637
Ni 6.8721589025117025 0.7363095566547131 0.4457425073922522 -1.0165182878245267 -0.30288649392243966 -1.2344352215831065
Ni 1.8475626941288545 6.688987287261422 9.182523446316269 0.4006578338366584 -1.147803443225475 -1.0598177219431102
Ni 0.08186539493224755 4.821229256276179 1.4738769325509944 -0.9585316840074137 0.017244646013060624 0.8584178120029475
Ni 6.632750071922588 1.8189578857504562 6.951447433686349 -1.1418906772854656 0.85142106897014 0.8263947221291316
Ni 3.3818500647707728 4.148552567966916 0.4695384306101525 -0.06675612247962696 0.4575584036784442 -0.23194101595181346
Ni 5.763234126210571 5.400411348991709 4.66072900001136 1.23335510114505 -0.563739564922913 1.4310209979640776
Ni 5.098741816502493 3.1762051723053584 9.01197594243752 0.20614616637589658 -0.9149494285410887 0.10679565490001607
P 0.07727800120584086 5.688863425170102 12.533254864968873 0.15371725915221915 -0.18549223757097089 -1.1146958620382288
P 4.072345108692517 5.929118605141516 12.475562648989829 -0.8271881645647043 1.1294905038488998 0.23044103436751925
P 2.426681760826554 8.323972226963463 1.378442936351436 0.31837327670412907 -0.14639604290045755 0.3808901642914279
P 6.270494528864204 7.774394355194793 5.8366405291782275 0.1546035184119144 -0.2994543283124391 -0.4861038194163047
P 4.738341039111704 0.7882006778782649 12.602241343343218 0.401232989613838 0.7916141241148367 -0.0487494014895612
P 3.9769507288470236 6.257493161757371 8.040043618121963 0.5668380013425786 0.09417565214316038 -0.10933127683767623
P 4.637814540671409 0.9430042825028537 3.699167156744037 -0.05985296760189047 -0.2000680785026167 0.8551363130381983
P 0.19780085436051648 5.6172028428963605 3.7168918737014542 0.16236516463520426 -1.5034260911993655 -0.43448172436463883
Ni 1.5928025263394983 0.9896255282640585 2.5259171262729994 -1.1678349079550532 0.41740985648401663 -0.33231302671367285
Ni 1.6612217705533634 6.580087332166449 5.025583916119427 0.9447063480885473 0.22977100488368818 -0.25383370225984675
Ni 5.9636208480455215 5.607748940221725 8.980862698549451 -0.6793890706691332 -0.21515916850778427 1.4613232484920446
Ni 8.63357403398254 2.403119033874628 10.405256103758033 -0.13256376500305556 0.20516606185081437 -0.5993033209601356
Ni 2.539075158052726 5.047960853564447 6.843758478505413 -0.2336011772630558 1.0982634275138181 0.3282619965727508
Ni 0.6348313653451708 9.223587598048155 9.249519202898838 -0.4340446368272202 -0.6268871441156751 0.9410373838773922
Ni 1.5619287813191869 1.2387043507318003 11.48341517964085 -0.24060023428870825 0.18727581183395486 -1.0101198404973508
Ni 4.112753789838961 6.599085174684052 1.70425143366989 0.2232530012595123 0.7930922513222599 -1.1287137735838753
Ni 5.752231584240661 7.9463833541385025 8.003131980593452 -1.1827210810382662 0.47878671692960123 -0.31342621711149893
Ni 5.566142764736494 2.7858400252943905 5.018534005839197 -0.2512775114968963 -0.2140682494364507 -0.6701670378502329
Ni 0.847240750267208 7.758853939941058 7.2311208859525795 0.259982752580378 -1.5489868105483 -0.4379362585721426
Ni 4.920045048518207 4.3014356797910285 6.825981539990364 1.3226479712746124 1.6159604483553718 0.35661072291877294
Ni 7.979345961464067 7.318311079019856 8.912588414176597 0.9612190010315896 0.8899788746386802 0.0005422456567151951
Ni 4.664033364089065 0.5240541352905198 10.427526797344425 -0.7603232844213551 -2.1050652593815293 -0.6509506128227821
Ni 7.955477108139819 7.190242210787454 4.449725095286951 -0.40027011147993646 0.9591657180469869 1.6409160898594448
Ni 7.025330133274471 5.975442728247233 7.0434023937016415 0.7084384226266057 0.6190013136096952 -1.6601284011218376
Ni 2.2787146783932517 5.172248160726995 2.6285459925937973 -0.2806089134711619 -0.01610616153324323 0.9156695945365649
Ni 2.2495876544385403 5.458692408051632 11.372682067798682 -0.0441088173937563 -0.5514697464166245 0.19726429050523445
Ni 1.162136742784082 3.3504811153246474 3.96006245718339 -1.6275766924380615 0.33791828871559226 -1.2843344204063947
Ni 3.554721427964116 2.3866602395039287 2.546460906970825 0.39388554810983134 -0.0028022453354854962 -0.1502241583972961
Ni 1.3449121944937106 3.3751422957301975 8.260363668653461 -0.3346290764413592 0.06191216412376434 -0.2810678553854515
Ni 3.6749840737023183 2.407900007512944 6.8652773617362515 -1.0980083740802187 0.8303344235031701 0.0649208690431011
Ni 4.128744390934345 7.059391194053659 5.97861923954591 -0.28110153683686423 -0.5541727471700842 -0.5831660490786408
Ni 0.5234319784573606 7.301158998453015 10.925003761287337 0.09052905652950861 0.07605194595925611 1.71685387883834
P 0.1382826846077417 5.81752653871348 8.050361877612566 1.089599838301549 -1.0610240835463856 -0.11048235972298391
P 8.589221724863249 1.7113724733130988 8.059981448676929 -1.2640610148693392 0.10672263557023556 0.511595535929506
P 1.911903254617377 3.3134938465747386 10.419370330265423 -0.5268198090784282 0.036722809342330305 0.9757159090961841
P 3.9196150600545647 5.992666838548736 3.8498695683512003 -1.6196926617042944 0.06525691222628116 0.5701215571898569
P 6.802911316349202 3.8526274068171444 10.16437876695346 1.4312742516254642 0.47791639850950596 0.4687146774055798
P 6.381906520955581 7.850673844203855 10.094931298277269 -2.147097396751915 -0.1292285299822355 0.8995454352811927
P 2.343064242598607 8.611244816236734 5.823384356885022 0.8380649593782082 -0.6821882306808251 0.2061757340622514
P 6.799624959705162 3.8934682663715714 1.661436959385672 0.060262801445799444 0.43589017467639124 -0.6706434632660192
Ni 5.27096491208386 2.7811760999749033 0.45868264922462054 0.4250192934001583 -0.24175260272559654 0.057392678986855995
Ni 1.3853298793569875 1.078150072165983 7.178607607895869 1.117067704704515 1.180471365772141 -1.3552336185201175
Ni 6.762214516264103 1.0173839872601562 9.280513597724712 0.47600761152256726 -0.6065633449566586 -0.8082255074192726
Ni 2.820549353685554 1.598195752722457 9.264173652416208 -0.03377169713380635 0.13152426799494768 0.009218947495106704
Ni 6.427402302112662 1.880894453844571 2.602071463618084 -0.7911253574038762 0.722911162321484 -0.5047026654644147
Ni 4.132633996606195 6.862885074173726 10.242351855098807 0.37398675230337525 0.6236226144317905 0.5979912870169314
Ni 7.890083112781838 7.257013774820883 0.35572154575268533 0.7896600857122594 -0.04596078300083052 -0.4042314101205296
Ni 7.98071452642268 3.9566563511054715 8.21758881072331 -1.1981459002337689 -0.771891963095561 -0.45620266098149814
Ni 2.927225390722779 8.143753830834402 12.441273794174766 1.3101248991069374 -0.42234097523704683 -0.6109745866504769
Ni 0.04001611909252574 4.833339255416545 10.284824188143372 0.30708793359829695 0.21335116876476803 -0.14680279142057298
Ni 8.615323499962077 2.2880605364658924 5.821591716863574 1.0430538722212102 0.8224614485129965 -0.9950320929262927
Ni 3.722037497871506 2.4664061594936912 11.59240967376257 -0.4285792428372748 1.1466415617068897 -1.032126683785745
Ni 1.0577476498224352 3.6476758005478698 12.792331414607963 0.30812537372387583 -0.9944931897036873 -1.2864553234041394
Ni 3.1008710735637592 8.422833037789657 8.0308715317842 1.3141278496187432 0.21668846066811717 -0.1274606394485353
Ni 5.47719504614342 7.501590738872131 3.6608986590887937 0.27871632443413935 1.718065382647938 -0.13106892562508393
Ni 3.040312074145091 8.111817647227799 3.552379561215856 0.5631435832101269 0.526631347216706 0.5209826335713608
Ni 3.2613983409790777 4.659729587442898 9.260957524763466 0.31701419157307337 -0.8145270241572683 0.24467800390250763
Ni 7.233721159373946 6.212384540424109 11.337128190768583 0.03672229512169804 -0.7285711888207388 -0.5178975668881339
Ni 0.7375592725511316 -0.05402950397138611 0.16079737892030807 -0.8391903312319031 -0.4366406796891706 0.16418242034960112
Ni 4.60583333848064 0.26538635439564723 1.5186155011224216 -0.2540687010887882 -1.0247776996198414 0.7779196573468796
Ni 5.943074366232646 5.427530544092664 0.21523745237927835 0.18529940483387444 0.49948024072321073 1.4162374118969996
Ni 7.779976659631244 8.841397825921538 11.320326354786546 0.7274306474583924 0.6739673854329296 0.6856054838924902
Ni 0.1588129597303178 4.942446295998678 5.999611405342018 0.10175012205630865 -0.4832547800032838 -0.2491180419517323
Ni 8.214135885317859 8.908250423406463 2.138408858613138 -0.49573105809342366 0.20461147489892506 1.6468440253081058
P 8.361085547749033 1.6495979721219776 3.6535588291265433 0.9355491070693114 -0.749729825176225 -0.1510695371167269
P 1.7569402842048443 3.2203053773533266 1.6873712653514066 -0.5328115078854888 -0.5713397458676741 -0.467973171253865
P 4.766000457222638 1.1617495829602638 8.189571945054105 0.7497287967349605 -0.7835845689421409 0.4535891346180511
P 8.532318234478774 1.6039671352124016 12.436688201191725 -0.1002956489979692 0.7104978762587958 0.23796613909997083
P 6.189055910109841 7.636871584287755 1.5258499875977265 -0.07687238497802244 0.20436439188512548 -0.0037018743316194307
P 1.865309020006671 3.253033888041233 5.963398456239747 -0.7704894263210795 -0.8094802057619801 0.7713800564561489
P 7.154416421509 4.0824202678286285 6.026493802690267 -1.8497912251307305 -1.2152187965556556 -0.33456325620043026
P 2.462345483202014 8.461359942118007 10.316688342015311 -0.27366873470790287 0.8871876850467882 -0.27603106429249236
