# total energy = -381170.4870951528 ev
CRYSTAL
PRIMVEC
9.22102806593399 0.00000000000000 0.00000000000000

0.00000000000000 9.22102806593399 0.00000000000000

0.00000000000000 0.00000000000000 13.49590665029136

PRIMCOORD
 96 1
Ni 6.604164955634137 1.9710408863520952 7.491523865037536 -0.4461411629804381 1.495394993364773 -0.859996469343977
Ni 9.261785160907449 4.7111524100474576 9.703085129277959 -0.21187818376366735 -0.5137136107137733 0.05328585590733404
Ni 3.5030225141902136 1.8146338057490483 10.167060528134908 -1.091812786792468 0.2515389926883991 2.009962210328093
Ni 6.285762851329031 5.314816243248675 6.493056176143133 0.7769364674980039 -0.7180453495887504 1.0416945299798381
Ni 3.914852076381776 3.6938332510678724 4.483637370355248 -0.983019384736133 1.3886579596168342 -0.4556737850612217
Ni 1.9660062049460545 5.249042648982578 5.444100591456616 -1.8952123335780071 -0.13362743038087954 -1.5262356328947135
Ni 6.2205701818405545 3.5468223982171256 4.541021673150253 1.1129480261091864 -0.26910374104503976 0.5676558692581837
Ni 7.098458173163103 8.900496054368833 13.119573826276142 -0.016300794042552573 -1.89027504417739 -0.2322433776835807
Ni 4.4539594910414335 3.896363914808311 1.1590463626624545 -0.9457347893530617 0.0904382965879152 1.7462796402986247
Ni 2.150039486084812 3.9516993051336784 0.5034579974730388 -0.7177869537210413 0.07068579655133632 1.1841452150793026
Ni 8.869946787888589 3.8133654398343677 3.7984771676765043 0.46582090079755256 1.3654457831664288 1.7056595527844174
Ni 8.375828769895731 1.434238728746485 12.061507865712025 -0.7972150152413818 1.1532395266393816 -0.29657057900674083
Ni 6.343643245442068 0.7136670114091002 5.045984542428174 -0.7409901313103819 -0.6929195010554002 0.1681959123843684
Ni 0.05108080790641654 5.540417919586026 2.1868092581996987 -0.6036171178441411 1.6402272913225364 -0.056494335542302695
Ni 1.3894706367568734 1.7198785197994606 13.477174521528278 0.125136619301049 -0.38997464309119934 -1.4670048722578541
Ni 4.855138765643294 0.444062588424082 7.191280731598576 -0.8705966134573265 -1.4352874865499152 -0.028818724003905203
Ni 6.139987616259254 3.613850052320624 13.27823175986676 0.21144418155004227 -1.005590328058113 -1.6805254767209508
Ni 8.328091506820506 1.5613229396220414 0.9641110598636933 0.20763432088564887 -0.024287411792454947 -0.43040241208894264
Ni 0.9003061551217536 2.547659443795222 10.314125785052129 -0.23979650744049025 -0.05581119343234905 1.5664661982799861
Ni 4.5730490704535525 4.238528608826543 10.91422108033368 2.7995495338208882 -1.1108780309540351 0.6075370217238375
Ni 8.24376520378343 5.796218463331405 5.1666924122922335 -0.23892901723387236 -0.271341629236623 -0.8718158305764082
Ni 1.6343165989814163 1.9689016078059385 8.277849812481763 -0.8224833028898673 0.5242003691777102 0.5906870400460343
Ni 0.06784463720345336 5.928669312628785 7.114798757265016 0.11808074089553211 -0.4215344201753514 1.4648124925922257
Ni 7.872545049855979 1.9533641752616553 3.318899789077759 -0.21194631799744143 -4.182093667230501 0.11109608204758285
P 3.739597214104833 6.210832776044256 10.164105188591618 -0.7061208302370227 -0.4633014768098086 -0.034231153268728144
Ni 6.72116136164118 3.275558190153193 2.151409730877738 -0.77848015783604 2.540653072326154 -1.8901467461296415
P 1.8266395844865302 3.87527542327788 11.944728153868063 -0.2271515649829701 -0.5304579200516477 -1.5383663547199762
Ni 8.489994320240402 6.923719688466267 9.889638517428201 0.21748190310368995 0.38514739690588506 -0.4671187936733697
P 9.0057172073438 3.4691444565239253 1.6340307471067144 0.20561909022783298 0.35751626545217785 -0.3997605188333696
P 1.6222739361310696 7.042624847314062 2.5431282305297853 0.35739105272822325 0.16960744801991434 -1.0674564694352906
P 6.998428459073853 5.295525852220402 9.055740363313818 1.778137665349486 -0.41665909436092113 -2.428301520604915
Ni 6.1152752606398595 6.1575997801521805 10.652211096187518 -0.3410807456039739 1.0586345002682866 1.0024366129204803
Ni 4.7448091630365585 8.06489569844574 10.148354750295539 -0.9240310791273828 0.3548047800582857 0.5769306096918903
Ni 1.9069178561366968 4.4653566819166475 2.8655045979960696 1.645201090388044 -0.8792689444203438 0.8680363089293179
Ni 6.091309808305977 1.279399222940191 0.6780332699704483 -1.5307851999386088 0.8473749239252246 0.9276619910117507
Ni 1.244469968057256 1.882030300981195 2.41382359605977 -0.314416091828594 3.609324130894836 -0.747666514889293
Ni 4.25478528157169 8.436457030417193 0.7388413405421256 -0.4672522339274405 -0.17713435252457882 -0.0031971667810590096
Ni 6.175248828157971 3.3483582079200276 9.247003852676892 -0.7638734636664587 0.5242613043226326 0.7933349634606853
Ni 3.710726174759936 1.3354722955228537 0.9021734133355324 -1.035322050794591 0.9209454982235237 2.102169168780657
Ni 5.838404667420482 6.7816052015983175 1.2835671276939096 0.31764256918569167 0.7435033846505389 -0.3928339669168654
Ni 7.0312737615799294 8.801572863665527 10.772514162912886 0.8281032201798061 -1.0607662018993087 -0.07615221898254626
Ni 2.720627491074549 4.188135689625054 9.791037140609639 -2.053963298499392 -0.8412289589284867 -0.3104707340276008
Ni 9.018479110395008 3.7649273786147117 12.901668942190845 1.2923372361062129 -1.5197888488281053 1.0627598352905696
Ni 5.570976407094486 0.9668340294959347 9.781590197202151 0.4319291331461142 1.245147722904604 -1.5839664119472785
Ni 0.6844142214960531 8.218158408427065 8.390675547426621 1.0278203431009074 -0.686282969575489 -0.7278533368181078
Ni 3.284179851535332 6.4928579240364845 4.006827222324182 0.522116747175804 -0.09483334033181733 -0.7367128440912667
Ni 0.7339505071762574 0.7144922934344494 4.15734667641119 -0.7799785967584374 -3.4846963329094054 0.630833787468249
Ni 1.3262420462784457 6.1692643808456635 11.378952603504358 -0.8145180252962037 -2.541668400964545 -2.5275944393699823
Ni 7.222748412489152 7.7759178951785035 4.1242145999275905 1.1606990682412204 -0.4498821180801091 0.20735998417833962
Ni 4.04249876997852 1.3939981616110235 5.170943306299899 -0.7668569717748148 0.3976606988815474 -0.49223281513217815
Ni 5.621885703876082 7.485141991409109 5.846251762432463 -0.13927408714369563 0.917175232547814 0.37784109305245894
Ni 0.7267931450748494 9.276077754642545 1.529220851990191 0.2951107066317627 -3.9582107456964732 0.08852411028433786
Ni 4.958091545677076 8.374242753042546 3.3457698652997423 0.8143570742383072 -0.5985389319902853 0.1328393872619454
Ni 7.8059231209939925 2.0356434100347354 9.841904020661442 1.1113505997150794 -2.1975300994811704 1.0238078795074044
Ni 8.656572194965909 8.214682080789562 6.267876822898084 -0.41174931576412965 0.0560248521050519 -0.4583665014020364
Ni 1.7439546244719377 0.5805992753240568 6.470477566452965 -0.4549536190657455 -0.12815149486797284 0.015888646205798444
P 6.245992556632595 2.4071309737804576 11.477607462286572 -0.3536583251586683 -0.30290577719614936 -0.47114308434141433
Ni 8.481510974281507 3.2367284403348084 8.072967786546196 1.0269068301477025 1.9569949141024425 -1.6759483988732296
P 4.979346015715398 5.82492352416841 2.9103787318101673 -0.4991416264368694 -0.9099141801100266 0.3946885036271009
Ni 2.943601174370285 0.008444617640388523 8.832477139732093 -0.42352779645629635 1.1450047974344153 -0.6282246319801761
P 7.007575719064316 9.064943871576398 2.486742565090594 -0.5352327157324718 1.1748074826181445 -1.0252536108149957
P 1.8391525197759027 7.173222269939986 6.596259768144396 0.17135656950053715 0.3926884424779366 1.2039532509441653
P 2.7518037874734937 0.11249470003189768 12.530599091023317 -0.08957363459477477 0.39139337781559685 0.4395676235279785
Ni 5.048383853970027 7.16798472591319 12.489908537710905 0.054394515590480516 -0.22683840461792545 0.01743285076446675
Ni 8.336187569594323 1.6049107399999805 5.46411483319986 1.299723501267955 1.266866088418302 2.2779791460668575
Ni 7.567707078056891 4.411810171065221 11.418265535201268 -1.2813336859068578 0.10451097263089744 -1.223151678249487
Ni 0.3097915081568256 5.992626364336291 13.342431324616353 -0.6443207662110902 0.7116659284249679 0.6124532280785324
Ni 5.271016359221764 1.6109136293687212 2.962013723512377 -0.2915844386460591 -0.2084269919902733 0.3973866192845543
Ni 3.7659877968595743 2.4983914900361084 12.549101084139107 -0.02605941609121318 1.2500850123052214 -1.234357060047003
Ni 4.961816841076417 0.38249839353867693 12.007281765081066 -0.41981640904298023 0.4898679144444273 0.5895781232525718
Ni 2.75161936690917 8.975942507233714 2.974510983053782 -0.364208846981005 0.16327970602967362 -0.1010186432069228
Ni 8.88442380218801 0.9550403344074253 7.806409991283807 -1.0952110138407394 -0.318405158383329 0.15407412827100564
Ni 1.6129145924916348 2.5471891713561963 4.865990071648109 0.8593187265506621 1.5635060872103974 0.743605714556358
Ni 0.2545759911982686 8.75885183993991 12.781433188971455 0.5006089550110152 -0.8934660618563321 -0.5003042792864029
Ni 3.997998087807178 7.444532583145 7.999860708539762 -0.7984535156341732 -1.453268239398052 -1.0109996719991428
Ni 7.43927659706177 5.3093389524882575 0.5166680424955552 -0.07723285364123472 0.11815478866657715 0.03548225206700986
Ni 0.9300697899979776 7.356019933297774 4.568566728637661 -0.3769998280980862 0.48184812946374433 -0.3455673206204178
Ni 3.9728984490027037 5.664975568730346 6.321185431221533 0.4067037829204222 0.3638596911717024 -0.5413048900684807
Ni 2.2790693339139847 4.064841321346353 7.333230162061456 -0.048547569891400265 -0.1049010089804645 0.761047049961257
Ni 3.3860814343524686 6.166451967239725 1.3527349824463866 -0.4465921344749277 -0.001660932642190688 0.49702560853513106
Ni 2.1460836649800656 7.249978108811568 13.058220792936886 1.9591422994627485 2.0937017547395937 1.8725318612613557
Ni 1.6597666368581057 6.092711404594839 8.87683858437737 1.6244831411144023 1.0355372521291906 -0.16252045926614592
Ni 0.23027212712885173 0.10642173084871372 10.364397908783985 -0.9373943878081662 1.261607411122524 -0.39075831533475924
Ni 3.191582286188333 8.401804406380744 5.388281097149898 1.1403115057238038 -0.626025053225696 0.35061079658159616
Ni 3.4247728687476093 5.316300828791482 12.52178563225428 0.06434751303813434 0.36208871531420866 0.3183439661280904
Ni 6.309101273744213 7.474749892609461 8.408071017156468 1.0778987478145372 -0.39824099686504966 -0.21740348445727076
Ni 3.7564440326558155 2.3640687720108415 8.046772689589638 2.5038613574191007 0.3142196595470717 -1.3737021096379503
Ni 7.0712469188971205 5.572792949653076 3.1335064062771134 -0.22194456686073388 -0.5183809342824556 -0.18751595286921896
P 4.864857729383161 3.45286012069413 6.450705837751808 0.34474045384374824 0.23179626284383303 -0.1095163962652888
Ni 8.181016106772246 7.584968842877602 1.272594104116641 0.07171192382300552 0.11075926753345441 0.6084019408272942
P 7.998614947627754 6.936223402727423 11.96745522211251 -0.20199794853547795 0.06731482319657439 1.2540627660060466
Ni 2.0803930599679146 8.142942481267589 10.662643767511316 1.4178026995015904 0.262169990039684 0.4461427056423349
P 3.1684559474221237 2.2377130223643644 2.9703274025520954 1.6912132954521004 0.37306784003353166 0.5975775965182805
P 0.40287963220492584 3.875035676544259 6.165632217831305 -1.2985706186104344 -0.35627365129432836 -0.05634701133116102
P 6.962540217256434 9.193180710978979 7.247869259658525 0.31295827633614487 -1.499959987027636 -1.0573291511933018
Ni 4.647960703681894 4.777949538445552 8.408436169873829 -0.5756620273921118 1.1671453380871963 -0.09927260705009354
