# total energy = -340868.45662400295 ev
CRYSTAL
PRIMVEC
9.33605969557487 0.00000000000000 0.00000000000000

0.00000000000000 9.33605969557487 0.00000000000000

0.00000000000000 0.00000000000000 13.66426706785370

PRIMCOORD
 96 1
Ni 9.26277163074915 8.778640918977615 4.3727704264597005 -0.587421224810569 -0.3100894394287821 -0.09531285107139714
Ni 1.3108481342121614 0.9874843704641116 3.019065110197492 0.6718536815240365 -0.18156642015400343 0.7921314300708874
Ni 8.820905261236751 4.054286621116521 9.256407238852075 1.0533511403821603 1.2906886447591965 0.5276801001961944
Ni 7.6645222347509865 4.302196350374106 1.9459690722899798 -0.653973458809506 -0.06914030644108737 -0.3673281093362771
Ni 9.219909780669253 1.9413495899507218 8.01794624351913 -0.14179968177902674 -0.4959064073290233 1.1316669426749284
Ni 2.8327565700484176 6.560505167119097 11.754959012629513 0.40996471305988097 -1.8997379893625024 -1.8242226326330067
Ni 1.6913485833204738 0.27727630504201417 12.202450358110793 0.5497923587142015 0.2191325513332355 0.25140838064780574
Ni 0.07221442177477666 8.424421477923083 13.462596219307512 -1.4743016630295833 -0.21818792803177905 0.19803125057824603
Ni 5.021334356898669 1.1501932189050692 13.50498286394871 1.7057760237576236 -1.0628179422220148 -0.5519885950345719
Ni 9.18356450025953 2.356104042096094 2.0272712145761425 -2.0615007445270175 0.3531356198859789 0.6509408426307692
Ni 5.499051195656723 5.760759621150006 8.800498501945825 -1.4755591895857685 -0.4449790243515369 0.451601671874377
Ni 6.463690228036429 8.887069916326324 6.235401161843081 0.030137699925644867 -0.4697950549539522 0.1555553408022224
Ni 7.84838659447076 1.6367232980193467 6.201950993546139 -0.19768055210704663 -0.7994405621377909 -0.01365590022053777
Ni 3.0839525923201876 0.568563234874902 1.1479600334249753 -0.7864132966401877 -0.4088835641805603 0.33844176531923
Ni 1.6962873589014509 0.48187511974816194 7.853619455932267 0.08516804932791137 1.2662757631324708 2.401019030739878
Ni 0.3162384829854758 5.796003246515201 1.141038278763848 0.6028668699416778 0.19353207715631188 0.666596289779839
Ni 2.1786068750913037 7.48497113461233 0.004612947097468281 0.4953304802208953 -0.2636699716239781 1.063983680395342
Ni 3.034471475913424 8.623102164385788 10.161035946696046 -0.5988875735789557 -1.0891288122024019 0.7339458228690908
Ni 4.4741572339771585 0.7448504485426515 8.600466887644618 0.7279446109803334 0.18464737307217233 -0.28290156616008055
Ni 8.706473177501335 8.776829723395934 8.286585759733239 -0.02006720306352028 -0.7608773571526121 -0.8383943176931691
Ni 4.58849595711558 8.262515530616273 4.594951842397708 -0.22926475467123095 0.03798239278104427 -0.4912856207275604
Ni 1.2052572990120676 8.193438024900491 1.906766024006274 1.4157771844311293 -0.7629085286500281 1.6673552578875799
Ni 6.871162553616277 7.824747691311907 3.7151505181123228 0.2805338372588524 0.46968604017991367 0.6611314100105259
Ni 7.900808569682831 5.382779908160528 13.285821663323453 -1.644531575124845 1.1254045067049845 -0.986062799548147
P 2.556175801454008 4.5683860845230955 5.15906737843182 -1.3218326744621687 2.0099856073668607 -0.39703206415861303
P 7.30274058533995 0.9194543706466012 0.7454460891514726 -1.3093718229909965 0.2417163501710224 -0.4547949820006941
P 1.7713306067651426 5.050995018563629 13.131784147131288 0.2920114988811487 0.044524050554303966 0.8358633237411993
P 6.951919470015996 0.8288955251684944 8.208918145488049 -0.31907955874253435 0.6256620134593225 -0.2532382347676929
P 4.599708564814547 5.310080011281384 10.810102157146844 0.45440674542334 -0.20408208475801629 0.14458778604712516
P 3.545994186842967 7.5250134946630105 2.070122794990369 -0.2068964142783598 -0.016953082914570802 -0.33687107839800046
P 4.457576391951043 7.9137110041873875 7.5353102349054675 0.27386028189341866 0.13500785566817394 0.6188758437754245
P 5.982108260562828 5.161496621165602 0.8702664065143983 -0.6669575297739998 0.48902150728373206 -0.3279773754527964
Ni 3.5257162651758933 4.701583648254283 7.284666907367901 -0.2943799991133253 0.6518924079107613 -0.9078092179518816
Ni 5.199923842888288 7.9686910597570915 9.73013291208864 -0.8019178200336898 1.276925272426517 -2.4675440110453053
Ni 4.749234896959966 6.988666200992792 0.08979142137081701 -0.5406803691106042 0.15092067024368847 2.416941101286773
Ni 7.258123556036568 5.07926460733338 10.839917797402814 -0.5877654955238651 0.7588785815550285 0.06218804349297032
Ni 8.253431544528768 3.824572872213046 7.001570502709288 -2.1086941143833684 1.3071084808781166 1.253690984488925
Ni 8.396291930048823 8.924983654765542 2.0570187015963066 -0.46668967655575105 2.189619329274526 0.06548702595921625
Ni 4.527176717009991 3.5858031454011634 9.06768999530056 -0.26329304790053365 -0.8720143197404595 0.5993429159488195
Ni 3.122557199177163 1.5088192801377127 10.534029270200081 -0.357144741045372 1.7466809895021014 0.023321962555392095
Ni 5.0125211165424455 2.8221227980508132 11.565804841484066 0.14859947830967957 2.0411118964580206 -0.003861796948251414
Ni 2.5958167109376156 5.67248717669228 9.427223521535984 0.2631853186780758 -0.1531225629910137 0.0024106663240216547
Ni 3.3951981505784303 0.11757553503619972 6.340697911162644 1.0827532476933612 0.1658559513972821 -0.05945496083252341
Ni 5.027916278986739 4.073630936813656 2.8156454398313766 0.47037123917239637 0.8786824757892544 -0.8868804382190146
Ni 2.3359288170857138 7.6550648062755045 8.15938474714697 0.36116646061025537 -1.249948486727357 0.03368710783980004
Ni 7.580768443187765 6.315134846099746 8.405149983491604 2.7126192503862314 -0.5816496124341144 -2.047742257290344
Ni 4.714187328848459 4.147367136319433 5.2516148046258975 1.9324051405782205 0.708878595487818 0.27978307513575684
Ni 0.6958473383924967 7.59842293207931 10.410408636508524 -0.14814722126360935 -0.04367918605550542 -0.3704823386945426
Ni 1.372559488825125 1.2687798492067128 5.793116536856149 -2.4459886534720323 -0.8415716869798862 -1.031269220881456
Ni 7.158125020596408 7.068480175362872 1.3152855633872809 -0.5034662219541522 -0.7817284895700085 -0.6091118224101252
Ni 0.8775363962023129 2.794320012266032 10.816961360207985 -1.1041029170137306 -1.4846153862507656 0.08691537103632127
Ni 3.9660982011960892 5.973967216504961 3.8080125695182687 -0.022621851164573943 0.5151292601143773 -0.35675059093074685
Ni 1.470606787788112 6.170061814430934 3.7712424983922244 -0.8233307384918271 0.09491972939803651 -0.2487105221006684
Ni 9.229395217323832 3.631493821569975 0.04518559533907455 1.0966408043087308 -0.31499099049545753 -1.0663385537807635
Ni 0.2806195480203655 5.65336692642793 6.093593883857116 0.9645915170482484 1.3307999109577855 0.8474415154971018
Ni 5.675213306124501 1.930818514609811 2.3101902341004674 0.7199446234939924 -0.2698863848473352 -0.8565421922467894
P 2.348019014396423 8.884325114774702 4.461192247872616 -0.6198916866344486 -0.194652049693368 0.4659759383181782
P 8.311707229172356 7.198540823035065 11.995108609064966 0.01149077424841892 -0.5618660020492839 0.09657243451011109
P 8.776941756112326 6.960527317058832 2.833039452657309 0.8020862272907541 -0.7304609496442839 0.6821576345532058
P 1.0257715512913073 1.775923948137242 0.35356404966363447 1.4798701582562965 -1.0545544166616418 -0.49798103046986497
P 0.6906499539578467 5.978009730354796 8.44280884750103 -0.644825987982283 -0.3155347788140695 0.08881078828682125
P 3.385432632132869 2.8424474000163835 1.8314492295933902 0.20048382588379668 -0.29448155768819606 0.20161254017160116
P 3.1734480605985342 2.466680333175662 7.7573544107658945 0.26746029190434584 -1.0922835557812995 -0.7442379488237183
P 8.798984193062584 1.8468966739719999 4.306211789650813 1.1809387923268628 -0.04565713571748266 -1.3934031876113036
Ni 0.4017642586796418 3.4619136331902665 5.5562597686766715 2.1811287753050115 -1.486965631650497 -2.363691755044329
Ni 8.582387608036752 4.84520025460999 3.9534963878138534 -0.31720908119269886 0.8311317225934848 0.14963640421462615
Ni 7.190399778977198 9.120060622184283 12.436983381031094 -1.658581368349692 -1.064853998815437 -0.37745954134332416
Ni 5.5702386508645665 7.262166069886404 11.726510171513533 1.0588599860155314 -1.286082770556069 0.47680362506130136
Ni 3.0637120148919115 2.5607317985873097 5.25265390807044 0.6657743080991759 -0.5073732703180424 1.0684707696324178
Ni 6.767625651550049 3.0559070689832217 4.500025588192226 0.6043719937322946 -0.6066885576806132 -0.5464190713665945
Ni 5.47601913637833 2.050656176911173 6.587351940390661 -0.6456124884393204 0.2809123036441936 0.10618630345079132
Ni 1.6858963244560303 3.725638647578617 3.1778033324482995 0.3128317780606096 -0.4965111307925578 0.01730506693735084
Ni 3.091356087661804 2.224867050901778 13.075241235167907 -1.4010182809544 1.5339376295246614 0.1339634735640596
Ni 3.710504894805907 1.1151269786741629 3.538320879376039 0.5692468678943874 -0.11227878950177436 -0.35781245653635796
Ni 7.37672885845761 7.6558863795290515 10.134827759907921 1.245209943601107 0.9920105324911495 0.924539643332685
Ni 0.3971251706150152 5.363846379090167 11.511119805400861 0.2731696835842973 -0.3339222801823217 -0.42190491614089276
Ni 5.229481807896555 6.2909824596574255 6.385831224567401 0.9988319262883572 0.23434756851077707 -0.8622587830155924
Ni 1.386563578374209 3.7405203267394436 7.828572674970745 -0.017532352456808516 0.44980241388210923 0.2050457342228662
Ni 8.754376499818902 1.3859940787325462 12.550178436856338 0.7800557298532759 0.814896234571229 0.15759088317501246
Ni 5.385991512697118 8.912874785335434 1.862657809956509 -0.2156263379521899 -0.4897897529083242 0.10542988490074101
Ni 2.8388716891515178 3.8855653502291565 10.886239591207302 0.3237934192784359 0.7466000212979916 1.3658065089399576
Ni 1.0639933797006074 8.084822306357795 6.302165191965354 -0.9584846328195622 0.6154202811266561 -0.2180362329452632
Ni 6.785877648262356 3.0941382334522216 9.545419904542193 -0.23456868338264764 -1.3307184069875726 -0.10619710208406873
Ni 4.001892654083548 4.754295041317036 13.432166266323321 0.7087875784359083 -1.3710428176382323 -1.8345031886234082
Ni 2.8216559950658437 6.754237741941125 5.789044147615276 0.6410032718020832 -0.2773176443143998 0.31408081997636234
Ni 2.8087722326806865 5.384647120100406 1.5708172517834476 -0.48058546070123687 0.5200436666968592 0.9397466900904268
Ni 8.151164346581655 0.9574129221723785 10.101924684709363 0.2806014572719942 0.1765082889048057 0.6276178516341127
Ni 6.3535994120612305 3.279020223679229 13.484295089260831 0.5873320075308723 -0.4258091362913054 0.9450017678417789
P 5.201006825813418 0.892885811954079 11.025396361844612 0.6335103058591476 -1.9518424233672256 -0.5111245098303585
P 7.709774116113927 3.1105416903440486 11.76278823229342 0.08281780392817994 0.6670331202069416 -1.1109747044328997
P 8.309699976336987 7.360185360670291 6.299404519112245 -0.5455657222273637 1.3148207619207097 0.33650212509435595
P 5.879719693839625 0.7590907404021301 4.202937230862139 -0.16960641957864983 -0.3054581113043578 0.44799672813193814
P 1.1008614794534959 0.4990002540547519 10.026989735138184 -0.9084615068238999 0.5847503628466253 -0.2645348907274347
P 6.183132298010079 4.253788880832772 7.1848625619694895 -1.30200047022759 0.08622400139625151 0.16846253578219372
P 6.211541927675322 5.800624596066399 3.923202741301275 -0.6922186183336336 -1.4910387732786063 0.5926932718427856
P 3.712185385551797 8.410585437448589 12.367131915966233 0.2848404350540062 1.5263096806657586 0.1640687775898723
