# total energy = -340898.28373969434 ev
CRYSTAL
PRIMVEC
9.00727744170545 0.00000000000000 0.00000000000000
0.00000000000000 9.00727744170545 0.00000000000000
0.00000000000000 0.00000000000000 13.18306100549564
PRIMCOORD
 96 1
Ni 6.452119780782338 1.917433127868044 11.363416003175955 0.26980796620091596 0.7641089767160324 -0.37109040459218673
Ni 4.525724412162735 0.34504807039041824 6.020137074374091 0.16730708202151184 -0.23270874735577343 -0.1381019212124654
Ni 2.6232523716196545 1.536281188528409 4.7332727941422625 1.0756816855585603 -0.5123403845153305 0.5830079262342217
Ni 3.4286290495692273 4.250200811811565 4.822943840954386 -1.0550799501478088 0.09290604140211742 0.37073559235592923
Ni 4.914676653503224 4.500522050732726 2.6838866591244424 1.4229335929702527 0.9271701389769967 -0.6399108100688528
Ni 7.213793150062 6.00903380384701 2.427620617292702 -0.47379337748006795 0.4102812158590353 0.4288687490532356
Ni 4.845933114391775 4.71709302222063 11.185444817131996 1.0231105963300637 -0.9106963096916896 0.021418317774776017
Ni 5.601193302349719 7.863722239177009 12.324105160803033 -0.05552322987828502 0.4219671368373958 0.2870608397440927
Ni 1.7854855250845503 6.533248325957499 0.3410605488017601 0.6649001330243388 -0.07622163876790097 0.6948920514007386
Ni 2.9193395856751527 1.6240390896765813 0.44622321156222994 -0.25417514475966546 -0.3502976362165516 0.038418451877198355
Ni 0.5216573561312245 0.11747651133479667 4.9000119055960765 -0.1267445872181172 -0.08556605609727844 -0.4722170341318835
Ni 8.661370673342827 2.306943820391042 1.343670474953288 0.14464126499287994 0.6765166342173445 0.6356921440018148
Ni 6.7623123908347615 0.6329431658895932 4.8030107366496635 0.5538726994311622 0.7418139127632579 -0.04403579806397577
Ni 0.7637891786792016 7.547909088190946 2.6081102380242327 0.6853296045232843 -1.2357714238960265 -0.10142127796198017
Ni 7.6706782755715865 3.801251097459892 3.717174470477711 -0.16189748097016632 -0.15913200240988723 -0.2804533617299041
Ni 7.63291076253512 3.937972557126125 12.578498589717942 0.0991589642903647 -0.7500504417404372 -0.42856921553494576
Ni 7.703825055436646 8.653074971099423 7.055639775175408 0.992397226406607 1.0117182953327222 -0.04002796245616332
Ni 6.951501239825443 0.774931180497973 0.37251486129273137 -1.347874349941569 -0.3987706441162745 -0.46895404710989563
Ni 1.7600129453404232 6.506289545485726 9.17037460655165 0.8700692801989467 -0.27965734819117 0.7088863087973016
Ni 0.0108231442081129 4.909758680186289 1.3134906921772367 0.36685451213396825 -0.8095804787852703 0.1743123096947514
Ni 6.345716815960069 1.922333086630705 6.956687630001069 0.5003076217205126 0.38083771378693765 0.08114735820429252
Ni 3.1835770677733555 4.247120323030629 0.356871923088479 0.3928457939914073 -0.1234422623177616 0.43481211112086404
Ni 6.134063817789099 5.7355188262974455 4.653739437748108 -0.8915775865843678 -0.7034687373261562 0.5458575424361696
Ni 5.29069444487463 3.1293982957928304 9.109362914134811 0.5914259750945879 -0.8944160844744273 0.6011871682464098
P 0.2140570404389 5.49914085238474 12.370087310588664 0.5947879495882853 0.5531875004386796 0.2669820667163466
P 3.8786326153459587 6.064608703783808 12.615081645810859 -0.3441105335692332 0.979464577505339 0.23305430362065027
P 2.5237489810845153 8.438098287664811 1.4809062501440577 0.3607985357478754 -0.39560458768346707 -0.44338082662648154
P 6.303508715294941 7.647232333183339 5.763040561590296 -0.5653817285120263 0.26091709146918934 -0.3922302718945955
P 4.8507520076602 0.9928811661155901 12.493968896695755 -0.49951392217462365 0.17372918349777178 0.7243496945402235
P 4.00114059168962 6.153762732888254 8.18411018622108 -0.5441153629340822 -0.4635321047633759 0.4003516154501492
P 4.744204926403736 1.0965639332424106 3.789919042093525 -0.16447809721314896 -0.8755912384584404 0.5877927492173748
P 0.1978385372255777 5.54215960799222 3.5621943593265697 0.2487974253875199 0.1217409633559387 -0.05223658870721327
Ni 1.4732662776762468 0.9292807822495072 2.6340286779866537 -0.3523164664187932 0.9403498708920643 -0.21026713052280563
Ni 1.7604723164744227 6.685813586108145 4.868135151807368 0.24256147178013712 -0.5354324904481037 -0.5132053036187871
Ni 5.992370341143108 5.561822493982824 9.109178264953497 -0.2772873052970966 0.7814258707279251 0.3876801906300678
Ni 8.644536072373317 2.3215986602933385 10.225691515599477 0.23228991465079993 0.34806103357654894 0.15573788912667375
Ni 2.261565158173605 5.09057976871647 7.011700475844503 0.303516928417587 0.26282973511086993 -0.22088475813765182
Ni 0.48782061883745215 8.936353837065761 9.133857303581832 0.05151359449825967 0.5557755728808299 0.4256289019596992
Ni 1.515024014484512 1.0171107416147775 11.371523453327187 0.33829187000492705 0.3555915376256392 -0.43456862765149024
Ni 4.190266389740341 6.762402463606133 1.783087787910616 -0.2756528550174672 0.17203585495574888 -0.8185847391664095
Ni 5.676647262928417 7.738349948703704 7.954394895206794 -0.8518172759672943 0.4699657762038616 0.2320747133162003
Ni 5.317229883320952 3.0051609222388183 4.749104885166398 0.7541112420733723 -0.7922921240184678 0.11577009048448449
Ni 0.7673065204012957 7.478057653991614 7.084602674810218 0.10754615991279542 0.060145302031328673 -0.6035597822436445
Ni 5.031410965201912 4.591045185962033 6.976594613202092 0.5379202898669639 0.07526904504664457 -0.5979349798576993
Ni 8.170059734614693 7.035007706164835 9.395474568760811 -0.3091607569669257 0.05606881796910989 -1.4204280529395794
Ni 4.56029434181548 0.25561121278386345 10.373935084179672 0.08049918309733234 0.303604860145703 -0.40668475675702864
Ni 8.170897411388456 7.244850241631219 4.550357513677672 -0.19858815152298057 -0.185672471902577 0.2611160948538729
Ni 7.30819842173746 6.054700698932839 6.906473861416358 0.3827043346820312 -0.3693744503423445 0.29420233588488043
Ni 2.192001956842666 5.167655039179871 2.534746866469091 0.2891233787000762 0.40262524197567434 0.6997002714226596
Ni 2.2773098786095076 5.116133413954833 11.361359641805521 -0.5165428526324523 0.1668388841358417 -0.08607410608194853
Ni 1.0506088052881895 3.1128068913060263 3.726626707105536 -0.183051232229646 0.7362086507613386 0.5201920193492654
Ni 3.7017026705390665 2.6614702485129826 2.678467881198676 -1.2974645300304495 -0.8574778166871813 -0.1960404454004624
Ni 1.128602818019589 3.181820648731593 8.244304017873857 -0.7311163238400957 0.6897506164091154 -0.5149199723170487
Ni 3.719392962836615 2.623702735476517 7.161974284691433 -0.837104652347468 0.3430856918491446 -0.9572098798721966
Ni 3.93285642371217 6.84347696511847 6.104192083891141 0.6751544637624953 0.029295149419691486 -1.0013613775784302
Ni 0.7415312961453571 7.493424068787753 11.43155875690235 1.2189324979618168 -1.2064176533242577 -0.12377342040493522
P 0.2666640425589761 5.582178940312996 7.939643677439129 -0.8971964754330418 -1.137168846329764 0.11676690718011504
P 8.453221505978245 1.6796770405533403 8.040572919945093 -0.1457041590397555 -0.3958030768475183 -0.36889442538213246
P 1.7953124644412841 3.1556094722622112 10.361318591093534 0.04178839679069577 -0.33654737650999456 0.5871929108498468
P 3.9547531144328114 6.0552141137296625 3.8959896383894286 -0.16354581520686673 1.369320949851119 -0.3368014015023296
P 6.974460789248279 4.024559512246455 10.386577698369509 -1.0636286110487683 -0.5238165034757302 0.18432778494922447
P 6.186053821425274 7.639323943856839 10.14924315162483 0.6852360163682134 0.3329398616643943 0.17755884165650712
P 2.3944945541650577 8.550211866192093 5.938349196512484 0.5244793338707097 -0.6994508744160147 -1.1196861161639686
P 6.863833411448644 4.042123702664082 1.4781374131520688 -0.5428676065699103 -0.3812956272599627 0.27900531642946785
Ni 5.27294110163712 3.021734312171348 0.1815281597854555 0.38195588655178087 -0.0347559154239466 0.4251887290984871
Ni 1.4125302079398077 0.9743712115985528 7.116624445760835 0.030980507541914386 1.0028757573404274 -0.22491110568822553
Ni 6.913598617631918 0.7366682672189587 9.207510709460795 -1.1712089666336087 -0.4881625017175463 0.10141485020407695
Ni 2.6791155044248445 1.4955953176994758 9.117655013467358 0.5162134943174915 -0.2145323335570628 1.0433361793483193
Ni 6.106294382374975 2.0556407882619223 2.358752777756758 1.7823617307331625 0.8393471685247416 0.635604469384015
Ni 4.026108763914062 6.8639685206057015 10.52911245470012 -0.09519226633313282 -0.1288752604078748 -1.2269841646216997
Ni 8.186912350138476 7.265819182806724 0.4123414378827713 0.15608524516376343 -0.4744297255124862 -0.6727026597878931
Ni 7.56783318521853 3.89242275664308 8.165535379308654 0.9515454824975677 -0.3842264277535125 -0.30789397443936006
Ni 3.1065558409727783 8.332280795856464 12.406143440969053 0.439280688415179 0.042310330732436806 0.23369965051413302
Ni 0.0005611533656503276 4.885610170181336 10.244556356835723 0.5673830752127712 -0.8395034915969477 -0.6072567714792574
Ni 8.695202006270316 2.20172981615089 5.853199802823258 -0.4687648139172249 0.9309123796282484 -0.3227554649322248
Ni 3.709232754225803 2.6326199398423884 11.51028866417586 -0.6102425935804587 -0.07271105451148123 -1.006159570298022
Ni 1.081026380180664 3.165508469836043 12.550906597663419 0.06844405170501115 0.6036880802913926 0.10804546814671714
Ni 3.164337523808201 8.292369550861334 8.071842583254751 0.5198210091630919 0.03208325368778991 -0.08197808163570397
Ni 5.788328492153109 7.9310246139465 3.4793652402278976 -0.7795186264028833 -0.31383296563161434 0.042691368220939385
Ni 3.1876393497622524 8.345548515079624 3.5686543784894016 0.5067857732456885 -0.4475367577763841 0.9791179927991975
Ni 3.233864696030591 4.28143804892353 9.157942762646826 0.3089008184373196 0.4637491058701884 0.07362585301626674
Ni 7.300569258002213 6.173434626155995 11.442619693226886 -0.5201043447314656 -0.2633408704193335 -0.0325005437308666
Ni 0.7951155878348241 9.045017628449477 0.3323370008943389 -0.3909151526275977 -0.3318396866216801 0.19205009329414666
Ni 4.640477122891229 0.32021951096160395 1.631905144800537 -0.245688447444893 -0.6614288866462866 -0.648335029576806
Ni 5.869691226533839 5.632223372087527 0.14087921879278514 0.09270061025953068 -0.09670253233007217 1.3549999052427566
Ni 7.966540307698654 8.766116299171841 11.272110135563421 -1.3501153234569458 0.9407049402386379 0.20313206213992113
Ni 0.18806834371480868 4.806057898505194 5.694620383728074 -0.654943278921943 -0.4768861574727786 0.0070209114025233926
Ni 7.897850812250028 8.810107840710144 2.324041433852959 0.0014701567876232746 0.5391816730778908 0.8937229150621446
P 8.377101006891392 1.5764266227291075 3.448899926766596 -0.13509090230028348 0.04019559838227916 1.260179420426746
P 1.8059500587403698 3.1535828349063317 1.6955784876114315 -0.3842557383295512 -0.26155678193571724 -1.1567580813156013
P 4.768488545565747 1.1151369386994086 8.266649270995932 0.17989057511347728 -0.8044403293452276 0.1264651083044854
P 8.616397338596565 1.533407867121628 12.453694658431996 -0.5683811774599824 0.3511715541810726 -1.116080143980265
P 6.278981899650225 7.758994627902268 1.2970488084909106 -0.4145201936410474 -0.7034949625784013 -0.0016197949916101136
P 1.8634705305388128 3.140738457708621 5.956304302757867 -0.7273005496384313 0.19593580150179804 0.4902312113211171
P 6.966750560018798 3.8455398791437228 5.903875644725109 0.04793719000091099 0.9105371584060061 0.17481984545878923
P 2.397980370417171 8.37691185407151 10.160448204383561 -0.39889971349497105 0.8156135723532275 0.6083165802023395
