# total energy = -381162.889051732 ev
CRYSTAL
PRIMVEC
9.35087867075260 0.00000000000000 0.00000000000000

0.00000000000000 9.35087867075260 0.00000000000000

0.00000000000000 0.00000000000000 13.68595613595262

PRIMCOORD
 96 1
Ni 5.734342252657851 4.9591824546036145 5.980010410087438 -1.9229326823114108 -1.2668537471231278 0.15010100255587053
Ni 4.546874156648255 7.752850998298604 0.5315011444740264 -0.8232417783224467 -0.5651457012418203 1.5983910720130408
Ni 3.2564902888087386 2.8388145864348466 10.00666525750724 0.3508267692471442 0.7079226593324518 0.5617089076461294
Ni 8.249036678892015 3.185021522309004 0.694395322961359 2.1644428300088983 0.3280887042196801 -0.8852025362959594
Ni 7.935539116983064 1.070526006012777 7.38925329807325 1.1046685597092136 -1.2538228820810986 -0.8384038307748658
Ni 7.844985206897569 2.389972405094106 3.0790938324247117 0.44808954495606057 -0.649506681287404 -1.414284659046003
Ni 4.330906260393135 1.0412671063166274 9.036508779033154 0.17982012688685806 -1.4025090065673136 1.1050241432764194
Ni 6.957755126689817 7.121573172000409 3.123039222329481 -0.2665678619970635 0.7442736871576601 0.2962674459440252
Ni 3.5211201582242166 7.534910066621341 4.950457149615926 -0.40822947553632916 1.2613544145714535 0.8633970103850938
Ni 7.281903339526833 6.705384259352209 11.344932170304913 -0.39868194105721017 -1.1564258947871633 1.4932008139269317
Ni 0.9327436124835811 0.5414504794937461 11.106960721197444 -0.7180957432107117 2.484641332847224 0.2281121291240265
Ni 6.339549828923171 2.5423543256592875 8.42779836357762 -0.18202690473018973 -0.1795139085003489 0.7650895954617468
Ni 3.0092717556777706 8.85097144758506 10.797657963508273 0.13820502244923294 -0.1867309950740784 -0.09976291642295078
Ni 8.332998219439068 7.48807151482268 6.328153912956505 0.5703588700116435 -0.04998147412444941 -0.3122843901975718
Ni 7.484125443978392 4.433906190132057 9.195949677987796 0.2278601610142205 0.44686775673381746 1.564866972113666
Ni 5.062584472129988 0.817033033221816 11.086514089661618 -0.5336509730676486 -0.23079738926567347 1.453927727358922
Ni 1.5906031818838038 7.613850185264645 6.333504485793238 0.5944279951457053 -0.8636736610852481 0.2197629858283828
Ni 4.529247750151853 1.5801676011676316 1.2361843042668663 -1.2810935448715937 -1.42619529444066 -0.16958302253988214
Ni 7.399266219068658 9.297868646139989 4.596141131665546 -1.0695017820000936 0.3055373012817254 1.0372604054678844
Ni 9.256434902274972 -0.0028323811818356287 0.4640747628699915 -0.7562450005869233 0.1963358651536941 -1.20841385781868
Ni 9.351065795507644 7.223750224406873 2.382560898574717 0.0340293216705672 0.2947324973567375 -2.004119635504387
Ni 0.6625163070316329 3.462985744861813 2.3832173302649284 0.43911125271685025 0.5497584201524726 0.8830551509356533
Ni 2.1598472783691975 0.3751955951736249 7.286444126261396 -0.39575088345334425 -0.36761273045623144 1.8362818777903858
Ni 7.907954024588164 7.296855394692747 9.317973970600422 -0.8606415591271436 -0.16488047485789023 -1.9015627012760672
P -0.11302033143735395 5.376605683250503 11.232872174118054 0.7800349039176695 -0.42479689297670714 -3.92881943701855
Ni 8.251898047798061 2.131140080520946 10.039839370147712 0.7992600706958687 -0.21526535506834538 -0.8169875698826188
P 2.7571720638247212 4.892398478371623 7.659660140397734 -0.7757684153318316 -0.10608731597908182 0.06408268941252189
Ni 3.018248599304585 6.177003503126377 13.005559407917263 0.3343372562325532 -0.037004859359123364 0.1451886528559177
P 0.6894141098363545 7.3025313781109515 -0.06666428498363343 0.8330194265345008 0.8237873664132717 0.5751596338343965
P 4.097470922580839 4.24709433390653 11.803959328810578 0.8484223913531324 0.27749325066031566 -1.004394250867483
P 7.28246439225351 1.3472465616881213 0.973776203649025 -0.10545636726330226 -1.3208510272751897 0.6071711537439866
Ni 5.458753153314636 2.0726690355225363 3.1135003908881127 -0.48633007649449794 1.1927355278514749 2.0913178278884503
Ni 2.664158872620631 5.547165712159984 10.42805512893173 0.34514565970196687 0.3982731356545657 -0.5073138778350167
Ni 1.1484188262329513 5.2764110171449605 0.7313490608038687 1.900514976737843 -0.5564386603861255 2.402725471908023
Ni 1.983947897677517 3.2284189507173866 4.523277214052143 0.3348211378475072 0.4451723713092655 0.11748090252800412
Ni 1.560138018825301 9.044151252258358 2.0874509046946916 -0.584300162683084 1.1756312640710205 -2.2102472899375227
Ni 5.474125998025556 4.673026862241337 3.2766638746842496 0.2069511787756952 0.7627061828312348 1.437342569306731
Ni 6.675498850777937 3.2229206339959626 4.810764371552398 -0.3805700619478478 0.1039990659914854 0.5116073630040479
Ni 4.058861144106757 6.5406965823152685 7.0085780879357555 -0.17653348571578628 1.077608213157312 1.8521311861178165
Ni 2.011476884799749 4.0643501099494035 12.235765144105805 -0.9919835359079562 1.3766300819180228 0.6316573118108089
Ni 5.075357772540643 2.8906558583797017 13.291267093186077 0.02878349989059559 0.39107430391328135 -2.1383759577185173
Ni 3.6651704457982603 9.125139213354029 2.8243431664381187 -0.04913609540501861 0.19735762154998912 -0.42289376241672333
Ni 8.236525203087142 5.175356070191849 2.6835011653727836 -0.26208334386314863 -1.428686950514262 -0.09060207585928913
Ni 4.499998201334481 9.174212625180616 7.157686265840783 0.7196713152279476 -1.5346842778826988 -1.2647287303603252
Ni 4.770378861198387 4.2861623054407305 8.18065744274051 -1.105701114738786 -0.6881742730609309 0.16931279959763101
Ni 4.7212493440991325 7.472670617475425 11.832139137095755 0.1098310992922302 -0.2767149777333944 0.04294565032359056
Ni 6.711153751558192 5.906061790535795 0.9551520583870176 -0.8566990295396278 0.1513004221806104 -0.36703217536241306
Ni 0.4983560195577683 8.018013867804425 8.339988936413448 1.0144938011953302 0.47613153869494135 -0.6015941738768413
Ni 8.845370271197078 3.99572401059816 4.7501762875986655 1.449901122698032 0.7790645695846002 0.5639478242789772
Ni 0.1771393072176343 -0.0580633466836915 5.619686452522236 -0.34853385944790943 1.523957121273182 2.0323202663083193
Ni 8.522540532267751 -0.12946665703198093 2.6892631768757447 -0.6467579148976733 1.1379013536204146 -0.633907027076934
Ni 4.961473419904208 0.26895465085027165 4.594786189330623 0.6323060011384013 -0.4416476459854587 1.303678115040329
Ni 7.035376771425432 1.5080910275473312 11.945759794950652 1.5352776884923238 -0.9234620939977902 1.8724274744730076
Ni 3.8116239092182327 2.2348506770469907 7.367765913729438 -1.0319809022365 1.6539824361250999 -1.6823183069553156
Ni 0.5227216043894259 1.4224276270626952 3.835119862323543 1.1905593461357624 0.2703340139077151 -0.40158163120250845
Ni 8.857853694365618 5.467673891668784 13.14789287414768 -3.229082398820684 0.8651255630404263 0.7634731429042465
P 4.434813225373516 5.435525570430253 1.3904653883118454 0.7985977545215215 0.5808955078769092 -0.6916804864419764
Ni 4.372957162257496 2.8400582533123115 5.088657527426496 -1.107036802831074 0.5803301222917424 -0.5035788362726165
P 8.397930721673028 1.9092156744842836 5.286898962782288 -0.5165611074648975 -0.17228268085923235 1.3352191230714037
Ni 0.9733797263888405 3.5376805645399347 10.164326684230444 -0.5565528173664867 -0.22301003201077074 -0.7165479391076176
P 7.901548672625281 8.823405056947715 11.109616370770375 0.8855974577415328 0.31447419876003907 0.5421906351075437
P 1.0458209842814803 5.744319640313904 3.243927383170587 1.1587630275607719 -2.1545754502965155 1.0072461184939814
P 6.771148989797404 8.573970365546376 7.300226386492191 -0.7947824945404893 0.21812879265906948 1.0360622713947254
Ni 8.26918782265846 5.492425667793969 7.304755952172222 1.3386422898203396 -1.0526816251189612 -1.8281767321847482
Ni 3.451390655177177 5.159338014845251 5.331541928243893 0.041216069226993536 -0.7510362026924743 -0.08360944659153986
Ni 2.4722507874611304 1.876543704034189 2.486218195091728 0.21988099946348583 -0.16851112963194204 0.16801027873612356
Ni 6.079268118139432 9.436252301174607 2.4441205388334777 0.7563604431188652 -1.7336259560903562 -1.200922177427325
Ni 5.935881742958621 1.7140254308737293 6.387604930050842 -0.18494973480393953 -1.0330679646530918 -0.6448229026584894
Ni 6.054834271892695 7.413666572386673 5.628103178510253 -1.0966197212628082 0.027031035975863125 -0.5087686080036721
Ni 6.326729774118626 3.5293956859426867 1.5695599642819453 -1.486923208448336 0.327810510857629 -0.9801299790034799
Ni 6.261002447188542 5.9296727594500735 7.871190109584846 -0.5122840773560984 2.76697339965708 1.0187770019517164
Ni 4.466839985187934 6.984152657479919 3.106972542413238 2.884494668504716 -0.2618879400228909 -0.47999642096698625
Ni 3.1272330914613837 3.6577645498061386 1.0472572792617707 0.3600773413111347 0.05481257696450561 -0.9586281003759618
Ni 6.9187058569131725 0.22720671745831605 9.353434373102095 -0.9440370899356644 0.1531030226069879 0.24149112153409377
Ni 6.7722897970083125 4.254294510565538 12.646945726080546 0.7223894854900591 0.8787341549627963 0.1670070342825898
Ni 3.137762180965335 4.892239513432399 3.07814939366814 -1.833048972675385 -0.7643802280995481 0.3609070363012817
Ni 1.0894989390532013 2.1815880715278895 6.46643657850032 0.03185776794054514 0.38668388815506954 -0.9282834266458335
Ni 1.4278043823600062 8.49653573838632 4.118035375189267 0.6801801991118609 -2.250411006640602 -0.2673157959066816
Ni 2.7429400263247086 0.7644539769413817 5.092516635098147 0.21246593794633728 0.7426130116257856 -0.31128500239878
Ni 8.805713194299868 3.0824891365089786 7.755133547808298 0.23296560056158588 1.7814201927554996 0.8397911980406957
Ni 6.566766832348144 8.089398476395157 13.264949044865588 1.563137648127385 1.0316973095578104 -0.5314912464121685
Ni 2.881594856843886 2.0450184869761916 12.501956610277196 0.38440409098195727 -2.1412332246616543 0.28889429340840567
Ni 2.25366464514819 8.937841111432048 13.379992906470486 0.5654930572789099 -0.6877112173815834 -0.41717177233128155
Ni 5.145966258192808 7.901632830534282 9.571355667933926 -0.5933198496831912 0.42484651526772 -1.2049516103016926
Ni 0.44514951931133473 5.515195057618235 8.911925150899009 1.1771644128860952 0.5283665847402578 0.8294018843865716
Ni 5.348889678552712 5.603794634039141 9.962336481572578 -0.21721913636060652 -0.42762587778507005 2.195325378520368
Ni 9.211167298111004 3.0922888574682514 12.204355542290731 -0.7488006284937362 -0.31573223953685625 0.1323354510423334
Ni 1.205459186778337 5.278019368294765 6.076044870224678 -0.4170756130730494 -0.4975218314452593 0.2825254137675844
P 2.868671942372784 8.164542138254621 8.75372885390971 0.2790981332535903 -0.10638890637990064 -0.4505434058131918
Ni 0.6424399702954128 7.778509809665251 10.61786581198134 -0.22297917877283532 -2.1926540023357917 0.7005646763054838
P 4.740493452624117 0.27335891475467766 13.240998639051671 -0.6189064399030438 -0.07286969157653257 -1.372877556854126
Ni 6.065447519305647 3.172360432443684 10.730310129285971 -1.7668790617165313 0.44541302656516185 -0.6489209839872631
P 1.159733389554249 2.8375241651634915 0.3934793684481155 0.5022331208779997 -0.18258740521935005 -1.0477980717744149
P 1.0310746484486815 1.7529250865899269 8.796046255819242 -0.21630742317961457 0.11734180584697856 0.32875616260034995
P 7.121956558030305 5.611004161576926 4.699141061404467 1.8887184983235472 0.41415509699214476 -1.136967014731603
Ni 2.638154078739202 6.874971796868785 1.8425270772158278 -1.517049081299439 0.7326502439861189 -0.8960402503414117
