# total energy = -381174.37729459134 ev
CRYSTAL
PRIMVEC
9.15014829553430 0.00000000000000 0.00000000000000
0.00000000000000 9.15014829553430 0.00000000000000
0.00000000000000 0.00000000000000 13.39216694167974
PRIMCOORD
 96 1
Ni 2.2076836835437232 3.9360551589453387 5.569614629720894 0.3428375803940805 -1.8450819925805193 0.6689421643041963
Ni 4.241075345998718 0.838728195645313 12.957041602532298 0.20008607622474575 -0.41043779604155767 0.2892591329469922
Ni 3.445826824114924 3.654999209776849 9.890476522143771 1.2561106496740109 -0.09658066204022722 0.3308145877912754
Ni 3.349475764577739 3.7993976970091685 12.794420595350473 -0.3512345462085241 0.15109447681739138 -1.2230228659811067
Ni 6.833211652288347 7.534213648698921 8.603502701199716 0.45437846328856585 -0.8673891622636223 -0.513161080644413
Ni 0.2693638899209478 6.796437207057583 11.647689264369813 0.8689493076618906 0.23803324489248037 0.044973222276580606
Ni 7.214159768310347 2.522000421070966 4.045277731820697 0.2010247859889312 -0.00030853237935430733 0.3544070303992348
Ni 8.988300284529151 2.321099769295235 12.891808366667863 -0.03805386944892802 1.1134661033961857 -0.3279742901290029
Ni 1.2596276883198536 8.71478405739852 8.408941272030573 -0.11768890477375216 -0.012800751309094083 -0.9210964219790911
Ni 6.0485864523535255 1.1605132840552006 2.536516216023463 -0.5578100868123554 -0.6246261159956403 -0.11666971948061843
Ni 3.3009708294773947 2.075674496844485 1.6077963137733804 -0.9281317315593176 -1.18462421159825 -0.29237479575783837
Ni 6.349708676314517 5.348655023271144 6.27570319346259 0.37116599502512854 -0.15079391485783705 0.10814625539063956
Ni 8.174422061105213 5.681464210116967 2.9877521097226554 0.8530745454131631 1.5244217196144263 -1.762283471926049
Ni 3.30000091377835 1.977905164351149 4.04960392184436 -1.2905791157645257 -0.7796991178448056 -0.3852906073519687
Ni 5.794944346905208 0.3144549047636161 7.513273534762468 -1.3789710713463734 0.5208713048044771 -0.2781069729849146
Ni 8.59138516006533 4.684079766463375 11.359329666984554 -0.7778996027422217 0.8114560985414282 0.1429312242803087
Ni 5.645952485324581 5.861859379991195 4.0867132624957385 0.29717041737426886 -0.9238392748315508 0.05596880205613587
Ni 8.872367908048986 8.776327953547343 5.508961957997419 -0.10402066325804021 0.9207878895997368 0.9001226479409014
Ni 2.9085758781770457 1.9361621886998062 8.383656667774249 -0.28846646184236774 -1.5096317057894453 -0.8529632166462794
Ni 7.152689073346357 1.1162997684157248 12.837409821173607 -2.9314306709346223 0.5574766147323367 -1.8360000848839089
Ni 8.20596262162038 4.491057392205357 4.786347311764735 -0.6384676498644231 -2.950148301948784 1.8935526864873968
Ni 4.989685562995424 8.086736191822702 11.74321589556281 0.7916796872454495 1.5395230940322389 0.8389915849575357
Ni 0.19318982196832507 7.229596068162126 0.6084647186032163 -0.13187239536298578 1.087910109303952 0.2516058413705925
Ni 6.534550818167384 0.411253406543097 10.144525809182726 -0.3214765982198012 -0.5710952339570359 1.1553982248535972
P 1.1117338445117309 4.471000267560959 9.030069795609997 2.105338053426942 -3.4771282907541603 -0.14152817328519499
Ni 5.552154317108466 5.153939871613849 8.531064638718037 -1.8724004778898142 0.6145111390488255 -0.26185682967463936
P 5.715319758102493 3.7880606635080696 3.003006321627161 0.09880209517157823 0.5057717301588773 -1.2547675053825553
Ni 8.75785380452497 4.820188219513294 0.6400025340739492 -0.8902185014533119 0.4226407658656527 -0.37212424517333975
P 8.802268623422739 7.2233648173031675 7.237743360034102 -0.5685277303401757 0.9548773750842781 0.31619246700272646
P 1.3053875789889389 1.0121893832861806 10.234628232579556 -0.4440184602104805 -1.9828512130439144 1.536861745149992
P 1.8998544010223557 5.796390070305671 13.048134986968813 0.22413823207794303 -0.20410728156899685 -0.40412265245680723
Ni 7.484601545677969 1.447901135711794 6.233343497829024 -0.4536837512143864 0.7756761127283416 -1.4732058588622434
Ni 3.191004349561165 1.5422300125179524 10.872738516025557 0.5753267555398801 -0.778332319404266 -0.031748496056190484
Ni 5.20054157590852 2.53618315063247 0.7051589086943094 1.454978023000307 1.2349869803215183 -0.9928772513668193
Ni 8.161062844873088 2.266647237927163 10.589641168815021 -0.6483306587014319 -1.2289813975573867 0.6962753049015105
Ni 4.661204396202885 3.5534600162645837 4.901801135499051 2.0848900699852355 2.8760352248834535 -0.8383670639996593
Ni 6.325195429543376 5.530084159881145 1.6495530146468798 -1.2600333817671847 -0.46480634349010924 -0.73367225749273
Ni 8.432209183644733 0.7254457020561227 1.196051544277088 0.3527047029961474 -1.170571847270242 1.4272247641464388
Ni 1.2790717530412705 3.429100353380454 0.6966575060907007 3.1127250683741616 -0.19103887842081294 0.1905673381010331
Ni 1.7041418832217037 7.2684384468644385 6.01403366308246 -0.13576530265948875 0.6918704909655955 -0.8808609714978121
Ni 6.895615662358966 3.9305559199347164 12.780572761209584 -0.8005232536790085 -0.5168066478168003 0.2351620939922724
Ni 0.08241904403373662 0.019195180692982733 12.38358901063498 0.9741182255917611 -0.0023569302679507793 -0.3787839165817025
Ni 2.7695027771413687 6.365767186237382 8.664986206371053 0.6717402958746238 0.7635263647396849 -2.097208739451588
Ni 0.6980812691357137 2.258869612038597 4.44635983373117 -1.00806707173338 0.8943489786819178 0.5631790644337527
Ni 2.0015765974967046 1.1439972667271265 12.936190245032456 -0.4709389387504083 1.3452047735292059 0.6654732319189893
Ni 2.5089614600224865 5.435993186925696 10.726871430022515 -1.222797637344178 1.2421513592804414 2.4379241312963433
Ni 3.842851750355996 6.051322346636681 6.143375581609325 0.17896394953414987 -0.3982343119968303 -0.36303822371167155
Ni 4.011607931841686 8.226632806187757 4.608191183131604 -0.973468250712588 -1.251170017839284 -0.30106255333982346
Ni 8.851853275999378 3.2678838939326216 6.758544613728486 0.0020219155260352275 0.23189370765364578 -0.02133372848076971
Ni 7.428630089724601 6.293444415621815 12.929145546007037 -1.6839974944299514 0.8671353943816033 0.28730817986820845
Ni 0.01052450034944644 8.457600844633879 3.164180690393714 -0.892121889123612 -0.9869380030642487 -0.5973983906279389
Ni 3.3768530077054937 5.158167240037988 3.7214018345690003 0.2150676372352425 0.35646057049415386 0.47774464881833206
Ni 1.1700660386759814 1.3836030449836076 2.4063315688562015 -0.19605021559247526 0.1486313599888795 -0.8094542376200511
Ni 7.800720862381738 4.849477843594826 8.510722029452788 0.8591837436346944 -0.07784194798014335 -0.6401512082144329
Ni 6.701550171217069 6.1695239598466864 10.63414382913459 1.4786085179350534 1.321077541463699 0.4599341029994724
Ni 6.594035930992764 3.9551606681869 10.342060121470924 -0.4150835223436852 -0.9550606947396777 -0.7706488347170792
P 7.389577257615891 8.226641956335861 11.952067111026278 -1.3123424755835462 -0.0866582607201927 -1.2218805248465472
Ni 0.8215753280091869 5.4122851531877245 7.075912010633668 0.1256896635910416 -1.1755096508914917 -0.8113018323517511
P 7.13967756274219 2.7145286873313577 8.573008917627673 0.8392342970959611 -0.6789820650387016 -0.38211375228588385
Ni 7.281889164577607 2.88154634067725 1.5577633039396357 0.25630967460416504 0.6220856089619737 -0.5748873540096164
P 2.0814299400020246 3.4430817796836655 2.792280240817144 0.5609316631604727 0.6247521000505434 0.7908283949887477
P 6.936297220830221 0.2285505693169912 4.453485054059907 2.446900623763341 -0.0824413944253677 -0.10413584867966581
P 4.906190461544633 4.80070755419946 11.371543284674035 -0.8952136406750583 0.39805562032712094 0.1717106104058462
Ni 3.9191182348044715 4.551704573839969 1.5526877167862383 0.441398248978814 -0.9114105621498948 0.2262046276886685
Ni 4.693056061753592 6.047708038135523 13.177329588111201 -0.18899485140759062 0.2205075773038912 -0.4599238185868273
Ni 3.933904874140852 6.946764990261422 2.12123857434414 -0.1674657190865632 0.3628749586609299 0.07023508216716291
Ni 3.235263615941162 4.149473213327609 7.5758285222768045 0.16157146508931527 0.7205868850636815 0.9963001610054391
Ni 5.742953205377166 3.200932260254218 6.961529669242353 0.32099451637706006 -0.8516835786029073 0.507062681056159
Ni 1.2446488958732844 1.4207251958423313 6.453564687326765 0.6209268127671822 -0.45547246768369304 1.0713712311086645
Ni 1.1737077976214516 5.276744009320265 4.312813422150426 -2.2092589578823243 1.2845894738399941 -1.0662737619810991
Ni 1.5542624572749706 5.7717853220534865 1.8483463873142145 0.7903072323779551 -0.505169063577872 0.49459411627550304
Ni 0.4287128041407137 6.2703585919549285 9.264191890107632 -1.5781559759130885 4.053038943821968 1.259812009784998
Ni 1.0440867995774086 3.376816407113077 10.996535444801278 2.918493136937348 -1.5855679521064436 -0.26849747491960857
Ni 5.178132863201344 1.0120704313608262 5.148565074617445 -0.7035641252534399 0.9805380130751759 1.2154939045939133
Ni 4.592770438531602 6.756560861619496 10.155078674991294 -1.5832804416238475 -1.873599383293922 -1.451642787979487
Ni 7.940425323636606 0.6111411369236937 8.206840120823571 1.11145550072406 -0.15942613661153834 0.41903350813036866
Ni 8.225388386045587 6.5989129599323 5.069752103951571 0.8321827895658185 0.9580079502934599 0.6480285540799807
Ni 4.38271048850357 8.899196142290489 9.28878016809323 -1.3196230684053598 -0.4054516556808759 0.10588728415313375
Ni 0.5265159921820354 2.173013772376924 8.786667620905085 -0.23143759395283364 1.6371836194002063 -1.9057739111439373
Ni 5.926194071311798 7.972542343482334 3.2426724908611297 0.5663134962976764 -0.16211345363571436 -0.8573286927038266
Ni 1.855604284790463 0.13895597913994392 4.400879937594073 -0.013976516784750124 -0.6704969103858258 0.500784304246615
Ni 9.093160981803239 3.550330665612949 2.6337301345268744 0.3300458279460509 0.5429473107679101 1.2635866463360819
Ni 5.088324159558659 1.9904591675501062 9.173500197172892 0.7708542658596661 1.2391408545888918 0.17441695359341575
Ni 2.5897389674863303 8.002728682078077 12.701532866870725 0.28481035314701914 -1.0248900568279897 1.2110168426591659
Ni 1.9131587163658568 8.509317481718794 1.5563569261760208 1.1761102605899678 0.007460055822471023 0.71979601373127
Ni 5.197732480440532 2.592374210140339 11.627374105548878 0.027762000604616706 -0.7938108746558392 0.31426362541112973
Ni 3.129899660521343 8.915382754286812 7.013169445083195 1.394955619700088 0.2878884778517106 -0.5476573146490697
Ni 8.744018780591427 8.649378798749725 10.018385527477518 0.09821871186428245 -0.635604469384015 1.5746577329518427
P 4.755926729377524 7.326011178736041 7.5722123837460265 0.25135387326078645 0.4488505914918011 0.7593187544162407
Ni 2.3450548570320207 7.939299855419789 10.545514579582536 -0.29461191261847325 0.8109760735812163 -1.3781339201570588
P 4.231147435305665 0.0038439772185728124 2.135649142593439 -0.39860660773458445 -0.04321535904520944 -0.4385762061489866
Ni 6.510842784429412 7.686691716707245 6.058482337528214 -0.9513025132488262 1.0798751548146177 -0.2403500659511151
P 2.0527899764358906 7.12373800474468 3.6517756125997405 0.418180416101454 1.1894730550501194 -0.16385614735843393
P 7.5119330380652025 7.441925254919998 1.7822429723650701 0.31012697753493684 0.2730388144333878 -0.28167155040772135
P 3.702122472513459 2.447417563873663 6.3027821417621475 -1.3937916812989737 -2.639784268702376 1.7168448799772753
Ni 5.942133629309307 8.543136429111902 0.5039553870163292 -0.046456491690326444 -1.0991419734640295 1.4869504621418457
