# total energy = -381174.95897302416 ev
CRYSTAL
PRIMVEC
9.19989382300679 0.00000000000000 0.00000000000000
0.00000000000000 9.19989382300679 0.00000000000000
0.00000000000000 0.00000000000000 13.46497454949337
PRIMCOORD
 96 1
Ni 6.296885804861199 7.376484158455982 10.511405976767602 0.3980967579777015 1.003144180510466 -0.5087945761456012
Ni 2.0439312360548407 0.8360836010122613 7.017675415067529 0.08088304879931231 1.3948404342784624 1.0295260129381043
Ni 0.18329960678708662 5.114368237794934 8.973786303580038 0.5802308777097168 0.84435079238692 0.12395185496432846
Ni 7.106255673849044 8.418123749667345 2.714713902778058 0.3384070554265527 -0.04169352308404432 -0.22860629515162564
Ni 0.2733914081424253 7.365131489337917 2.8982821464681003 -0.9016072029062279 0.9254413292113481 -3.853472230435802
Ni 6.2355961114539395 3.371457531353651 12.493800042268282 0.776379052332637 1.6580645766142734 -0.2996199073560259
Ni 7.516083349053663 1.3870128094944478 13.148911609659478 0.6067512925977486 -0.040722931640658905 -0.2644024789146285
Ni 4.449832299054834 8.567162031444228 11.429084357095132 -0.014040023032833884 -0.027759172391139293 -1.1072275786856414
Ni 1.036699248167277 7.569608331978225 10.05891471342026 0.43810106628478096 0.9817310049420124 1.6069127363308067
Ni 0.22021234122988845 5.74698974446812 0.9836406998653128 -0.1437002412358493 1.4622195350540688 0.09851875960320453
Ni 3.89951304354066 5.215033477251888 2.55190889971408 1.7510472368905972 0.11496816340847943 -0.49641445731369344
Ni 1.8969997299894943 1.5015054895384794 4.816664269945609 -1.462575375731591 -0.7467380895377527 -1.142686947934516
Ni 0.3787761931889808 0.5600656231508668 9.29488560171076 -0.08159807258846592 0.4437230404572487 -0.19191562459881142
Ni 3.4723803678408367 3.0360569980981054 6.088484287467431 1.0692955795265584 -1.45701536514531 1.416755746294315
Ni 3.649091930579749 0.31601451675182657 2.080877090115815 -1.4769684112284691 0.43514455475961833 0.54413078955305
Ni 6.330088222079271 8.401067146308435 7.693792180295329 0.2782270435025467 0.9594505962772572 1.1280931092807411
Ni 1.14109964456259 6.055158591670605 4.245452975290255 -1.1784188541184866 -1.968066855645888 1.3381231840920762
Ni 3.25876803052124 8.645324330331661 13.375123201725582 0.5162924271845432 -0.9777671351982581 0.252716557936268
Ni 0.29503967856521446 5.989784145355387 6.416235108914491 0.24834285434860456 -0.0021278449762802067 0.22749377881373722
Ni 5.218925032387173 1.4407953894492416 12.562080735078148 0.573824717073057 -1.2736183195404711 1.1644703623581947
Ni 8.246490528381571 7.478262585079295 8.935976579478394 -0.700087222448433 0.13848964356918728 0.3627836844987043
Ni 2.9324569924752972 4.516135934657673 10.044359561222777 -1.0036311474492134 -0.12926683941933864 -0.498592953022251
Ni 3.515914265949985 2.9737829160396037 3.864447647800377 0.013796539563460112 0.7497807330188184 -1.5536497632416082
Ni 5.386767897370967 7.46200637249289 5.77594917060252 0.4323438520860296 0.1187551412547374 -1.1656425282894247
P 1.8079999560444593 8.79778497265305 3.3713066530930864 0.7805892337592428 1.0827625036647417 0.37534969408917296
Ni 1.2146619964816001 0.5093401679512866 1.1419110752078199 -0.658760595785504 -0.3144114638429037 0.15947498757160278
P 7.532965154427774 0.3584784671961205 9.865033388627014 -0.8744830929959261 -0.8246067769907733 -0.20845424568378293
Ni 8.1221999612948 7.394727548132746 4.601924025629356 -1.454634266507643 -0.9870184785931969 2.332899452253821
P -0.05411469612591396 2.5702663680756603 0.44065191984001695 1.529994071495881 -0.01380013910788591 0.6213654429664976
P 0.5100908792965331 4.428056150106323 11.003187227151027 0.028894828657479266 0.011223636629961316 0.22049729289124606
P 2.2656486799327964 0.2484164560720731 11.54920461226033 0.031821515385971 -0.05591352333816822 -0.7814163576462284
Ni 3.876476509122801 1.8382032078391204 10.95385095593591 -1.8855578412073783 0.614106190300923 -2.7157989336657935
Ni 6.826477699335662 8.29448637505009 12.572542854463128 0.8119024420502275 0.856235459639648 0.794206053211729
Ni 2.8092796125548847 0.13101568955460474 9.233781746161023 -0.22635478011328758 0.46246766805460354 1.8483992298792102
Ni 5.990483337294588 3.998871898058583 3.247859716280324 -0.061165772876043044 -0.494991865934554 0.6178790270797939
Ni 8.109504107661953 1.447998906401791 2.158852631156329 -0.05263022460120613 -1.0543356157826165 -0.009325905386616198
Ni 5.0624348365214455 7.191915886295004 1.076870585042509 -0.6863701299726566 -0.5071377572684685 0.31018945534175607
Ni 0.6804324354735739 2.384207713096914 11.731506950544663 0.441354283114756 0.8655497950620383 0.2783823381334883
Ni 1.2482140096692724 2.8270446077469313 8.78543779500041 0.5434905848658899 -0.9540420236671764 0.8566746040595956
Ni 6.533461077447159 6.056685774064122 12.56921709280496 -1.1640553863079628 -0.6938859787337276 0.895099483694697
Ni 9.310292664086793 0.17686060102068904 11.781933409191296 -1.0245177610902354 -1.2127731632286405 -0.47179023100711004
Ni 4.1039346868173485 8.880234422115052 7.460713787394763 -0.6144885133410063 -0.9623137767576653 -1.5115492345271322
Ni 6.752243755159262 0.5284658274565929 4.879249308419176 -2.4525843044116793 -0.4099492864409133 -1.279768398302267
Ni 5.423291476300241 1.4834552976343902 6.912918062787466 -0.4878819943626501 -0.053275571494688895 -0.20803592719944172
Ni 4.361145321503652 4.504663666918428 8.024303889912836 0.6731304913539311 -1.957997644335344 0.7831361685508126
Ni 5.442546854310057 1.537127478861942 2.9668728757036393 0.7912336008469664 -0.12352659450145179 -0.013969831916530779
Ni 7.578900224854438 1.7562597525436447 7.938975793637995 0.7495015112155028 -0.36431657620346286 1.1979137296183047
Ni 7.48474851030477 5.2778595529466 10.596033041124453 -0.4240170773878891 -2.0645403026842892 -1.451440956381326
Ni 2.608050332474281 7.356382390203977 1.8799127669805928 -0.5690280670153619 -0.3395812782403119 0.5216763172042758
Ni 8.221144820585565 9.152864079039507 6.3062669367085995 1.570143132910941 -0.5804147115857488 1.8616555806684842
Ni 7.520526897825159 2.4225344712378085 10.675651683222087 -0.052105205335671555 -0.07568916330319869 -0.6353273044632284
Ni 3.7025249145649424 6.3189103509460045 7.016733345928396 -1.502505122046993 1.31505318964649 -1.462217992392172
Ni 5.8534049176356024 6.303380929980611 3.504367479069852 -0.5435175814490834 1.177951941784397 1.3110795497107226
Ni 7.432014718258777 3.5199346196003867 1.4769187729922622 -0.2983068449715572 0.8996187117212894 -1.7161830780235605
Ni 7.8958641706605475 2.58647658119238 4.49423190718344 0.3690633468598289 0.10430708415020744 0.0925568855928148
Ni 1.8830618906751748 5.933572793401266 11.767082020409049 -1.1221597745154417 -0.47963389542124496 -2.106184974808269
P 2.818875101931013 4.980730578468329 5.232838951977257 0.508984066448588 -1.2119185285378289 0.7762672093451211
Ni 5.76766190614421 0.13206999739976716 0.8989538361978703 0.22877058864363178 0.9652684885106152 0.5155262384424799
P 8.456763304202093 8.130249868489539 0.9646226791190675 -0.06011624856560615 -0.1562135432115116 -1.1496728923340458
Ni 1.161716606875059 7.678387877887477 13.201236006425283 -0.554351953060426 0.18855776387017203 0.5919867326940643
P 2.2436793332116114 6.393493891092005 8.943422973630875 0.6863207647919599 -1.271326438182501 -1.6253663150503042
P 5.515069618214203 2.6632864956710964 1.1129599289779633 -0.7462536937021663 -1.8693462644445227 -0.5257803120703203
P 0.16715103295974318 1.8117903123464392 6.298874821930344 -0.031024216295656253 -0.28958771993100446 -0.7050306824966374
Ni 1.6125574092501314 4.173173088586041 0.02879842799050483 0.06490698508603014 -1.5130988384024393 -0.6416198223401596
Ni 8.951423201398356 3.737962906009668 7.090722572926076 -1.0111516241959746 -0.21813290642412755 -0.22253617769814577
Ni 7.647301436274879 5.042820662648094 4.975375320207691 0.061272987877868675 0.39976026172305346 0.123712999480645
Ni 6.715379780154325 3.511801913360216 6.57726269246987 -1.1132498736203214 0.3480468925091619 -0.0423848927241141
Ni 3.946386503148884 0.4669728163933295 4.957695884029257 1.1720016377382332 -0.45140035449684845 -0.2595613487722433
Ni 2.974850103736278 1.6744358958693486 13.082286897758243 -1.7971057218115567 0.2699786874508253 0.5034927043167134
Ni 4.230037633009678 7.167094572453398 9.084037832519185 0.2437493214406512 0.815618457449234 1.4964676576036613
Ni 3.10039185639846 6.12934653637732 0.022795497196713692 1.7031139035444283 -0.7372944276263496 1.5318138983134393
Ni 5.107357918615059 4.907269425382624 5.579777992208393 -0.32586084333042586 0.23420230118216442 -0.929897822320805
Ni 1.0281341469120746 3.7165639527125673 4.954491560971054 -0.47137859739098814 -0.10471537533221965 -0.5159445569268211
Ni 1.188368699610098 2.463023204453862 2.560540240205628 -0.3955387674425382 -0.07997159272863648 0.11361010671868821
Ni 5.376740012979807 0.9814722848643985 9.33128130211431 0.34419280887039433 -0.327360567804404 0.02229095018771645
Ni 7.084074729567312 6.078461923012633 1.6633150640784906 1.4850984965347713 -0.47016323692664835 -0.9475006230042327
Ni 3.217837702396219 6.663372779729343 4.165901492418359 3.2879190093429185 2.1610106643988978 -0.2664675889737734
Ni 4.352451421733333 6.057274567276079 11.33788580849919 0.4562224584758401 -0.2521334317392883 0.22043841462885264
Ni 5.21219990991934 4.668062983130726 0.6695940404265772 -0.32248524198997364 1.6894443764771356 0.26095822911976996
Ni 6.228631791743748 6.045737900279276 8.571223784617345 0.5510473141672252 -1.3597276497357291 -1.1400225137284754
Ni 5.2040396039973595 3.804542538430613 10.336926308297768 1.021851527111982 -0.028890200671788952 -0.5266370036436607
Ni 8.787793887837637 4.383905859103406 2.9729181260095405 0.2156926724137511 0.7675339432371814 0.9817045225794512
Ni 3.8091148857172246 3.747107600582892 12.370379785147936 -0.14659016118913465 0.9330533372306512 0.04144001231234153
Ni 8.980522465920595 0.2478874621707045 4.015067391345004 1.0145251686538979 1.4143844178486606 0.11922925267767852
Ni 3.2999283559946835 2.939393712503678 1.4875566103514357 0.9992443312354273 0.5248552291528896 -0.08628185121738044
Ni 8.69028421200102 6.750698172977872 11.745255272043885 0.4643391740457036 0.5978293075177703 0.5646967866298598
Ni 1.9350136917365366 4.3404823597214985 7.157468723427278 0.7150451293098461 1.7935737973988983 1.345151294583451
Ni 2.0210510998339077 8.10269618614869 5.534131798451345 -0.1916124915360958 0.5466245025091813 -0.6590979245202649
P 3.4633920714645394 2.3617691717849496 8.287840371670113 -0.03364802707174851 -0.2934968251774236 0.6709160002011155
Ni 8.334211517069384 4.453622655356814 12.791039415473795 0.5578016021719232 -0.561896083956271 -0.44570561810491627
P 5.492281480932639 2.434945128158612 4.946426013956621 0.09882600643097819 0.8342666686780407 0.20374578446452005
Ni 0.9663844588079732 8.06178425781154 7.565323021382444 0.2673067970456171 -0.7759393936920572 1.1383057881476848
P 7.2665178262288785 3.8969462731322806 8.732076570187925 -0.27053404573366313 0.17725622281442377 0.46262990466408066
P 7.692233718262428 6.9455427266663055 6.872724646166786 -0.8034481406352874 -0.02840246240209302 -0.5286620044934894
P 5.041707475481735 8.395372411961528 3.309044530896703 -0.15725252599898726 -0.19979374179530754 0.6977549747708305
Ni 1.838341206248173 4.714172851542191 2.3383683215671915 -1.0220178774865172 0.10909473534683792 0.34660784606979017
