# total energy = -340867.37758201844 ev
CRYSTAL
PRIMVEC
9.27535771819337 0.00000000000000 0.00000000000000
0.00000000000000 9.27535771819337 0.00000000000000
0.00000000000000 0.00000000000000 13.57542358809996
PRIMCOORD
 96 1
Ni 2.7898513889733367 8.67272851137655 2.9737919366803696 -0.046675035459035744 -0.4809922092213523 0.486324420067543
Ni 3.0325875021235427 0.7177169822636035 5.011191056032968 0.6897105071997993 -1.3001842429544577 0.8470075132834768
Ni 9.03582166710364 6.958067321113903 4.571809010086193 -0.027081172487508198 1.135510999011367 0.1102447897908811
Ni 2.891017716299638 5.271909305314788 5.470651468970047 0.8203384886327226 -0.014146980924343378 1.6533016080079914
Ni 0.9985293666439554 0.7232766317180258 6.624467020525662 0.9454843639051522 -0.02760259220861698 -0.27561737379384144
Ni 9.095759029089756 0.13873894662889402 0.6704822227596896 -0.8212954532293534 0.6579488985174863 0.14090673765111217
Ni 1.7938541950038176 4.819698512019978 1.5351088143221916 -0.23363357316288796 -1.0857817501070397 -0.27411250711354085
Ni 4.5140290963201295 6.1235819321992 2.9165444284509823 -0.29166979927101383 0.9405835841694252 -0.9873596639826996
Ni 2.7052508506453643 6.888279529163497 0.9719767999219419 1.2940310788688683 -0.032475089809569875 -0.0677645091394833
Ni 1.4741047861911674 7.755683162845875 12.030364434213496 0.04290656955553901 -0.21723816252400008 0.26659588702152154
Ni 2.7633795178640246 5.852008731705319 8.05565658133191 -1.5696181136454064 -0.6053886079222671 -0.19235862567350098
Ni 2.5783268547589513 3.1416749849955177 13.168419297826244 0.17103826692916993 -0.1688659418681995 -1.2379784588496743
Ni 1.569891406004013 7.352724519372525 6.318626938242628 -0.05027020900946181 -0.3623478825128663 -0.520172993185872
Ni 8.70016501969517 1.8125162148608378 12.391334460544329 -0.29146308257684644 -1.0036357754349037 -1.5684246075579376
Ni 6.191356971510953 5.783658620211093 0.21127131694694137 -1.175150724890176 0.16559729841925672 -0.11250890323470947
Ni 3.697194713264228 1.8962077681261917 2.4739039493154538 -0.1637111371401374 -1.214137904786651 -1.8654402445218972
Ni 8.354203449791099 1.7855249237157442 2.6641090736683273 -0.7110480923353109 -0.1103877431266486 -0.768482937414012
Ni 2.499477038255707 0.5622758988769877 12.637457006820679 0.08412520988569383 0.6195445877076748 0.2665583489153667
Ni 6.3791458651616635 2.200634285883277 8.420604808615364 1.4975369794084403 -0.630199753428676 -1.4914905161040442
Ni 0.727534948475659 0.29075371285090573 10.798937326418509 -1.4361315797177654 -0.07010087058214379 -0.05393865899998452
Ni 0.47016417581729847 4.999473496547196 5.76815671475034 -0.06695564008494274 -1.1063500611766945 0.6248145778573627
Ni 8.59294188373734 8.142178046256495 6.65076265983712 -0.5325433418257667 0.1651067319360834 1.04962406923956
Ni 4.79961736242234 1.8236559195568025 0.15574160497874667 -0.589602548732604 0.7863148233891103 -0.30828221101671427
Ni 2.1647108251942915 3.5690741962239607 7.532948431216384 -0.6954049864814152 -0.17173092212082036 -0.2799669090117888
P 4.81894720803965 1.533596931003755 4.248022038031117 0.6274607572309581 1.0912646275984819 1.0539777182225654
P 0.7748633890931692 6.369722101655335 0.05043475793864146 1.4946529729924258 -0.8036124341272934 1.02190346339584
P 3.32458504045299 0.6612662272676741 8.316155004634298 1.1337459366911442 -1.2999129915709418 -0.6001091046908826
P 7.870697599340431 2.02499611092675 9.92165265409116 -0.4174682205257778 1.4207777229695144 2.1136396313141015
P 1.2593895288998365 9.010509215717056 4.65343772378087 -1.991270547455861 -1.2334597450437146 -0.5557503760698493
P 6.362839786181225 7.945790895942039 9.371603531842165 0.864059326559441 -0.937263775767573 1.3304978063363346
P 8.174029624879262 8.250449297643671 2.546369537057472 -0.9569224305387648 1.4825957847175757 0.6551998750174394
P 4.30324659072829 4.105783498911142 7.14918421313673 -0.4768550471245272 0.06117400040615917 -1.3739337660327822
Ni 5.773260944137675 3.2504285549873466 2.0929362516070187 -0.12560558851766757 -0.18292190574063336 -0.4025679063751776
Ni 2.2264754326634253 3.9452641571389804 9.97279141168544 -1.0187366356320842 0.6419118996592815 0.6972883195470573
Ni 4.329699911122037 7.151504907653741 8.82198942387314 1.5765598350705623 1.5550260747638445 1.471947046754478
Ni 8.093463867186381 6.842412884932401 0.9399081779270805 0.07008621529412445 1.0710189899755682 0.8114797526905121
Ni 3.6286405438988028 8.40713791665194 6.794146705643149 0.45538916394126727 -0.18635535690221453 -0.13456022660779407
Ni 1.8159202711667655 1.7554820398604318 9.147514597976528 -1.6430693887570216 0.6991112316884088 -0.3729835078498415
Ni 6.298496629248746 7.529893128363052 11.487781047443088 1.006755294900492 0.024177882797784166 -0.9075641918206111
Ni 5.376349833938071 6.069061379157668 6.550264158271109 0.14702364918212743 0.9682679374585711 -0.03885168275987503
Ni 6.5621393988391725 8.845240890760603 13.516139475565748 0.2283047047508068 0.26223786716314196 0.7064982681810994
Ni 5.707118367795522 0.7153304327063413 2.5407625832783625 1.6849634578876465 -1.6087634163863005 -0.4929871767996994
Ni 4.512034894397038 4.190968384779369 12.875855035136325 1.1925126132073915 0.6555588010187549 -1.021605472539447
Ni 0.8109500960791146 7.8200263197783535 2.0753297674655697 0.9539888018317377 -1.2744364445663923 -0.18757431691098017
Ni 2.988650132311066 2.8857771391529097 5.405951210762969 -0.4414923513545171 0.3085367502296815 0.7476454318433704
Ni 7.3255198949984495 2.8958780037773106 5.07426256141356 -1.290351830245068 -0.3710461816178126 -0.5126998247372783
Ni 8.763320930831576 7.708731301754306 9.968650891971636 -1.40026649039004 -0.14966237235655516 -0.35103168616909863
Ni 1.5884235708520877 1.6275377546180192 3.2960586775950063 -0.9602036723931979 0.10415616039463997 -0.9580871402708273
Ni 6.781844798617122 7.555548767987563 3.9257951811549425 -0.5512303767123088 -2.6697450767305244 -1.330562855246315
Ni 6.5842425764332475 5.070865925393859 3.1986553629207886 0.06347873727993583 0.5806895625136902 1.1690566961772964
Ni 6.224015506260739 8.740568478192774 7.521205828264599 -0.26354553023097194 -0.10761403703625337 -0.2984693386913505
Ni 2.641074650152958 5.705513730899267 12.155719039563225 0.08000450284910092 -1.4506840236106437 2.307277123700026
Ni 7.448909979569989 6.268741281484671 8.248400371109668 0.526703595215538 0.7821285532219046 -0.13159137378745722
Ni 3.791348870107474 9.005296464643674 0.8936148672380212 -0.4602904578976266 1.9143225720448969 -0.3240479584914032
Ni 9.4333171248435 2.4529240175487574 4.80474941788302 1.4502438507494315 0.4028216742571966 0.6737017904763687
Ni 8.198247584047593 0.09405398297920224 4.475193173287653 0.7710517265824528 1.254867264185213 0.6430372715129765
P 7.5538235514401455 5.260815977407732 5.372174995400473 -1.065653354788281 0.3168159595193382 -0.9705443921975736
P 7.736297665081873 4.660514821768398 1.353130004786013 -1.06314832897824 -1.7501357808199214 -2.7174634658524104
P 4.198333018858134 4.725600007323423 1.323463700456643 -1.0722094107392437 -1.0982204900910248 -0.1937377654092147
P 1.855581701041824 1.0310765971003588 1.1713802965870457 1.3665307887004916 -1.9843290831410212 1.0192945650180831
P 0.10854301937018189 2.712133166119474 6.938928547866897 0.043116371573499936 0.05812338650529345 0.22273209575903577
P 6.819938693027053 1.0734093300165812 6.241341874597176 1.3778289873221303 0.7704714285989506 0.2337654707550619
P 4.1352698612995455 6.918248210156555 4.800622811205889 0.10934490368443105 1.2717478419906356 1.4283755899214303
P 6.789784504878359 1.6849985960763885 0.8570356387538611 2.3685290285319724 0.13773116813660793 -0.26100348053540856
Ni 1.4534114629799286 8.575791747198759 8.732961757275906 -0.13460059292742627 -1.543836119585296 -1.5681461570855704
Ni 6.956601814584376 3.2579323194328382 12.773184244777815 -0.30119599359389415 1.4363910040267391 0.7747664564298786
Ni 4.240730679278829 7.6286942394549895 12.539197576623199 -0.8323817929505019 -0.2221991060737012 0.2566606301856806
Ni 4.231872712597191 5.051220717611965 10.459904448777458 -0.3774883376987306 0.7887702269081383 1.3684004949193789
Ni 7.729035059938709 4.692913646500293 10.191355942456225 -1.3860552318866646 -0.25487062816479333 1.1472758528567788
Ni 8.413797623539287 6.317557489490384 12.262083277390458 -4.0615917184879855 1.321045916894815 0.4506223386802433
Ni 9.149741611379943 3.8726566564229 8.711295449033353 1.397117146127781 -0.14428311032251281 -0.28905653001788284
Ni 5.337458258758903 4.199251279278534 5.038382694906149 -0.9395348311899367 -0.576774029509368 0.37128837953560573
Ni 3.390978051455252 3.862880429320863 3.4321931037587654 0.5170133645109677 2.05358817454816 -1.3938623866359092
Ni 7.167208088378361 4.019188758660079 7.223130147980727 0.6589814535470586 0.6753231281298756 -0.8488126848130154
Ni 5.610877255451367 0.7622405546878916 10.060800643998231 -0.3838546462363905 -1.8769682997661545 0.40129623875160564
Ni 1.9362402123125229 6.207180731886737 3.5794588867964854 0.197169416798583 0.7013059253468825 -0.5156586502552861
Ni 3.0164020027942686 9.041989780028551 10.331521439111963 1.8645403584154467 -0.8736415709312374 0.6775928980006588
Ni 4.215529532185625 2.6310943651797203 8.814481949284534 -1.5806149789765425 0.7080753828602322 -0.8251194549611338
Ni 3.585018536250908 2.1031873770274854 10.981173990901022 -0.17083694955164128 -0.5197459329507824 1.6305298615291146
Ni 4.669818005623563 1.5634450323456488 6.6209646454272475 0.4717696621818198 0.3189792857192442 -0.03760161240285782
Ni 8.786323818130487 0.7922008878589456 8.48533196536001 -0.8051517535899552 -0.05901915884668545 -0.38760434308680985
Ni 0.52095603503054 5.74147429301938 10.882588995645401 2.4659566119535272 -1.9137037075139751 -3.3789373468040194
Ni 5.4836378974003726 4.947559319042355 8.708321769328501 1.1772487450697853 -0.8685235329783816 -0.481005578957791
Ni 8.797945841431106 5.323229859921592 2.8860396317781354 3.096040408629629 0.21528566678331956 1.5077892532640678
Ni 0.721548632563273 2.5598874434886953 0.538644142320469 -2.3010221439292495 0.1482894032684285 2.3626432591751567
Ni 0.1554095471701575 4.324960203295528 12.862279621486858 0.27384588371571544 -0.09287441683323361 -0.014324387042472103
Ni 5.612908558805585 3.0474837267211443 10.596446063147837 2.239400257352395 1.4462193029710706 0.8890694754505333
Ni 5.705161267303558 8.807211923855146 5.2506344171706285 -2.380304423900346 0.9403758390339932 0.14743399724666864
P 4.945834102494937 0.42501173413540294 12.165412715981004 -0.981670326907406 -0.5878220597934134 -1.5376546733649326
P 6.213246815876046 5.293910453973262 11.609811364563813 -0.6898048666858185 -0.8589294615320433 0.17440666918077058
P 1.2673941626655465 4.100477994259942 3.7196800355989144 -0.12304785509282033 -0.48775498186648253 0.2920323248167551
P 5.177569641315905 7.594931937129168 1.3402511705059574 1.0127161404696172 -1.0855524077050531 0.4625849103587582
P 0.42342286534737733 6.2699470779963065 7.892017936737721 -0.20569159533698123 0.6191324398709209 -0.07481601666962599
P 2.4249124370476633 6.492963780502365 10.262029531074797 1.0690644373523588 0.9677025518734043 -1.7600566394780595
P 1.3752387475947572 2.178540383646984 11.321197476753174 0.8532648070470983 2.4834858790865426 1.2571941125461767
P 8.64958649371091 8.536659012717264 12.28247329640223 -0.8762129312028394 0.5461159383038788 -0.6700006874756977
