# total energy = -340867.9101039026 ev
CRYSTAL
PRIMVEC
9.24717242424451 0.00000000000000 0.00000000000000
0.00000000000000 9.24717242424451 0.00000000000000
0.00000000000000 0.00000000000000 13.53417156139339
PRIMCOORD
 96 1
Ni 3.3222223149313903 8.992292408376276 4.742536183170782 -0.052550006182574015 0.7890121677156153 -0.23786663740762906
Ni 3.8861611125345537 8.101225646453862 8.765703399260119 -0.7577640083346111 -0.9298052626069988 0.26117420178531797
Ni 8.21238590366445 1.6970687866282743 4.602822507591104 -0.35204855746938724 -0.0291478252085498 1.3727469448135325
Ni 0.8959825586725301 3.5148963952275207 8.250430619596218 0.9747273199306696 0.6929320994608904 1.9575142769410225
Ni 7.624839075393403 8.338360130765341 3.9470925797013448 -0.10870778432106439 0.929519870156096 1.1305407994902854
Ni 9.347781449882522 4.435295187419627 1.1238902145467136 -0.9984681151910351 -1.0400778203120216 0.7425322789865212
Ni 3.0031948734735048 7.291922381266828 13.114666062152358 -1.7891203896132348 -0.5147708483336941 0.7144383489637826
Ni 3.384529761323948 4.6738814777690445 11.727399737979114 1.3746230787903229 -0.5504477329100133 1.4619068889096565
Ni 6.098778244558771 5.181477255059081 10.505210233340064 -0.19110135622763216 -2.0988740429691526 0.6217657637287098
Ni 2.5768632456191765 6.6109606192680275 4.8281668473269646 -0.9537460896933124 -0.007206802161084362 0.14698791084818558
Ni 4.944194815992144 4.7428191466405965 5.3638629315475 2.0894794891281308 1.015188770379826 -0.7915981832752367
Ni 7.490422180059147 4.468548018708977 3.316535304018445 0.37977636240195883 -1.341345804794432 -3.684274616259797
Ni 1.5958954754111523 8.456381789760327 0.981538320733762 -1.7194383517360645 0.1906601549251555 -0.1681624880432717
Ni 6.942360777151148 6.64364937305219 12.198375788575895 0.867146707235513 -0.2502380144887884 0.910471081054761
Ni 1.399605750778499 1.7539204014132914 4.0209756362741045 1.4422868006858838 -0.7843664414134879 0.6441032508836455
Ni 1.8973625368305294 5.708371880764265 1.7257960518350302 -0.2203826216902527 1.4175026517626683 -0.4250169794073132
Ni 7.003419855294522 9.600414194828303 9.834117978247582 0.14259980908281894 -1.6292383964112007 0.04006858588611164
Ni 6.429734538175516 2.661678309185893 9.063144241896575 -0.8961520933289275 -0.47379337748006795 1.3146096743511682
Ni 3.800032950513141 5.479282436280854 9.473053816612207 -0.44110720010095644 1.008908850908385 0.30211824829784745
Ni 8.795207426933032 6.1924520991085785 4.527802973552976 2.033187756514937 0.963171239661954 1.9236523340862548
Ni 0.4685810329927905 7.600676214392548 9.340730481067693 0.5075221371910807 -0.9932372058093991 1.4038966309434597
Ni 3.1366315685528465 0.9460134592308995 13.379272970400857 -0.12626121982379546 -0.08833127754724142 1.5161386536700276
Ni 3.2266435429050513 4.6168726610563535 3.481936699297424 2.137278096668648 1.0695537182839516 -1.1469035571190247
Ni 2.915078569425616 4.209627196656201 5.652911965397782 -3.4914693899671803 -1.4201938254415862 0.4360524112858684
P 6.047872561508752 3.123426606628155 4.255779833187108 0.296057129705432 -1.3114808989141995 1.4729184095288115
P 9.172538289213874 2.6062045230610855 2.8730742143508827 -1.4188979894482983 0.11742048160371392 -1.7547354843754617
P 1.3276535037644759 7.513873008799355 3.2509081228002827 -0.6183112295212062 -1.0304922335061157 -2.5216947860560954
P 4.314221961593306 3.2897000102471186 10.261161638362555 -0.7691575948835333 0.214538761314966 -0.8126868856247359
P 1.1492570573701129 5.515429632473865 12.944406202591 0.11665197886880554 1.1353474768503093 1.034821971229721
P 0.23755985423342238 0.4893511065075313 13.0624241627171 -0.4702377989183256 -1.4502798461936892 -1.2937102051943397
P 7.891129893702467 7.345232329093053 10.325016136666878 -1.648659995470922 0.6532787467353265 0.3213243889126531
P 7.99981190875912 9.153054497354402 5.988626853836967 -0.06588091896352524 -0.10372164396038266 -1.6709905406473224
Ni 4.71926659900601 7.258151708333374 5.483531511914185 0.483001012121265 0.4454677910624974 0.8818459611189006
Ni 0.06391645435817109 7.40734558486907 12.169696608664662 2.1061924310074374 -1.7432619365182236 -1.4447632872508345
Ni 4.0836899582441735 5.6716513598938505 0.7267593071166084 1.2783591766595663 -1.6075439421569024 0.7584546066437325
Ni 8.078662546246406 4.429090334862577 12.463347960126933 0.7483568560880982 0.22994712545023624 -0.08773015362813279
Ni 3.171669104079917 1.8196677958702643 8.92908798627875 -0.5106228876035915 0.6023536777506852 -0.46956956920670745
Ni 8.516257229860031 6.417389563266928 2.352537019544316 2.2716773722185457 1.0497870771799855 -0.3639123987865088
Ni 5.996375059436898 3.1014645726147503 6.749640460993937 -0.47578341132690316 -0.5278238248629104 -1.2690276148459951
Ni 6.666869022486995 6.18030131481653 6.5797319939767975 -1.0631550138464594 0.28050684067565884 0.9888658162145807
Ni 4.105300599713364 4.0564755304119835 7.700090713454156 -0.7540824457179658 -0.9974895533278498 0.22143703109669605
Ni 5.145579732515906 8.047009475750455 13.435263673452546 0.8929772951453717 1.118035725044739 -0.3144844831726842
Ni 6.510286655350578 6.4061172603354155 4.214337706183118 -0.28103880191972885 -0.38950593098489694 0.29847730911115045
Ni 1.014451780802778 2.168988973508324 6.453729100642035 0.4950867396412054 -0.8781088626739716 -1.5253776557697922
Ni 8.415620254631445 7.668476481081511 7.479456883245212 -0.6950987680949061 2.6754482977628893 -0.4161531012587801
Ni 1.4760151348007167 -0.13412468469222466 11.221086543475462 -1.203342871053676 0.7056742296179073 -0.25707714889780886
Ni 8.827637259895143 2.0778211026290987 11.612061608361264 -0.8227866930628991 -0.11761331434081035 1.3030726202458462
Ni 9.156929062512978 0.05872231772434807 2.5962055557437407 0.012780439594119924 -0.6203817388969897 0.36889493960276465
Ni 1.238002169128702 0.033110424837220404 8.166613325911626 0.9249659322368263 2.036564900517286 0.004225350935257239
Ni 7.573813179104573 -0.34602918432910335 12.110552619887256 -1.5692278201855232 2.5573171632453957 -1.683964841419803
Ni 5.191713874702382 7.810004451850002 10.638007024102048 0.03804229948470222 0.8185939951377902 2.5081779825165835
Ni 5.532277980251728 1.6210292894947038 13.408939748304775 -0.3018783643728995 -0.8878726269289549 0.13182303018228908
Ni 8.69193500762284 1.4180353650053272 8.767693390721039 -0.40458442258457417 -0.7496218388434509 -0.5877775797087232
Ni 8.175129046805498 2.8331671179347766 7.14907391430587 -0.26472463814073766 1.0260077153722007 -0.442905943872592
Ni 3.976542973775405 2.280482128918693 4.388482302792486 -0.23128924130042747 -0.46162691732086303 0.1972889730955828
Ni 5.135953426238873 8.541159864638178 3.2867464634412733 2.276417972227325 0.03172998411342922 0.8336035811727451
P 7.357031720840887 5.2087564130967845 1.0224024994742416 -1.061639091422565 -0.7292946972503246 -1.0994250519220872
P 3.884524363052291 3.30942422858421 0.48595831902141823 -0.8704220355526752 -0.8506242841004577 -0.5949309029240528
P 6.480751187292129 0.029999676103700617 1.2212398200524495 -0.09818091664781156 -1.0446664681239684 -1.7752374609835555
P 7.01477538277598 4.6124710070814565 8.575819190821607 -0.009291709714571095 1.2906745036918095 -2.5877538824686983
P 0.6778010785353148 4.381402667743785 5.802627382446469 -0.6821365515072834 -0.3215128507743753 0.1050467905297094
P 5.055687971402512 0.7511699923328555 8.672683319785994 -0.192026696255379 -1.4014054890904897 0.6724915722183514
P 4.891772596698672 6.177351466879572 12.139921638845815 -0.9477909005511419 -0.07328646739897701 0.810613805145791
P 3.567762478787368 0.50394406898187 2.6941663993329654 -1.3665397875615561 1.9769461604133887 -0.08378659559935248
Ni 5.118883146327822 3.2072059869066605 2.30542452653737 0.12814686688228252 0.34783709049120093 -0.5968525454267979
Ni 6.024800866829406 6.858193015639564 8.882124372744485 1.6576871386701968 -0.3932954799343162 -1.934711420113894
Ni 5.7918553515318525 3.957012946054853 13.241900678826312 -0.11354582913965607 1.7552106242396674 0.005802979835022264
Ni 7.625171973593185 4.458070972588056 5.454339113944956 0.24391567181518636 -1.6188747937886896 1.5395601179177614
Ni 2.767465959338885 1.846540078330456 11.305607546965705 -0.11059317426923536 1.6158558044567075 -0.3722178333284106
Ni 5.159690917317783 1.1060172800872992 11.022540508822063 -0.6115019199088566 0.6119220381654106 0.01814787455362036
Ni 2.3128379845030738 6.80519747166869 10.988366659179983 -0.31524707237032157 -0.24279107129243993 -0.9342381015673717
Ni 0.9439328454822611 4.372525382416262 3.5218077317418865 -0.7411297422120399 0.3007303668113853 0.9675161468942112
Ni 1.1849603892967475 4.278592607044401 11.294563649187934 -0.9333664975956959 -1.2315846395081886 -2.109134544354897
Ni 1.8224511947073316 5.680149511160511 7.273805321460908 1.92107583160833 -0.0811373309019635 -0.037286395155284174
Ni 3.3965048493438887 7.634668819459192 2.0919091695004344 0.30138368412466804 -0.9823449843769276 0.5277834585432781
Ni 8.765838407974474 5.546074761198255 7.356917980622627 -0.29011865273381005 -2.3004336184156315 0.5089755818081557
Ni 0.7959170586869051 1.5488088744864115 1.1569682742811775 0.2305047977259191 1.0804623947766554 0.2200748606418468
Ni 3.450730267219513 0.24102292022837826 7.062401093840924 0.2923891939355416 -0.11275187248345096 -1.5552109370811409
Ni 6.452020223216487 7.131585662210647 1.8925641791675585 -1.0125155944230368 0.0411708178113549 -1.3313719814111717
Ni 2.4284091428607737 2.879856090454222 2.1516625469268855 1.2393542561512787 -0.3390081793456613 -0.2791780945619063
Ni 1.0099299135890707 8.747963624080617 4.870366317735459 -1.7908864803747222 0.3512893107058595 1.611449962079528
Ni 7.542881388041482 2.5694747550184562 0.6715666350271726 1.2499153194965764 0.13439027668883308 0.5388363739233302
Ni 5.878103726792076 0.6446018808448193 5.268934235727958 -0.2095153399584456 0.15115258374883644 -0.7921823379134808
Ni 6.812234569725196 1.2892592447229354 2.720774212667774 0.18526623760309383 1.387059761891779 1.3211541603379053
Ni 1.7064639135999038 3.376364508257069 13.444494200758728 1.667065237450987 -0.45759774155681193 -1.0374365260344327
Ni 8.279862519325846 8.030373812933563 0.4317735887035451 -0.5701431544564116 -0.030270368848767226 3.793965076209105
Ni 6.7611531904030695 0.801813980409157 7.4431580334278555 0.4956654949628109 0.18031866378983138 0.06837411769902418
Ni 8.567033452499023 5.004255199536172 9.950120054830554 0.14886275927339523 0.504247580204867 0.5037891525112097
P 6.743676034914507 2.952760796206511 11.483960531650652 0.002641551387905128 -0.7492117478892258 0.2742364342859148
P 0.8873540222776214 1.940824246246531 10.022135182615648 3.2845619199452267 0.7051674651848179 0.04467086054481339
P 3.515497461421572 8.762648133559896 11.699168121203146 0.8875774642860391 1.5152439097699 -0.5804957013353292
P 4.460049867442316 6.216873880931486 7.414478853516624 0.06521937412012638 0.4946650787227545 -0.12432055115765686
P 1.3388425821460421 5.629336299832655 9.368692080414949 1.023559253831708 -1.0357845922533064 0.6469016395643891
P 4.890367026521815 6.018429565172464 2.972401789993657 -2.001231515323315 -0.05054403149613875 -0.35057171581354457
P 3.1749333558722252 2.2663986856334652 6.645954693085681 0.4154966986217038 0.7835565439176827 -0.1799715648630578
P 1.4601099985889032 7.73454752656605 6.821655588779031 0.2654175504427042 0.07194923664479222 -0.678642936531728
