# total energy = -340861.6434883239 ev
CRYSTAL
PRIMVEC
9.34283912558318 0.00000000000000 0.00000000000000

0.00000000000000 9.34283912558318 0.00000000000000

0.00000000000000 0.00000000000000 13.67418944894451

PRIMCOORD
 96 1
Ni 8.30037435709595 7.921970692379447 4.689878141292573 0.7200204710372502 -0.7772830522041453 0.47485370042378217
Ni 8.343360759282524 1.3834502260767587 9.943104247932794 0.10694940686906097 -0.1477723544226939 2.2785846408613404
Ni 2.3872448470125414 8.487763678690412 6.88774364200608 5.061442572959161 0.33242872635593074 -0.4830879154081164
Ni 3.971332540369604 9.843148016445399 9.182792419595163 -1.2249992729811872 -1.5420777421332925 -1.019834239571637
Ni 1.9957144935170474 3.8718032766239894 2.447255770404152 -1.1796768948953038 0.7824160025553364 -0.7498126146980183
Ni 7.66956455426328 4.873028616837906 7.797186800563733 -1.879358397264886 0.6682726490409976 -0.3089324430062034
Ni 1.3441542452906836 1.2513985398118075 1.1557764513312272 -1.4148400173288407 0.9676871252544367 1.0079040637929544
Ni 4.171605636929353 2.6488069673375425 8.62361416328813 0.953813452596138 1.1681915199635236 1.6720904585797203
Ni 2.843894788258616 4.794455340943732 9.199201247710851 -0.23121313664685345 -0.5014790163207944 -0.2055167603220138
Ni 5.846085297501175 2.871091792554447 11.002170170041268 1.6823064798807739 -1.127871223077922 -0.5919396815062128
Ni 0.32059484847450587 3.8651698609420793 10.708011818768922 0.3254348115366008 -0.6221812539995736 0.6554248465440519
Ni 1.9662938935419285 2.4551299151037496 12.827469411838353 -0.3953382213959578 0.31336476774594413 1.3956541884290092
Ni 5.114886689735938 3.906951036899123 1.4887776556987025 0.4077857031306913 1.3138599406693372 0.3176482256126465
Ni -0.018598789574617112 5.503586163017884 5.6429411465202275 0.7994989261795521 2.039043443964766 1.262367172106684
Ni 3.418413986184938 7.373256415739654 8.701392363584374 0.015117829478044933 0.016425749656191067 -1.0022970020188222
Ni 6.340200023091558 1.0739873702571763 12.584575218096484 0.6000785085632633 -0.8848050437472245 0.042312387614965835
Ni 3.8335817223216035 9.776907288016185 2.463062919688974 -1.0887783708415186 -1.0026836959342795 -0.4322374084151524
Ni 0.5728860696711142 4.7430230123114585 7.72520583185992 0.8655996744633672 -1.9210205528903623 0.9534964355763513
Ni 6.391473523461026 1.0371111847691499 6.309449002844462 1.6393382038493636 -1.8600154739619 -0.24377297558973504
Ni 8.414730706316483 5.52766265909152 9.907976107619534 -0.5342605816271896 1.0465860537441847 -0.6923183771362916
Ni 7.061140193647308 3.546934079312196 5.95576555580791 -0.9927139863160774 0.1725552177943286 -0.4012324753932058
Ni 4.392806692823579 4.440959684970852 11.376419074259537 -1.6877752163048287 -0.39789415504859216 1.2439035660848576
Ni 6.1876501480856065 5.7705391014393115 3.1034668838790442 -1.6527665614401277 0.15899779082486812 -0.23944400919707795
Ni 4.811328508157153 2.5123361182309814 6.264296930580328 -1.0345203808289023 0.5040028111839125 -0.4811374765499649
P 2.088152542470311 2.8112135374764735 10.286367626645355 1.353911043053952 0.25374088543572426 -0.9994731594167819
P 0.8735535768668231 2.6946242497376645 6.294598560272074 -0.15163389426062918 -0.4065641720187643 -0.0910892999083528
P 7.922876947761342 7.078106789250614 1.7984161568912704 1.4378511335120334 -2.28463547504111 2.721862366251054
P 2.015381169588062 8.215999178189854 10.277192024474644 -0.4422852795694577 0.7815950493159378 0.30357863489345777
P 4.874177786033504 4.321941259095006 7.498077678911323 -0.003717043840271018 0.5672486065174359 -0.9383282124763452
P 5.518441277009766 3.8210903465938384 4.281388666464963 0.11913437897102709 0.1393638186440245 0.12894005220753924
P 6.3899319550279055 1.0754728816563646 3.7601965249178035 0.8540525930557162 -0.27809591724132104 1.1208533969991923
P 4.571666002421444 0.004240714616928068 7.045175150383578 -0.1930271124954353 -0.5307813648293375 0.5611610055624593
Ni 0.41918141976617074 8.46720943291548 7.251162327268759 -4.86513498994024 -0.5469852282827096 0.7219238587075502
Ni 1.2253133333556205 1.1103590424398178 11.234659244001527 -0.9432259068882788 -1.8903030692018477 -0.39279874280355576
Ni 9.405249153049457 2.417422216945737 2.7578649925676366 -0.6656244127848729 0.2877959181379044 -0.09670870297765925
Ni 5.415529905550276 5.068947950428964 9.400895390080766 0.8861224770070674 0.9228110906773528 -0.02789852618248098
Ni 0.5355240565556805 6.025000664132972 1.626024894725217 -0.3357073971072025 -1.6454908537143211 0.4464018728409924
Ni 3.7008012946155415 1.7454572083682585 11.30104758928676 0.34076064326039374 0.5114392128572999 -0.4946537658688449
Ni 8.379330689388656 5.438943060055721 3.509357180900025 -0.6763101746334933 0.5766233628641166 -0.5735002438541026
Ni 2.022182756371767 4.565004558222568 12.449214298261767 -0.012455966375165644 2.0395211549321326 -1.0435454671456479
Ni 4.579074873739408 2.3124554209087536 13.547347301601096 -0.9039075689046303 0.40794819685048456 -0.37939712468566916
Ni 2.0987099505274354 2.8439695309705244 7.962398090967042 -1.4348637687489352 -1.5852478497628635 1.7339841107607232
Ni 8.046099651182061 7.4008084479170515 8.40581109793406 -1.0571052081079535 0.3619552750601379 0.3362529851980274
Ni 1.7075346249135086 0.8721035682557916 3.5423402053814987 0.3557095512607423 -0.4825472124132979 0.7532226688208319
Ni 4.3075626298915415 -0.014432817669597886 4.861516370636146 0.44345538861815886 0.17252153634291575 -0.8820225959060809
Ni 7.556142488941608 5.110364755665453 1.0099711717911497 -1.4186588768542987 -0.9363870295895744 0.9561670404299791
Ni 9.102896197700202 9.212758641367216 2.8858833752412063 -0.6747109484671735 -0.6152215348522889 -1.4875770399822508
Ni 2.7870809843689055 0.41896279733383734 13.527205075025561 1.7508487477265458 -2.094158125550722 -1.4672668676699894
Ni 6.474148305671196 8.30472812006464 3.0085408369031152 0.11323189744366305 0.5559426945863135 -0.8058539218633025
Ni 8.22787392654437 2.5019375384366627 12.544304779203896 2.209090036404628 0.9266631174335911 -1.0211010220992027
Ni 0.3189439688252193 7.951438006549509 0.4508583153570379 -0.4887535983343261 1.8295170482627265 -0.7048846438370763
Ni 9.022603839432128 3.479749724145133 4.800502026337157 0.17085983236977673 -1.4828300122155689 -1.0600084977976776
Ni 7.0823297524734645 8.427334196112112 0.7120299050123158 -1.3251159731991307 2.585533220668295 -3.6891784813193174
Ni 0.9818950063464911 0.8057105515510639 8.78816865211054 0.8693830527651996 -0.7522973287930851 0.36125053568362947
Ni 5.918183985976245 9.662644367185539 10.28701041396777 1.0757822156921666 -1.6134543941040667 0.9652353212798344
Ni 7.8819833415082154 1.5232471258632636 1.051992458710201 2.0044708481962186 0.5104259411014371 -0.03550153534071951
P 7.042501229865039 7.560720480046024 11.96095005844605 -0.23096245408862803 -0.5616657131130198 0.4120231382508065
P 1.0738285419943698 8.667379758246355 5.2111926740304835 -1.0911748960981529 1.7144696948768794 -1.6621821983270728
P 8.60087743032546 0.3848941349618872 12.953149281913074 0.1609276608577293 -1.0667105924082017 -0.40183617041547576
P 7.590953907013152 3.481394063807128 9.849587101076347 0.05738882233211407 0.6833768516722876 -0.5934664025633843
P 1.844033502537036 6.231066320865656 7.012534073809087 0.9857529816172121 0.6649024470171839 0.0009767620909725114
P 7.320291861513248 6.1740750030351625 5.663288915553513 -0.9475983249243615 -0.4570385266192322 0.6991716526126991
P 4.305955661585501 7.464442524268444 3.196793436820124 0.5328302769385662 -0.6533499662928941 1.49067059130591
P 4.888920785957523 9.284633101706559 0.004234174629636045 -0.2840894158205946 -1.2244259169762202 0.11676356474600535
Ni 5.839433196141289 1.0844513499244144 1.6513224998546643 -0.38570095541650995 0.7127105676393983 0.10236692970470113
Ni 5.79467165454688 7.54338951372216 5.035629518027799 0.07345333199414446 -0.726308360928491 -0.06107475582413352
Ni 5.784375845981436 7.229395380993105 7.312942784364811 -0.30756024524902514 -0.1693912182440502 1.4715927487388527
Ni 3.619845594779274 2.5197636752269226 3.967812158638698 0.6098787824831368 0.1330682154432999 1.2037951280997463
Ni 4.027417602818204 8.704022372759665 11.519615833153997 -0.515216677621861 -0.1216077802121841 0.3449991068217736
Ni 8.526246832484478 8.588890567903078 10.86613936865107 -0.01346666702786713 0.27066465777425647 0.006684353998711068
Ni 0.603774429651343 6.86922893798236 11.453035959669498 0.7433714870583649 -0.7877811235219917 0.6240725574850154
Ni 2.721942710940347 6.344992899492713 1.9910028998150937 0.655911042151851 0.21098318275322375 0.2866209239931967
Ni 8.59324433087177 2.398232025663141 7.954645403174298 1.4326204812407133 1.8060269355605862 -2.3309166174958373
Ni 3.333898664694012 6.443027309000151 10.77869319856942 -0.5261420662851132 0.3053634947080225 0.993604873561463
Ni 2.495098580297004 1.1798230503201002 5.68866780338216 -0.943716473371452 1.412576932326277 1.6719817009159978
Ni 4.805975061416683 7.1186079962662205 1.113922401230072 0.8096727813887604 0.6017026744302476 -0.3320726285680926
Ni 2.9632121849820976 3.903083101557841 6.180515021950008 -0.17652140153092824 1.7735659868184035 -0.997135769532857
Ni 0.8837540884745827 6.635732705979129 9.05012504024086 1.550680396200639 1.3361897145147892 -0.062159761358196175
Ni 8.453849173161773 0.9528574627699049 4.956442417612075 0.28170883140355996 0.9616938837854792 -0.11144318097435646
Ni 2.5301248836652865 7.237916050150713 13.408075469365752 0.25194162744345644 -0.5619356789449549 -0.6856304235931547
Ni 9.159822115657777 5.063669246400402 13.158740322425137 1.0534123326373988 -0.007576012575045016 -1.6943983780483012
Ni 3.8138589892166577 5.047823791475727 3.8792037393868637 -0.5622606663845413 0.5244307400209614 0.20335754788716592
Ni 7.130286545001978 3.2049861723292326 2.9579325466696367 -0.5554472430071338 -0.2179873819851988 0.10180565788459241
Ni 2.039906121933152 6.944532220230521 4.307752289523011 0.2561780341223072 0.3237921337268553 0.1281782343408502
Ni 6.442139739296234 1.8647465765747744 8.693310807859229 -1.163767422753899 0.5135266915139478 -1.19081851333442
Ni 5.011106434250507 6.528131229347359 12.470012392134304 1.8596583477327973 1.7155408164538715 -1.103211515547713
Ni 7.183877069440618 5.307582743875928 11.749929894197708 -0.9854380214799545 0.05205738281687164 0.7948442010163601
Ni 3.7606234926595827 6.668329871210374 5.954644415129278 -0.23390199633292622 -0.9502655873438794 0.4735707199463005
P 1.9036595009623167 8.51826804798821 2.014563671176559 -0.6578938769098347 -0.21318224728707158 -0.8866240992338343
P 6.554907805888703 3.657917663657842 13.00275882265867 -1.9608307429087648 -0.14618701221344502 1.4817660897274287
P 3.7817009374178774 5.2060260840697845 -0.2780587711271824 -0.44072564839182166 -0.3158818777408431 2.147609817611959
P 0.3196857902409146 3.4604474187946748 0.76626601962507 0.41448214131426037 -0.936024504043833 0.2892938428396695
P 1.0861984608152837 5.101862772185822 3.8397947102490266 0.7553569415550152 -0.09602993174307978 -0.30763069347564437
P 3.4199929259740127 2.5330024780737768 1.907877792765672 1.4601012031594853 -1.601266850898939 -2.3171866695042547
P 5.363705177680481 7.429724534586786 9.680136030340007 0.1943607437051943 0.2934574872990559 0.1259010082708993
P 8.006000186242966 0.27278754136981115 7.944074915142589 -0.4108430018997763 -0.1798790051492515 0.1934148348521572
