# total energy = -340893.6903371432 ev
CRYSTAL
PRIMVEC
9.07506837581153 0.00000000000000 0.00000000000000

0.00000000000000 9.07506837581153 0.00000000000000

0.00000000000000 0.00000000000000 13.28227988997382

PRIMCOORD
 96 1
Ni 6.261706474209312 1.9049294664970917 11.241576773633824 0.8162997997869748 -0.42930763636286706 0.27144113092896477
Ni 4.327373785960545 0.28153040323122214 5.9505414349811465 1.4642558487578072 -0.5536996641884078 -0.13451163275804576
Ni 2.602003623654392 1.557653822431862 4.657112767768695 1.2019562751187944 -0.42048181054112094 0.05246104601319352
Ni 3.5691518176418913 4.090369298532539 4.922465953995432 -0.4852687251095191 0.44840244821078906 -0.6394007032016537
Ni 5.278695060585415 4.564977227905716 2.6891034080389757 -0.6976729565799855 0.035702338497615935 -0.2701836043727799
Ni 7.38571722621462 6.174213739361195 2.654649910699397 0.19377016130904695 0.09721341052821968 -1.3526221490391996
Ni 5.006007404043955 4.723355322353318 11.504473338833344 -1.372311914158643 -0.03318805671619446 1.4479537691636741
Ni 5.89893061324536 7.781072582884903 12.418679398544635 -0.7895608411302337 0.9540780191114342 -0.8214216943945724
Ni 1.817373206169882 6.344870401410654 0.3447836302710907 0.029874418961929196 1.4036225513464666 1.622983159530108
Ni 2.7340186442783474 1.8306137310265775 0.15974207723441583 1.0773315624571576 -0.6617343337018474 0.5472616218725479
Ni 0.5816565292066902 9.166726633137909 4.668203408911511 -0.025145903138008303 0.2582904524796197 -0.15503546374301042
Ni 8.312762692757476 2.3062652932705707 1.119860723206839 1.0575394674318948 -0.3288386950118272 1.7801197287765214
Ni 7.008875009165762 0.7190349152797936 4.792963819823031 -1.1652378366518383 -0.40550050664094034 0.12861300788542365
Ni 0.7212755496780926 7.599661964731823 2.379267866337545 0.4055413871812048 -1.1304541533137498 0.7749916850668072
Ni 7.703008844147894 4.053706022027364 3.7222926900916873 1.111215359688796 -1.059907453443439 0.6017677233402281
Ni 7.456747786909176 3.6109788080904934 12.663432179408312 0.17443623686712537 1.0387197636222305 -0.8249567041310244
Ni 8.1236382664288 8.988247262091555 6.906785934235733 -0.48160438888405444 -0.12821962910174692 -0.00930533656132591
Ni 6.715160419044478 0.6681746017041494 0.4081076428448059 0.8308972379851755 -0.06548933995206141 -0.43394050714918814
Ni 1.7894764457795582 6.467093423185826 9.131076134270849 1.1074960018556799 1.3298529736634839 0.44860479402958225
Ni 9.131696868952272 4.7362328444723385 1.582928795549328 0.7966701984815053 -0.025663723314691286 -0.4683282406004386
Ni 6.249591257839409 2.029548306340919 7.047975849054424 0.7731055237876878 -0.38375951541942294 0.42818277872980454
Ni 3.6048712870291117 4.581194375211346 0.5081838675944264 0.4597438413655373 -0.7889741153888283 -0.3431155166458156
Ni 6.086539503144241 5.570440360854811 4.72396244443208 -0.2120188231065897 -0.2340189815267647 0.9732376227590206
Ni 5.238519732593234 3.1368972326869446 9.194671491390976 -0.9509312459523364 -1.5824090947624876 -0.15548977767160965
P 0.06010690081107051 5.5124415984427895 12.471277587726895 0.013208785380790155 0.058464314784479963 0.846468095840239
P 4.071865233979556 6.383167190235367 12.774776916642208 -0.10303027432031288 -0.4112235251676466 -1.0364358526840602
P 2.5312543900815347 8.48974467751092 1.5704033860858522 0.44584188657246443 0.0057258467401836875 -0.48366564228845743
P 6.349371635357824 7.752395366608579 5.913310966698354 0.2096292398284906 0.2912357970573888 0.5613453536591236
P 4.818752441814308 1.0837718985340348 12.615669186691882 -0.5609139225486598 -0.40765766219325916 0.6931002496076386
P 3.915420129110073 6.153722234819441 8.265801936091304 -0.7517597111220601 -0.03705345320887167 -0.059411766299413804
P 4.894574638646173 1.2103509531613068 3.7580348471500122 -1.3190216873759348 -2.018308011189627 1.1045307485797689
P 0.3848291847845524 5.751996180102963 3.6638773820381823 -0.1456149417600589 -0.2971861011035527 -0.07504613040256107
Ni 1.7022559629846978 1.396607657862349 2.3731848479609567 -0.6360256160818336 -0.11067442112913196 0.9553445445286838
Ni 2.2047878779535246 6.2874705935157955 4.889672286673872 -1.1741641926071908 0.23603112686078703 0.11488408833510537
Ni 5.751006997642798 5.500172105909374 9.421824992025327 0.36929757435782207 1.4944670822338648 -1.046901013881442
Ni 8.765998835950036 2.4126976959568798 10.547325870268791 -1.045990843362347 -0.11503758319383414 -0.8440456024416754
Ni 2.6087463995067055 4.790565279233844 7.0511503079953926 -0.47512495180729786 0.5531368497064023 -0.10177994685297956
Ni 0.6925148427721024 -0.09958254102638245 9.031977294392417 -0.6081286325612495 -0.17265446237635426 0.8681949459943693
Ni 1.5393857096583679 0.9663405128961726 11.562424003382626 0.1096315816869144 0.5065903694054307 -0.532435869713625
Ni 4.343953936003851 6.845741578854617 1.6721194757029196 -0.29896607582211093 0.8636425507369964 0.3472709335750858
Ni 5.531789644360866 7.640018794092841 8.127134890299454 -0.37828923633347106 0.8708910047692937 -0.8452918161439507
Ni 5.509755378183994 2.868810635845516 4.907257954300538 0.14298521744669568 0.4971166255870407 -0.011273516031290261
Ni 0.7450340788589211 7.223709104390268 6.725868092299047 -0.020508147255680807 0.12894030931785536 0.41536274414700075
Ni 5.206239714145486 4.61301156516856 7.200895289834239 -0.7274980103612181 -1.375137556532896 -0.4419338097673099
Ni 8.062127452529772 7.255208666952017 9.073669973828078 0.38619152189968325 -0.2273425979478536 -0.3729246295874481
Ni 4.518122649540316 0.3331675426654907 10.421130691036609 -0.1938714627736016 -0.8127560482997745 0.40388379697312377
Ni 8.087592094577673 7.415710327415017 4.5614806040350615 0.5521932548462103 -0.6809232479254724 1.084136758304449
Ni 7.156589898194161 5.923161045985165 7.01627118994589 1.0857868923133622 1.1800702736789805 0.503489876103236
Ni 2.4161008466225833 5.184287123584589 2.552362999277336 -0.4256697824999636 0.5707378506176171 0.5523117827019455
Ni 2.214189648859307 5.311764609987607 11.643153997227856 1.0390282960015849 -0.7466609564429141 -0.7525570102123749
Ni 1.2088263416630718 3.3861802877168086 3.84808947381927 -0.4760538913794704 0.7821326669869627 -0.24882133664691988
Ni 3.7850113956003297 2.6904310905520217 2.5252267296224415 -0.4755615251240842 0.6224517340521409 0.43464756051854175
Ni 0.9239690183410584 3.4798712943107257 8.246741569842834 -0.19107538808570318 -0.6133677694730016 0.20980561750535479
Ni 3.8391623289929977 2.4790999717460793 6.92419826805516 -0.8723621899981815 0.6354792566600604 0.05723995545907561
Ni 4.317100808484343 6.539630445241733 6.103233999049914 0.09689767906001377 1.4853278389367581 -0.08134713291992442
Ni 0.6899974187863263 7.48972658562695 11.700825149669127 0.9124562298055897 0.2780825475048823 -1.399056786352655
P 0.15379518488445515 5.601685821500187 8.200453275748206 -1.3113410309022255 -0.8489723503193314 -1.7750286874068593
P 8.464942515459276 1.663986399365311 8.278433523855549 0.3241127502910676 0.3421973757069203 -0.5387641259244978
P 1.7604725270393258 3.099934478923188 10.640978761575251 0.8355941292402125 0.7528632285988841 -0.3124049749358362
P 4.02319564192578 6.037107605341348 3.8018801328200866 0.8813381682445466 0.3540262500210483 0.3057949258184862
P 6.711031262903425 3.906898639843152 10.590147488218621 1.506401885998238 -0.31112199445835453 -0.5802735580221943
P 6.264193042962385 7.7477670817032225 10.1721280556216 -0.48323755361210324 -0.6129178264197767 1.1855328394554485
P 2.3164928954045636 8.588209170105264 5.861961506933694 -0.40178706234509515 -0.866256848431392 -0.6533489378516296
P 7.007159821230247 4.143140821522041 1.5284448071448433 0.18801731798566976 -0.16504219724673513 -0.2166745767110462
Ni 5.325685764977444 2.9313741576838024 0.5788586856060602 -0.08871180081511174 -0.35643820189665065 -0.912972507320376
Ni 1.328662620438031 1.1734154246028758 7.126368105269029 -0.06757836127060621 0.6914866252636155 -0.9161038538605061
Ni 6.77445691624369 0.5947754481462647 9.104750268227813 -1.0925967161463441 0.411354394318556 -0.6191897754714175
Ni 2.6804394401975173 1.6637413725173804 9.219921054316805 -0.3396699812993763 0.2910447640925052 0.45498421519336485
Ni 6.388358129384119 2.2030273146758006 2.6679321808709253 1.240808729209618 -0.2646531614728539 -0.5239234613672397
Ni 3.898604027287279 6.913895342853099 10.483292187342922 0.7653683030444303 -0.13616768030423002 0.13578972813952098
Ni 8.261715432771927 7.418469148221347 0.1683724673226389 -1.0400549374938863 -0.560688179691099 0.9224333956229597
Ni 7.455141499794964 3.7738581364852655 8.464239197655031 0.989703738734844 0.011921691138250437 -0.2433582566498196
Ni 3.2304793384595594 8.40179818924071 12.59630299063692 0.11073998425974478 0.34152940310561825 0.4874089113809735
Ni 9.38951956338594 4.873475104518814 10.286368647195298 -0.5657324269832257 -0.5335039059668232 -0.0533961562329532
Ni 8.540501535306326 2.294857932239134 5.783250715816779 0.4233228795343419 0.9574968149849961 0.6615803246224865
Ni 3.8124090272263502 2.620879766013492 11.408841175099711 -0.5123339567574273 0.4321469055838751 -0.5372122080563457
Ni 0.8617703142541356 3.3647722012624253 12.711009133221687 0.35618006313925754 0.35718459314437195 -0.39565215309195084
Ni 2.8452789833757346 8.58436134108591 7.981255887616847 1.3323389733101314 -1.1199679090704453 0.34393158478920766
Ni 5.7880695771594155 7.696120867200512 3.779685237931793 -1.5654832655414266 1.2763151496463436 -0.6815248860652133
Ni 3.12593455000916 8.360660903993692 3.726742196148739 0.6142113484202196 0.05440042912775147 -0.3377066869254184
Ni 3.193362308532291 4.4762230585441785 9.527804548796388 0.18143503678246173 -0.7375289122346588 0.013085115318732304
Ni 7.361722745254303 5.939786571370681 11.209619827622605 0.006554513289066131 0.6393312834162989 0.9805457263846596
Ni 0.6971794279512261 9.27199742706366 0.6232521054100242 -0.17097501779140234 -0.5346089661055438 -0.6988109268391707
Ni 4.650536973175713 0.5206502891130299 1.6581865231241086 -0.9236914363997769 -1.0906064251891927 -0.030350073046767085
Ni 6.156163428230306 5.7482028014942586 0.2525509871757828 0.1356801991448502 -0.3418592756412112 0.9244463122879305
Ni 7.967565239365435 -0.17319495869265128 10.955861856344054 0.5257846829456945 0.41767236611678393 1.383528608810069
Ni 9.15647180579859 4.978709598170797 5.786703779358913 0.3521300614396 -0.589008881012663 0.19830918682998105
Ni 7.965060520475476 9.029865525965993 2.6606929987748416 0.04441632133184609 0.8714710456424798 -0.45343409709742555
P 8.670837668268534 1.8806173581413086 3.596509518966768 -0.3310714409970879 -0.4757978095046063 -0.6265261612318306
P 1.9642259636963026 3.412044232776152 1.3784611510059757 -0.8195165069520596 -0.15198870649688662 0.7996493357144874
P 4.555130778646282 0.9799803407643107 8.341644098073742 1.4239517498221217 0.45302606302572945 -1.222038133470334
P 8.689486933916589 1.354208938101909 12.466362530658776 -1.8311445565638205 -0.0026880883551244025 0.05748858113477196
P 6.4459485137162575 7.867213132535181 1.6125489114367637 -0.32920302032978144 -0.08216654349742623 -1.2326827576683737
P 1.792616419460447 2.992158966107481 5.966984551490981 -0.4050796170534378 1.486841447367807 1.0318423197761069
P 7.010109218473857 4.010517771312481 6.001969847841253 0.610789210112548 -0.5128916290331103 0.19733576717311818
P 2.348754763715429 8.42590157102233 10.425381453094783 -0.3735704907015631 -0.21621100681106636 -0.8107055935286489
