# total energy = -340868.33021406346 ev
CRYSTAL
PRIMVEC
9.26736644356450 0.00000000000000 0.00000000000000
0.00000000000000 9.26736644356450 0.00000000000000
0.00000000000000 0.00000000000000 13.56372754991246
PRIMCOORD
 96 1
Ni 7.462296371483864 4.922639550292029 10.557896927451647 -0.9936534674112113 1.2254980669944764 0.609797278512924
Ni 4.29703673113089 8.344169666725099 3.5160164747277296 0.9700067745265487 -1.6501291238172808 1.390351031048541
Ni 9.210205033220054 0.0839651175072685 10.779975456130105 -1.4977231272773173 -1.1150524740466992 -1.2655550829163622
Ni 4.903168814015882 8.510982257382233 1.3174515517552994 -2.3892174101192594 -0.6152148499840695 2.605170535283249
Ni 9.140032536750287 6.22411138259899 5.290437217539027 -0.5929647803366175 -0.2727598497403883 0.44937432520575515
Ni 1.5202465449537923 3.310905566728947 0.2739896801543429 1.3182097329976008 0.5185886794178876 -0.2777714440223668
Ni 3.284132145928477 5.91461842273312 11.78431514153889 -0.1651481266969801 1.5476349245060959 1.5336429811023782
Ni 6.874782427189437 7.9670063992493185 10.97605253560819 -0.5127749009495879 0.2022702283602581 -0.20339611443458522
Ni -0.08478713288456224 8.571034790018802 13.254705110091724 1.398726656706746 -2.6919288119164158 -0.19911805588452158
Ni 0.29200451320869864 6.570599668126153 8.027461135576694 0.9041839624944686 -2.795873627631198 1.3468358813747257
Ni 8.428484163936133 8.175726019625985 7.07189652493944 -0.5883344806534577 1.0342907813165994 -0.7870162203315091
Ni 8.82892705517473 3.0494082961415936 4.761112138548882 0.7921561126612358 -0.12025537994934775 -1.7172210323697714
Ni 7.779546116815291 0.9076986644848037 12.865411787065327 -0.7881282224487652 1.2604900096886293 0.18034977413808295
Ni 7.890837916882042 4.2837287933429105 2.9106267078711614 0.6783822266711736 2.3616569840024875 -0.09255894247534383
Ni 1.013071397793071 4.814656199939978 9.852311178016873 -1.2383019036273641 0.09195679011497065 0.5044033890564411
Ni 2.3109567594009035 3.217064217118161 11.478087074766826 0.7808185761612294 0.004450836682502012 -0.4437685489832035
Ni 7.9508719147863145 7.733366831301708 3.6792018182746853 0.04810868258176876 0.9459535902320871 1.2291534043588768
Ni 1.6476264926528095 8.08775091278664 6.99994098722287 0.6667664968091163 -0.5337846704320355 0.6488536210844374
Ni 7.573171140073972 2.1025244273748145 2.922046883174872 -1.2103969496869798 -2.372860566027791 1.0105774968600596
Ni 2.557894997770348 7.80277940374737 0.07082121210010107 0.36308707467173595 0.5520762696523718 0.9083890017147517
Ni 4.901417281813983 0.7029704987079177 7.586518000799773 -1.552593296952636 -4.6406170059253755 -0.5751478067598547
Ni 8.678665980457243 6.731981582220783 1.7420841221124117 -0.17918814972981398 0.5035904062368425 -0.38130051235596907
Ni 2.789143585251874 0.22987423708183422 2.158951566374434 -1.5733014760342645 -0.3018372267223189 -0.06899761021563601
Ni 4.695431534450865 1.613161157949816 2.8164674876015128 -0.8847664771998053 0.714745595791556 -0.5879161621691165
P 0.5694499941994885 8.754185747194187 5.230647878101051 0.5593339796560497 -2.7520720570652153 1.4836604785366643
P 3.8864924107913885 6.066575425455622 4.313468698047233 0.32791901141103524 0.059502269130691086 0.43195432995709476
P 5.896750940800512 2.326118170418407 7.609115546414126 2.0284193885920163 3.4804159603664964 0.992355060314762
P 6.222776881873733 0.2660864703036538 3.355543689252181 2.0516485343232858 -1.2113235752663074 0.3236530370458297
P 3.192802252543696 8.864087442338796 8.625513001917577 -0.2071730649785142 -1.3820751641929938 -0.847925911332688
P 2.7499889632781853 1.5881207346189505 4.031017912600115 0.5897871539395841 0.2968230613371791 0.6865819888731466
P 5.028204118079553 8.37444615192937 5.898078027632851 -0.4467582277391467 -1.7535710317537154 0.3682025415214304
P 5.426737931891741 5.773355960544971 11.496425338899734 1.2446106194542115 -0.2990475797923237 -0.15340152768401322
Ni 1.7470745987829042 3.1919311201258194 5.602972653711159 0.23793657141361604 -0.1371282444452864 0.9536393889121189
Ni 7.727871283176169 9.051825745757252 1.7433185352832745 -0.23171604442520097 0.9075173977430757 -0.6921697673735693
Ni 6.106758725071697 7.542023522451827 7.5571256223259855 -0.7396475012395585 0.09945875491897065 0.5988726611806202
Ni 5.1440276601924895 6.341371366464808 0.3243253793851331 -0.9093801619834273 -0.4394874051093463 -0.8361073214312051
Ni 7.495288194969387 0.8463190450158965 8.432962155258663 -0.252158628550269 -0.23372407599416523 0.4096561806805267
Ni 3.7239242738298635 8.495487221183415 11.549038956729609 -0.48910352547457703 0.24344027484066463 0.22879707100619306
Ni 8.671511573791282 4.523651635538608 0.4816843298350816 2.3031142505715883 -0.17414467376863557 0.9376481556901852
Ni 2.4246858767644786 1.2641799509289438 7.15505630832848 -0.692079264542292 -1.3428648125421196 0.15864323569892677
Ni 3.7671009327116183 6.460151198378835 7.821875738431153 -0.2153669136432162 0.823588105918272 -0.7422157761873669
Ni 3.559928962481605 6.015614179009868 2.1455648559741993 0.2553185143354893 0.8328091102959077 1.294840976364673
Ni 5.195220590791934 0.9855102508700535 5.263431185848251 1.139032124790748 1.7733973224510233 -2.008032340295232
Ni 4.035882353090999 2.553696880905477 6.424065928073238 -0.11532220431378849 1.9542201795707828 -0.9779797654296963
Ni 5.702822036795446 3.293696067792819 10.788506993405603 -0.47558929303822606 -0.3623139439511373 0.22889143049221222
Ni 4.426807659295994 3.9288072046214144 13.05263204471613 -1.1746614439585834 -0.39100976922393305 -0.18426993512809556
Ni 8.981810794511995 6.712260627058651 10.730658240438938 0.6758154943852619 0.7086893622951472 0.19514724416223164
Ni 2.9785407472107543 9.014978697954321 5.392341175698241 -0.19268592710593266 0.7867426549551483 -0.9388704581330605
Ni 4.978271549276183 4.663523992804614 6.049137022575649 0.0898662261345291 1.2816427325068442 -0.32754954388675844
Ni 7.3870268236329055 6.904243384172716 13.149341644149604 0.29070537847521544 0.5475608982805216 -1.0578968507713136
Ni 7.531088030397637 3.4005395321087137 8.948804143240636 0.3220890349928195 -1.582667747740513 -0.7498532381279667
Ni 5.131424042231728 0.16664114438340324 9.779541965552541 -0.015851879430592054 0.7473394705671774 0.81277096069811
Ni 6.232266664808894 6.644747864673249 5.264123458099478 -0.44950468013603234 1.0731792308516808 0.8628431947641527
Ni 4.038625493470695 2.5849371721890986 8.964701383130262 0.08781088626739715 0.35423579492869317 0.32747292501255215
Ni 3.283789253381015 4.920155896164468 9.893599147677742 1.648724015939638 -2.2145343473486507 -2.8037969962433325
Ni 1.110527020201428 1.2303725992224313 12.170081305009504 1.5545715037249292 0.8207539789035864 1.155430106532797
P 1.4645033375758667 7.8312580199190025 11.607010038929422 0.36069209207699815 0.8416004833352925 0.37056461399570373
P 9.421853141299367 1.770622976164003 6.595742032484643 0.09163385955791316 -0.19558536014091477 0.4472169125431202
P 7.023227098141992 4.68431996243987 4.9537306369806755 1.028119619508881 -0.21619943684684054 -0.18110079337149454
P 3.996319967006816 1.6974385856962593 11.175154483396856 1.312301595043282 0.6389708147530867 1.3513785064400854
P 7.697001686538452 7.266634470009193 8.92666903919705 0.08456435430564146 0.21325346684463917 1.5357659409826518
P 0.8678054334291501 8.237400341338386 1.8660434849663428 0.8014089987180714 1.1163102577132 -0.11671497089625707
P 8.455554140453327 2.4349911879206307 1.1025116752203528 -0.21952130213122195 0.21052784038336 -1.2298013223555206
P 0.03470721295944629 4.343873999640954 7.857820144771307 -0.29972635102690315 0.1281743776861083 0.4409030545099504
Ni 5.572689681350586 3.430195103781093 4.028223801706607 0.8428179006821614 -0.8601455933273314 1.904566006878765
Ni 7.9584896897596575 0.35945611097752556 5.243669454275069 -1.5257370959917402 1.8332502900529137 -0.16007071217407273
Ni 1.4379430661967918 2.853996613552909 2.7291707519641752 -0.48638226988867206 0.2510916207383353 -0.7013421779014567
Ni 1.6378772234655148 7.208296400109934 4.094441913041186 0.890344485508215 0.10386254041362113 -1.5255342359523145
Ni 3.6496277994244055 0.8399032474319 13.540763681180112 0.09385734957179319 0.08495876153058272 -1.5450640784551264
Ni 3.235024372712246 3.9133307031548914 3.9414024819526428 0.49549914458827565 0.6447465408945993 -0.23529759112887216
Ni 1.5033336017343883 2.786159493352341 8.623844876011006 0.5280259135713874 1.0773341335603188 -1.332466500026931
Ni 6.81142144483817 4.299575989455338 13.008347008843122 -2.2872019502167062 -0.24678965092887176 -1.945668947566662
Ni 7.4549010132980635 5.5384838328997255 7.012867109525569 0.7361759977511901 -0.1705073341263644 0.6688323781992094
Ni 4.664839958797576 7.064587353258813 9.727104427679471 1.1365651513074941 0.045418023123483066 1.9037669080162374
Ni 5.521135323471384 4.169415831912035 1.9985612604576 -1.4630931959082738 -0.13978059446646893 -2.063402075314788
Ni 5.718734104470908 4.8827157369280885 8.536128328687182 -1.3165333737364424 0.0774511402996279 0.39900641427616446
Ni 6.049866364291466 2.1763019292760055 0.6632450069795359 0.22496072797923838 -0.7442178942190603 -0.07095961903801327
Ni 1.0580273909751687 5.259804865474688 1.9604065872912393 2.101683230283174 -0.5879431587523101 0.49223024402901683
Ni 2.176561415528139 6.932592257218282 9.719441242612005 -0.4091509589093341 1.6984992875905525 -0.42390497729005705
Ni 0.7122647402173644 0.4508860919167008 8.5468710595255 -1.1445553686018224 0.06624498717116334 -0.5890677592750564
Ni 0.9827763778565061 6.199135830831159 13.034606090822399 -1.2194413192774354 -1.4517191497433772 -0.4336785117370531
Ni 6.201026373525273 6.291772422842754 3.032645484253781 -1.2156782526905774 0.36243144336560806 -0.5263045600049064
Ni 0.6577151695992519 0.83151720780492 3.7153352788842504 -0.09643436627035006 -0.057420704011314015 -1.8490427770004803
Ni 2.422053944778555 0.8683531347684743 10.116655383484773 -1.1665159320333136 0.2507375798330262 -0.04951661867288892
Ni 0.8022239901489125 1.0931321739423479 0.8217799861936173 0.26072657272493804 -0.14773944430222943 2.122017313854836
Ni 0.22382357372405406 2.641208619437439 10.417728941205532 -1.5680700524319962 -0.5116842389885704 1.3431275792852029
Ni 7.52683430933588 3.063615168445893 6.485577144141442 -0.7977256363292132 -0.19734759424766013 1.3743117181974913
Ni 2.3987372515511463 5.852063701236696 6.068519718873393 -0.3300633114475477 -0.7476310336656672 -1.0921179767377127
P 3.6574031196222574 2.5940469931122077 1.1051538013090387 -0.046241804576359076 1.014495086746911 0.5042704630230024
P 3.4216598595591363 4.379840647659862 7.587061068456023 -0.6249223070798205 -0.4418924150064132 0.5116017065770931
P 6.118426339051548 8.87986976688819 13.494280426056886 3.1769699943961607 0.5514437782746955 -3.8683540326436403
P 6.962108818398447 5.599259220095809 1.221080211186214 -0.7914040649865597 -0.8604284146750731 0.01536619804342515
P 7.489913122603768 1.907798529881053 10.99859540376227 -0.2965124720752958 -0.07871123795897411 -1.3745222915464004
P -0.22990852633658043 4.459363916572578 11.93925345595108 0.9694850976951239 0.17685281672841802 -0.8958301912131346
P 0.9158474595384047 4.672337258011 4.0293090102824936 0.39875830282110036 0.46914610851604366 0.45159370145457706
P 2.9066815901021203 5.420741945994232 0.257660581002239 -0.7833369717077091 -0.5692988041782453 0.4251198235337646
