# total energy = -340891.4482193866 ev
CRYSTAL
PRIMVEC
9.07864844668180 0.00000000000000 0.00000000000000
0.00000000000000 9.07864844668180 0.00000000000000
0.00000000000000 0.00000000000000 13.28751968556917
PRIMCOORD
 96 1
Ni 6.455754195211185 1.644088739892411 11.585800584393228 -0.6356610336535633 0.5324834351221087 -0.44132497253871733
Ni 4.577481721757613 0.37267851376955324 5.9756099054807805 1.0274673306368627 -0.1677860785404594 0.5781254013309397
Ni 2.5008135464427506 1.5315952084887925 4.630647194217684 0.1715352611702465 0.16883251752710277 2.4973379544782865
Ni 3.500853895462424 4.236315196326529 5.093637377936699 -0.01714900097546079 0.9624261339658136 -0.31280246748457097
Ni 4.974999417346253 4.505978287544484 2.4748404414477854 0.07329469492909312 0.939241211208918 0.4134670697861847
Ni 7.085231355521191 5.9042898599638285 2.457872447727072 0.8257861420108553 0.374670151523645 0.5973371983727002
Ni 4.969406969977629 4.692608061175682 11.429419051253563 -0.10427803068448493 -0.5183246271232235 0.006520317617021028
Ni 5.810707153022621 7.99237897487241 12.561170614452674 -0.6933187933763478 0.2810228610801289 0.21736646057174822
Ni 1.7013023816409063 6.555474068420558 0.43370337208517284 1.3217946221353816 0.5508459967896965 -1.0913836696748493
Ni 2.573887586816225 1.3046108430499042 0.3082110320088322 0.8636389511925707 1.606357378047969 0.5816763519069917
Ni 0.9548014444127628 8.76788619350113 4.415123714425146 0.013601135723202382 0.2785988250196686 0.3935348496386319
Ni 8.737100497028718 2.1715128143733415 1.4510367304356195 0.15956086241718972 1.409730206906101 0.1377504514103176
Ni 7.02950661209811 0.8627394110661086 4.971232686155925 -0.8858802790892744 -0.9739953268606517 -0.8547365064966184
Ni 0.5427479249898617 7.194220528671094 2.2969733791805425 0.3415885384783278 0.7960863009535774 1.3391053454996873
Ni 7.703832295137021 3.7548109250769355 3.815033230880564 0.9838570501460798 0.7647224419303152 0.4969896130908732
Ni 7.4116087628297285 3.6505971209463466 12.557117905840085 1.219354415990584 0.19124790910782546 0.7795751906724316
Ni 8.147578468000072 8.739733305043167 7.1425730062110775 -1.4830076754440138 0.20086512048261534 -0.24061694645925658
Ni 6.859908382725903 0.7676469249083393 0.5356820129979776 0.19066863956558774 -0.21316244979272966 -0.6648417689825775
Ni 1.7766097695025005 6.789757667113301 9.132645402336184 -0.18048707104689563 -0.5494773985769441 0.31363061981282114
Ni 0.019511830981571835 4.787834003463839 1.284113978724995 -0.4005796723005553 0.20747002739364268 0.34419126620849755
Ni 6.534820143479615 1.920206750069931 6.997566111558668 -0.18625636943050503 0.5689092820493105 0.5315457537991877
Ni 3.28729685089723 4.656738321640883 0.34240122160337877 0.9617630464605179 -1.3360485609512345 0.7340733495858905
Ni 6.301063106389762 5.80679425559425 4.834597213124634 -1.0099750873893705 -0.6919198561462921 -0.5842554254880777
Ni 5.006130102455042 2.8171862832963774 9.698109013301755 0.8776211244042756 0.04998353100697843 0.10242272264330103
P 0.3058415047958273 5.54451210546508 12.337528099462471 -0.6158028612770556 0.3301640986914701 0.6623817374778592
P 4.034324349728264 6.309025080971392 12.580490885954573 0.9152710735465656 0.5734053701474512 0.2231990080931253
P 2.5362838254512194 8.442625459936654 1.5271748146190145 -0.13132500749994802 -0.6784768432675089 0.031029358501978816
P 6.32809024245534 7.872177671040281 5.76845784730936 1.1017110197427864 -0.006336997961621344 0.5236614659551047
P 4.641695001365215 1.0798961396924383 12.894899911175354 0.83786826998637 -0.6817863672567162 -1.4670354683854734
P 4.133236223236651 6.2680440624292295 8.215740051764516 -0.6166790932344217 -1.3373629088872838 -0.4758587446495289
P 4.936206353050582 1.23614875602588 3.9818306972442943 0.07042920045583999 -0.018792193005838603 -0.5041462787403125
P 0.010312436633150682 5.4826865103671345 3.4646409830209137 0.5092599458177939 0.3036208009853029 0.819911171287317
Ni 1.6705893143550987 0.98926399345708 2.5550702724315686 -0.4890261352694223 0.7712214193910976 0.0226169660685675
Ni 1.7432457369055916 6.1892958668521985 4.734702122002574 1.001456508395398 -0.05552220143702051 -1.6156174631936562
Ni 6.179599870440362 5.689788635972763 9.204822472255081 -1.032462726968925 -0.44331423505460427 1.0564336359622255
Ni 8.644788800853107 2.5033101747323148 10.11754256594861 -0.5340600355806093 -0.4113412816924335 1.459480795966667
Ni 2.063585843077545 5.367414912575856 7.113540396730356 1.3351982971357972 -0.8307689399374272 0.07370889964837628
Ni 0.6458686598620382 9.012800889383257 9.158555864657703 -0.4049132666789027 -0.09284047827150463 1.605089824189455
Ni 1.19375146834491 1.153496741668803 11.347979944312797 2.2229243711845585 0.055282317512072535 -0.5348025701735886
Ni 4.322489726233973 6.977558586378514 1.56948222368156 -0.6663391794637106 0.26545817387265247 0.025940888235477907
Ni 5.610114418266512 7.984616730553945 7.9342965064791455 0.035406404523751926 0.07278098851746821 0.11855819475258292
Ni 5.583986068385178 3.2553309301424775 4.638672719337594 -0.22400813425798194 -0.7409469367772723 0.7474034910358934
Ni 0.8435044788584704 7.341730406666896 6.4939026754757325 -0.5164595488900267 0.5136686164084509 0.9397574887237041
Ni 5.022044972969976 4.032399676283217 7.468595438370081 0.598590354053511 0.9077673089703528 -0.46338838009666006
Ni 8.036501205735261 7.166240134531319 9.241443016006416 0.610383232923381 0.8705050821847847 0.08780214451664879
Ni 4.741814335100919 0.36824540979211906 10.250922435690308 -1.6937435180731217 -0.4488631898972915 0.8310162800615429
Ni 8.189676160286293 7.4011773959035105 4.41981465201503 -0.4584420918349782 -0.726598124254768 0.5758592310045825
Ni 7.068227047207174 6.129195214936134 7.043634804622547 0.6402165142347296 0.23972194544881298 0.3172288786870408
Ni 2.452378957625197 5.303809902406075 2.4385385582526835 0.013725062895576361 0.413103772909495 1.450109382054096
Ni 2.3837080616896817 5.186522844686493 11.57615361268235 -1.0484758145677298 0.5662764724121537 -1.5353144552675302
Ni 1.0483932300022956 3.397547956164403 3.541216658053607 -0.07975073496708202 0.003850998314974013 0.9760879477236223
Ni 3.585348875429616 2.7058548188784473 2.9916588389546455 0.23669447147639877 0.1931523252193899 -0.9693326312776596
Ni 1.2270610290518646 3.20789499264075 8.207262409957988 -0.37968534535004933 -0.028072589866500037 -0.5424778273306593
Ni 3.3755776272162348 2.4078935808293185 6.909470539665508 -0.26053476842910617 0.08046832985939689 0.25161484023165703
Ni 4.024719139799684 6.707750236787348 6.032188041846478 0.2395116292102198 0.903475109352902 0.7462596072394374
Ni 0.8681076158210889 7.6164866195955625 11.42395824428566 0.7038592878963555 -1.068252740084341 0.21353731663364514
P -0.0008579322667776561 5.696615779513682 7.8959355858437785 0.8269760485538983 0.6880068942451312 1.4516823829681706
P 8.469098798454365 1.6833357366043666 8.154563580021858 0.38798718034752533 -1.2118241690518097 -1.1298985379205961
P 1.5538923687766861 3.469305592530653 10.456839797689435 1.7135438406285006 -1.3246282349294347 -0.2764828071179303
P 4.146481971143832 6.157883743645313 3.9708155732307353 -0.3005750721804436 -0.7891034418778411 -1.8935218332494614
P 6.769766483500133 3.8777812166484 10.512248604150782 0.4746518688256213 0.23209116837643257 -1.0120304272565024
P 6.217712036111607 7.883988992512003 10.435632075200624 1.4946701993836065 -1.1480122168021714 -1.0595446707873817
P 2.5936336469245997 8.594774527226884 5.96300057082123 -1.1928376006469779 -0.2674410086306362 -0.8184379291759002
P 6.88085282441327 4.008023505528741 1.4587435949992975 0.21326786502234238 -0.7103916896982346 -0.36385146364158627
Ni 4.991903860528687 2.912130787486438 0.536555378966909 0.5457888939817632 0.7617348200569011 0.21531703424188722
Ni 1.2326807123654666 0.7585228833410214 7.181452317665844 0.7189205531048521 1.0978888177832191 -1.5736904839425672
Ni 6.865637009819414 0.6369007710459222 9.28984946101416 0.49874310544687006 0.49555699440940454 -0.5813228252223149
Ni 2.82979652582076 1.7345120772162783 9.391764551388684 -0.6010665835081455 -0.3686409146104296 0.04495805276792902
Ni 6.585124933852261 2.1668736250789142 2.5362556816414097 -1.2062114508507227 -0.7913660126597726 0.5822538216770167
Ni 4.128106786932636 6.861388202402991 10.324721860065004 -0.1558816137933896 0.8217649366666041 0.4540318785824245
Ni 8.395007949468413 7.3539593459615995 0.249988752431353 -1.310700054884117 -0.4700148842742421 0.08564781717780734
Ni 7.82712941804821 3.798306729205314 8.211647397099295 -0.6574164230527839 0.8018049486049095 -0.20243760717605783
Ni 3.2829844929425276 8.354671514957374 12.559722570044725 -0.11563485045820085 -0.43178617981034667 -0.3597338419287869
Ni 9.035742633702274 4.9567059409699885 10.154375550070764 -0.12737913547832258 0.5036464562857583 -0.07481241712520019
Ni 8.884292622333122 2.348673557800846 5.842907302904178 -0.32671264980775994 0.28801934700262005 0.6049831449537323
Ni 3.4078613006623866 2.710221648723104 11.782854462031983 0.03705936674614262 0.32266419076999914 -0.4977627438114718
Ni 1.1227836743829953 3.392354969322109 12.95441499027441 -0.2046364145995895 -0.5069968608152301 -1.7839424449567212
Ni 3.141684410401497 8.548210139964423 8.117173166892504 0.7473335570299064 -0.054947816990789246 0.15494676068394606
Ni 5.8450244436937275 7.825086722174929 3.4889309066162957 -0.5966653691166562 0.5734097410228254 1.1445150022821902
Ni 3.5290975704036436 8.447028604374614 3.923711914257728 -0.6196762281895327 -0.6621130571975049 -0.7832019887917415
Ni 3.311663943003381 4.421810138917016 9.219731428535528 -0.3403289550396139 0.28752106720996284 0.2913746366280982
Ni 7.406025394109429 6.182704768167747 11.6542445141206 -0.15302768928436228 -0.23289155279054086 -1.4197248562249678
Ni 0.5742254144646923 0.2080018196547043 0.5681971919764345 -0.44640444394415374 -1.4592529962265772 -0.5047458599975243
Ni 4.773398952625993 0.560506668979743 1.83164453565283 -0.7708141566503499 -0.7579941220675461 0.16761304329770488
Ni 6.04946652533993 5.665194577658471 0.21066549507346158 -0.5970150391465912 -0.015518150240257144 0.6463941038003513
Ni 8.058535085221708 8.870756357679518 11.418324035134738 -0.7719714101832447 -0.5364475619761793 -0.304042976124386
Ni 0.047788189056764296 4.877748936481468 5.857099045966895 -1.0211686421123445 -0.23937304674982643 -0.6516550950889745
Ni 7.895927415060284 9.024539581668373 2.533186190642494 0.9816556716193867 0.08198219540076204 0.5550008994983345
P 8.683600022445429 1.606784573922153 3.7959517278296304 0.48128660053331956 -0.1954992281850117 -1.1386726845688002
P 1.9606521283608775 3.3210331080754925 1.6175164441079504 0.2397761957255161 -1.0825658142729033 -0.5075038823586357
P 4.750929298019911 1.2536160754045065 8.15122899249183 0.5544612249447806 -0.5371849543628361 0.3907081788231142
P 8.642628082551592 1.5598661193749896 12.469778585352454 -2.309369744562997 1.3901821095708446 1.5979161892591511
P 6.460475092340544 7.746674436585949 1.480575020628083 0.2623355690832708 0.43943161217074644 -1.9664694292517813
P 1.7424105012596283 3.339925775241252 5.826550302215782 -0.26125596286584685 0.35437129206529294 0.6760152691008938
P 6.981253596247069 4.095223922696989 6.1857388524381935 -0.922169857548928 -0.6316244016903444 -0.9462418108964671
P 2.55854467114581 8.60525128739473 10.406067456928017 -0.5252738047475469 0.3581155895990736 -0.7390327504736949
