# total energy = -340863.33380765194 ev
CRYSTAL
PRIMVEC
9.35461046762002 0.00000000000000 0.00000000000000
0.00000000000000 9.35461046762002 0.00000000000000
0.00000000000000 0.00000000000000 13.69141799788204
PRIMCOORD
 96 1
Ni 1.7151865509243205 5.763394260207556 5.093741658633082 -1.9745640333344576 2.6551460958704274 -2.1929123982035006
Ni 3.4753874877459743 4.996222650182557 3.772451564453606 -0.006657871636149823 -0.22246932901595234 -0.3753301537051471
Ni 7.50298699001927 0.3026179089826203 12.67929337670066 -1.6730667064500604 0.9175488138371487 0.20225197352781296
Ni 3.6892058207583065 8.304461956878333 7.152122677199265 -0.8258694457532809 -0.5323831620988186 -0.5529393889836155
Ni 4.80923334018634 7.104433808149802 11.751069985311519 0.6741985276071293 0.04646446211012643 0.8926304533289143
Ni 2.8341382901407597 1.7681617103874538 12.899150110813725 0.37970925660944926 0.2571681659497184 0.47469172092462125
Ni 7.1936019557751925 8.597785124832777 10.576607051715744 0.16992035127464286 -0.33899300983700975 -0.4035773214762985
Ni 5.3029229112029155 7.954908224994368 3.653896843291664 1.4548160435011461 0.9399572634393359 -1.1498320436197296
Ni 0.6162854839298978 1.159260756014363 6.320930919051745 0.5937152853493968 -2.905082005737764 -0.3879532417857964
Ni 4.488566645636323 2.9808840656128015 4.367781785322694 2.3361241298387054 2.7862613013524147 0.11323009767145016
Ni 5.802309440035674 0.9930667452387976 5.565821143851355 -0.7610467928509409 -0.29048194961049967 0.04594201394775314
Ni 8.065030700219515 9.251588209776774 4.680808569448282 -0.31303540943098346 0.07466766401721979 1.9035563346673283
Ni 6.902795178054828 1.086313503057712 9.152822231741851 -1.8301572529498866 -1.6472967965748082 0.4861141038289499
Ni 0.09115413144209965 4.839261640005634 8.454628713423247 1.8888097724857726 -0.23241049938906427 -0.11873637220166003
Ni 6.101357629637907 3.086722129212641 8.808551983888394 -1.25728487248777 2.0615403395157013 0.15946290338674474
Ni 4.722151270710389 6.242238064304125 7.381262926807866 1.7067545856208088 -0.083735687756759 -2.114550573164146
Ni 4.683638339135303 0.15529214765737093 13.124525129681745 -0.055392874948007834 -0.419290104225865 -0.86326974077861
Ni 9.279436885341271 8.08004485012916 12.245193610256946 -0.13728148219369907 1.3013116716906816 1.0147285429139556
Ni 6.154641491248715 7.542266999658278 5.754188387979466 0.9074024694317662 0.2075636155487135 1.166236967340314
Ni 7.32820544677202 4.925922752007482 7.643508207640921 -1.9975476387138242 2.5711532977975398 1.1607029248959624
Ni 3.266564516759655 2.4615628617286682 2.1855606906419522 0.9424172949440544 0.08102163125970563 -2.101075678606162
Ni 6.00681993556508 4.997064565130762 5.137828067165284 -0.03537580839613263 -0.6615810959534348 1.4868247351972588
Ni 3.957121866498045 5.0184492048151546 10.892508507658924 -0.26547385760193637 -1.3182169320864523 0.19851410375193554
Ni 7.989969305281816 2.2720571614983744 2.0066275712389996 1.0735849509305317 -0.15850671012106252 -0.9157621542503712
P 2.3552102945493703 0.4341577650290355 0.9232392548957712 -0.2704563984181923 -0.5796318106731373 -1.1445186018266162
P 4.088423179975803 4.798831013270747 8.66047878918135 0.8211977513092243 -0.9674428704541146 0.33600641640486
P 1.6517248730507734 6.735057656540888 12.502537075169343 -0.26860571836269875 0.07019831539195652 0.5727075727494781
P 7.10554700680354 7.202516899615626 7.8894194030177545 -1.36416794489527 0.5170719856630449 1.076368941433572
P 1.4979818488980987 8.265958379913782 6.751279486670682 -0.3417669730377211 -0.018821760692193393 0.2999227833084254
P 6.575683156845779 9.134365585155102 1.0260950686568595 0.5766187348784263 -0.3634364875913547 -1.5288494163684767
P 0.1725860161545446 1.0575948487134037 3.1514906461780123 0.13497288866518045 0.07623886515908161 0.806682845522501
P 5.178413044974008 2.9021088902924683 12.537313775296509 -0.9329276102860643 -1.705841072667604 1.1846931171629724
Ni 4.188760732580706 1.9360301964488928 9.997035607754936 -1.4712073403749757 0.3179775839276072 -1.0168005949516359
Ni 1.6987037271605838 6.182677259023925 10.444977391408186 -0.4406382308843379 -0.7177686988885961 0.6968694868420836
Ni 5.910205517953346 5.830869066000877 3.125791660114597 0.504677211543118 -0.9712211065496241 -2.0150959320102326
Ni 9.131372109783708 0.22896906023579905 0.4749129967495076 0.4685827798134059 1.374351056075859 1.6804650557966605
Ni 2.3188395687869368 2.2094093347414248 4.112710555309395 -2.601348076213365 0.9164396399333701 2.866082227435799
Ni 1.8627368229024244 6.450293957226524 8.133017203209134 -0.21481952578017843 0.21711963466826478 -1.8205068743443165
Ni 5.723262981009809 7.110458177334733 0.6870166296506637 -0.1801217172876769 0.24318804962054247 0.219975358949505
Ni 8.090400403992076 6.581062057903751 4.130947368548558 -0.07350732516053148 -0.24812868145526945 1.1253052621229587
Ni 1.23879365478808 1.7056448481780029 9.687362451506361 0.22007048976647262 -0.646977229997331 0.663938797552334
Ni 7.451415022136477 4.241604927496341 13.30017197440354 0.195243917641096 -0.14794101879007424 1.7155091918849874
Ni 6.298094443812224 4.092885329201287 11.307495869317343 -1.2940886715796809 1.6082522810778368 -1.2961010740240193
Ni 0.9528419199356944 2.626372390144964 0.6867069920419351 -0.18308697056358791 -0.9837927725670477 1.2814537564244899
Ni 8.608355834738012 8.420646219730553 2.6465652524471217 0.26055405170281576 0.060559506750611836 -1.1557450666700546
Ni 1.068324586997743 8.427259929379225 4.607299104398441 -1.5935915937418683 -0.0721685517444499 0.5860438848470682
Ni 5.110414380990692 8.765372972578147 8.84386189681609 0.8538972984247746 0.6429449689094863 0.9109503346840248
Ni 8.685662336204254 1.954206204719574 8.378339993583277 1.2373644794147594 2.4411616643970344 -0.4187730553801304
Ni 8.97493495779678 5.961637166678106 11.962233479853847 -0.9422979957573707 -2.1797740610493297 0.07008904350760187
Ni 8.32865297972341 6.525112132290295 1.1471259552275757 -1.2189180997841136 0.6322185836309177 -1.6859155373882704
Ni 8.962006886036573 7.144929917158438 9.68559630103724 -0.350508466675777 -0.7081484021900126 -0.33525436873018394
Ni 6.620435613648115 0.5971459507740491 2.913657156998674 -0.9691030317653567 0.33926837498558343 1.415802124131794
Ni 5.64996960746334 2.0517186649427246 1.031053947701784 -0.15870417084384927 0.5159926365559372 -0.8240835574974517
Ni 1.968004255259592 9.116891172674592 11.473860134004655 1.0427803068448491 -0.6581260475252988 -0.04474105166111649
Ni 2.4617405993288446 0.23885127080561258 3.039700243894367 -1.575358358563293 0.1057733842830888 -1.0254623843916921
Ni 1.3078774535935258 8.589889833540726 9.09278527678539 1.9532660431876296 0.2643577417196221 -0.40427768997743274
P 2.561675903680717 3.0152061316679384 11.16209248045716 -0.7108915121527886 -0.3397296308927182 2.2511766811620326
P 4.287489292173485 6.462155603385672 5.193113815430712 0.2647089544114538 -0.8386776532615428 0.672906291158267
P 7.644653211970478 1.0230482720054128 6.636408611137661 1.0420118041099409 0.14348503990124967 -0.14865989923396977
P 8.262656202394714 4.749101903663469 5.759239877668693 -0.5331719765487011 2.3953160668178297 -2.1863545424803252
P 2.61248079349959 3.9718179596494814 0.8364911450159417 1.0197673908894436 0.6324898350144333 -0.01716854135948656
P 4.133259828272959 6.471762788405739 2.1687205207557554 -0.39561127255168643 0.4495866983268773 -0.4872469318818125
P 6.876929679923879 6.165698640901802 12.82480621450411 -0.5242800733757099 1.1718625410572077 -1.266947592388515
P 4.029956864128269 8.93421433813529 10.867316541486538 0.02702640799017281 -0.35263039811478625 -0.49210580263601056
Ni 0.8940743856289142 3.8813682303807124 3.252492376130944 -0.1158953032084391 -0.06455242996008882 -0.6423978381567647
Ni 4.442766472453999 9.203374547076264 1.646502193988745 -0.550427164084723 -0.08147697362956935 1.8108760361227716
Ni 6.8563776005771535 3.1754880285850007 6.456982503759482 0.14148317897987248 -2.8670019110365916 -0.8688752598908455
Ni 4.769672692231266 4.812039723347023 13.641020305723073 -0.19288467338030005 -0.30050565239508886 -0.13420695703343338
Ni 7.83620757190807 2.4649866491847 11.102535417021175 -0.07539631465312822 -1.4405381934258934 -0.23851249852174405
Ni 8.90948074787915 6.767742665752293 6.919902889802344 1.519642553058228 -0.09531105129918424 -1.1687144823465292
Ni 2.0536644239341304 6.91903478194464 2.8777850319777873 1.2303790492358617 0.5903006032408931 0.15426413279462464
Ni 5.652093104054922 0.9419999263249277 11.226853513734103 1.7074693522996465 0.578323633384675 0.623221779448946
Ni 4.517837222002233 3.223252669979802 6.722239969185001 -0.5617698427910519 1.2804746803406721 0.02531173929191125
Ni 6.849707763265267 6.250095937154033 10.341662266269799 -0.3990506372505386 -0.5277016974627492 -0.21600608988911188
Ni 0.35991489851320335 1.4383368521230788 12.127556576388548 1.218591055461998 0.45712825811956115 -0.20839562453170557
Ni 3.7759885426971183 6.819679463445975 9.374213121982757 0.22492730363814167 1.714479979289525 1.5814264191342442
Ni 2.3544057980433086 4.481793907608545 6.528780075081307 1.2282699733126587 -2.3816190289467114 3.28678592417974
Ni 0.9914296883950666 7.757563361135236 0.991190210365355 0.9422203484418998 -0.1863813250441435 -0.8867899353877373
Ni 1.4851379686327126 4.311670960408025 12.712659401559057 0.5119557474824022 0.7611465516535989 -0.47857100137436936
Ni 0.25133780494853863 3.9715560305544844 10.688725800829188 1.5044072241657125 -0.3799928492881391 0.20801201594004173
Ni 8.160962231262147 2.4068664539269835 4.452695456076491 0.15212986006044124 0.08532514373106596 -0.16894436051461872
Ni 3.331588414592648 8.194582701527114 4.506119636845333 -0.30529098959887424 -0.13794971190531727 1.9801404989809706
Ni 7.947518082671238 4.606247646174239 2.3872629320885688 0.29654718196797314 -0.07528138634181875 0.2679326035550741
Ni 3.1927005119705147 6.986013793379573 0.23583440890787982 0.9522903310833922 0.13387631316689202 0.08634432902419968
Ni 8.524117566864884 9.000117569358629 8.185071868995562 -0.4471984006003588 -0.9163427093441896 -0.7439823811694865
Ni 0.03836232234546417 3.230970223671676 6.4591733535469205 0.482599148697156 1.6486967622461284 0.04788448238610463
Ni 3.021847905148218 0.7849603374195058 5.9907898749512665 0.41955724184432264 1.288512463043484 0.1744318659917512
Ni 2.4575965068615715 3.655370194451022 9.290106754118183 -0.20795442322922897 2.3778641898899693 -1.7442189011148541
P 1.7908466409362969 2.6072515662101865 7.6160019108220265 -0.7828014109192131 -1.4345578074727423 -1.375111331280651
P 7.799640399324389 4.191529697299245 9.659226589398422 -0.783408962596225 0.21338819265029055 0.46756899383691086
P 8.32703463210075 2.385360204305627 13.461004857881148 0.1023065087804109 -1.502154937796426 -0.09819711459772766
P 4.78750257991213 1.506915501959602 7.817155972091257 0.19769623583633048 -2.435426304575154 0.47738803680986175
P 6.204735430666883 3.5168003485870996 2.6552042352767535 -1.5378909577454547 -0.7411968480045493 0.7456895936685803
P 4.301886037787782 1.0780440273442369 3.961858105812222 -0.17255238958085123 -3.9969660120877997 -1.235824131510833
P 0.25009083536414245 5.895266204927984 2.740789567067007 0.5797323408067434 0.4313056406295024 0.20838045502305402
P -0.13221058162181817 0.04995642664329349 10.557178461094344 -0.2879424710180976 0.2791824654372805 -1.184200236686954
