# total energy = -340871.0152075688 ev
CRYSTAL
PRIMVEC
9.26193572306539 0.00000000000000 0.00000000000000
0.00000000000000 9.26193572306539 0.00000000000000
0.00000000000000 0.00000000000000 13.55577914151626
PRIMCOORD
 96 1
Ni 6.499387422525054 7.699400863590128 8.760924284442261 -0.1584239205992691 -0.6492950794972302 0.9191848067786751
Ni 8.64885115732158 1.4824191234422415 1.812231097665503 2.330555891722309 1.5244178629596845 -0.7385848643029989
Ni 0.8661141746036759 5.743594942995307 6.95073914837976 0.19896173281231544 1.5630165491684889 -0.8945718933260014
Ni 3.3182829763192356 5.307561532646277 6.1021476299857635 -0.4582466879947204 1.793581253598066 -0.520467127387523
Ni 7.24302824237559 2.136978645430996 7.068891810114338 1.1392429552499734 0.06402535381202523 -0.010437907503872346
Ni 7.65472128562327 0.6682292129342944 10.285324983972888 -0.7168670130099332 -0.3965744077959041 -0.6540446783670736
Ni 2.964097292025994 1.2807312109616675 4.9548271936821 1.4338962626293432 0.5593833448367462 0.10154546224467027
Ni 3.360517403253081 5.440470310387654 3.2680675393658953 0.6424137789963645 -2.2282067026294206 -0.1872742691720581
Ni 3.0255687594733476 0.3785093799102731 2.726975065825353 0.541305661399429 0.6536662119817324 0.282396601499204
Ni 6.613309232017663 2.820426144965071 10.928520110819575 0.775738847645477 0.12966253219586057 -0.502777937637876
Ni 9.010150008256312 3.5454597359318143 5.217375285851775 0.4242731592627532 -1.5437463880849671 0.15222344821551204
Ni 5.3186017600377555 7.251373246469317 0.019861294981784648 -1.08203539569073 -0.7220076766706082 -1.171181198719467
Ni 0.13661818300168554 5.922998638106838 12.118364872645468 2.081109262786564 1.573864033405954 -2.2440794079956192
Ni 8.21832859873256 4.37916361883163 7.402268703400503 -0.6465314007091639 0.7818290197036148 -0.02353047902177238
Ni 9.230556292849453 7.945129280472114 0.5281831875185263 -1.0235556542872826 -0.5081145193594411 1.6532147047211396
Ni 4.04902191969634 1.082646191480494 0.3969063628529699 0.6767279788972023 0.9094197569721112 -0.1361111160346817
Ni 9.064387903897671 7.963579056448477 10.01579617084268 0.026696535454579833 0.026141177171742077 0.1010312416124131
Ni 5.302226657665159 3.000617104613747 8.628741642462202 -0.7419159855587609 -1.732597257715526 0.6088925073104675
Ni 4.204502034814424 3.609561593126802 10.906261826870582 -0.04681541769164196 -0.15388155264422532 0.3362786962296402
Ni 6.64207680439848 5.729859492306075 1.033098540093367 -1.4722764050694386 -1.8610243748423885 1.5774952024006381
Ni 6.260410956791045 5.252879064089824 3.5778450204092014 0.35326391793372713 -0.9962747070841423 -0.3765097758355451
Ni 2.571650551227552 1.3724984701854703 12.002558259231579 -0.5075550473115453 0.32634498205569606 0.9042533822798232
Ni 6.506324612387652 1.2128134362454641 2.527786949798605 -2.1534215391977303 -0.15038819477898616 0.7685778111206634
Ni 2.8060701445818563 7.481708326166203 4.025822623077065 2.9024455965561815 1.0966066086366857 3.686232768427432
P 5.337949943780036 2.831114418798768 12.682082402789957 1.312815815675539 -1.9695033309820984 -0.29952091988431645
P 8.42166513577327 4.089107577540569 12.3747454418118 -1.7337565681309497 -2.361762656342416 -2.5301586005527326
P 1.80661465983816 6.929483932070444 13.195669705789834 1.023634587154334 0.25715788153707325 0.11545590167817534
P 4.156812327734957 8.456675252836853 1.3227387204701009 -0.636922159754174 0.0408039213902394 -0.47851417999450496
P 6.925112298405361 4.24615295979721 9.125465739076454 0.24067376783912095 -0.3169380869194993 0.5035081309356813
P 3.7975788884682626 3.3745584978214382 7.028522737036737 0.41659918765726317 -0.0026207254522987123 -0.34674540008891896
P 1.7594065734167104 2.2147511197650966 0.4726300970033499 -0.36929757435782207 -0.8260494229745708 -1.2863949024798491
P 5.807789419547604 7.1888181325414235 11.354212569924822 -0.608889421986674 -0.5842855073950647 -0.09123379590601706
Ni 1.3713407282190817 3.9665258581393754 12.35376067402583 1.0276660769112302 -1.4452381700047239 -0.1921151422041272
Ni 2.1926614030464076 2.5459672034451937 10.040047623361009 -0.09464924934546924 -0.02699092676654706 -0.09204292207087374
Ni 1.9341144671125714 3.936998807028608 8.032924095460846 0.04488426210720012 -0.5873541190180595 -0.013935893354801807
Ni 5.814837752638976 0.21065346626828488 12.154084453986053 0.3020148899507637 -1.0787556964981937 0.6150461856166891
Ni 6.705280253827549 6.656006755738063 6.1856374972466766 0.38716468444623 0.35240928324291565 1.514461780188237
Ni 9.070639710516168 3.1130199566464545 9.422879462112304 -1.6307903142793527 0.5124550557163239 -0.20781481232757112
Ni 0.9112688898735392 4.410681986124584 3.155134904609369 -0.5875965740461687 -0.397224125564761 0.668893570454448
Ni 3.556574058809142 8.323173711208685 12.20640975989894 -0.4545859513136817 -0.19368660045630515 -0.09592348807220255
Ni 5.158314700275228 5.484232956717133 9.721567627504754 -0.2893966869661209 0.8423209064410849 0.7839391240680822
Ni 6.204070601738725 4.830914534116347 12.288313983762686 -0.23101079082806023 0.6878374585468026 -0.07769899464437587
Ni 0.8582609792972707 8.701190356138063 12.093503984756031 0.04428133841587857 0.26913716538613647 -1.0673921918562586
Ni 1.324808763106003 9.00711209333651 4.362480093999187 -1.6858299196529998 0.8702402585591722 -1.1618689201796055
Ni 5.525541190077867 2.986909439731709 1.4136918555431393 0.23622318826693514 0.7689017701189855 -0.07104292278043894
Ni 4.95994256078639 9.072788479605784 4.765439131852435 -0.13105247056485173 -1.2822523410663853 -0.6043339414055077
Ni 6.912006659345845 2.651562532715538 4.437471209033236 -1.7577200209250825 1.3968116990722204 0.026204169199193578
Ni 2.9412388346416236 3.017334898608394 2.080134441074903 -0.19781913456743994 0.43976996934677165 1.304751550610166
Ni 1.943820975758771 9.082096725015546 0.658079983760148 0.8793121389534534 1.1904171641309433 -0.37594104781626864
Ni 4.240994061594984 7.849546103727095 9.783381786574159 -0.24401877305195394 0.017766579954801662 0.6875191559754353
Ni 8.335492085731056 8.876379870491942 7.906068918913318 -0.6989765058827574 2.606504423603324 -1.5156072066465898
Ni 3.424230259147362 5.670592365562725 12.110299579010821 0.020748288290944914 0.7171120391412037 0.34024076620118177
Ni 8.520925301003539 5.780939067863127 4.917223734613807 0.28257066518322305 0.8863397352241961 -0.2811645288643158
Ni 2.213565591991515 3.4660478989733075 5.0235414948711785 -1.1400237992800561 0.3671928693099934 0.05117060933654413
Ni 0.421853386744705 5.292297862561413 9.451251549837401 0.5912724802358591 1.7029925474752154 -0.051606411322382084
Ni 7.594240845299146 6.83051088684784 12.88817066093638 -1.6116757049370891 1.796566818588951 -1.3031739217104008
P 7.957725513066419 9.199186116528194 12.377632387179185 0.9337022836685597 0.1270243232420651 0.2117203180295644
P 2.3894867992681506 4.762691115521016 10.348603455081381 0.2541044394227301 0.29836032391731193 -0.5095090857141226
P 7.0177687034593506 0.28006796979863524 5.853494293799896 0.21520724813690031 -0.10118216536798057 0.01104083119519389
P 4.964110431865388 6.516772075892341 4.832310307831023 -0.82140061134865 0.8498737790876782 0.0572371272455982
P 8.479524448285494 6.8984749712427 8.172724679579739 0.8908453364040334 -2.3946344673697726 -0.25742501915553084
P 0.3353496855968902 2.632186563166064 7.1553640206806675 -0.4660700406938812 0.6856214247320902 0.47502339323242704
P 1.384603820186026 6.098688296990196 4.602593925440976 -0.6478156667382262 -1.3859755276886647 0.8686518310261298
P 4.460816844237064 2.159892674429753 3.441893696780155 1.5251323725282058 -1.7921463209237523 -0.6212505146551882
Ni 8.949243518888556 8.193413991615884 5.676469063784111 -0.38331265768999145 -1.0927029027069053 0.7476824557288929
Ni 8.38816471423386 6.140144721322628 2.5448937450939586 0.49817000655221955 1.200417984097397 0.803451483069397
Ni 3.3065295798764613 1.3980243650603994 7.8977322505617495 -0.5918378658210259 -0.6573038087343196 0.5646697900466663
Ni 8.970184755576588 2.0706353997890803 11.577991125317661 0.946253380860693 0.047020848834228704 0.6691771631331378
Ni 7.2689338766154945 1.8145521387597183 13.411532084713292 -0.4512607435951906 0.8744172727549973 -0.3152262464347152
Ni 5.119988810219909 1.512937201676237 6.316680921131809 -0.4789216998455687 0.38776477992407415 0.7313027288192889
Ni 6.695601530988544 8.912955254694081 0.8603838149668402 0.38999264081332835 -0.5397887105342704 -0.005150176742371776
Ni 2.0021063373146237 7.036690838158 10.444050481371152 -0.04690592052291921 0.13012944452995007 0.5425585599699236
Ni 7.0806757709450245 7.862605433107955 4.270856394779217 -0.12808336063419876 0.32730631752770084 -1.8328042036544305
Ni 0.6196373933146175 1.16347510460586 8.791613708487283 0.7058372375583328 -1.8697429856623091 0.34032458416423966
Ni 2.250724478144714 7.1338948536559625 2.0449298233609676 -0.4903646515751877 1.3353880445491002 -2.5478974125933926
Ni 8.755298584679187 4.930489605161472 0.5992796585776455 -0.47048488193212523 -0.1416536431194657 1.073993242112544
Ni 4.647074371789615 7.475086042118462 7.240575681793993 -1.2178078974390705 0.6104544524809487 -0.737869069182897
Ni 5.198094714240329 7.160541442754356 2.624412094313373 -0.1959859380134431 0.21804214648253417 0.29705163240821747
Ni 5.379813893284639 5.037335295755516 7.402932784192423 0.6234421229898681 -0.42620122952340145 -0.7418195691902127
Ni 1.5732416652214711 5.245701063898217 1.1213138469642903 2.107789857401544 -0.6905466299478494 -1.1971868787546092
Ni 7.595907993730745 5.905271293117499 10.362647328230457 -0.714995249908517 0.5499080583564594 0.5999424972060312
Ni 4.632208964941189 1.258743375536021 10.624748995097892 -0.8999483271465663 -0.2257587984005015 -1.9954966697220666
Ni 1.5404173649904298 8.189681431516247 8.01145214985542 0.3055527279006931 -0.1231805240159427 0.25963436810202384
Ni 8.153226452478613 0.8859949196504959 4.102114113887762 2.6748510304985227 -1.3506388000605836 0.9502414189741635
Ni 2.8932249598115676 6.194327045349601 8.400936923607055 0.5794965706468536 -0.7655253974475849 0.4269697322583098
Ni 3.5896484313049233 3.5053462922803926 13.415368378493117 -1.5517823710155663 1.4722689488702707 0.15951252567775756
Ni 1.0959833789332873 0.8041657174661704 6.3810708245280345 -0.8146758910303067 0.3817489127472974 0.8132453292313672
Ni 4.586445740493792 3.5959558095378066 4.93879015196369 0.863991706546299 0.7848338679682096 0.4102292795751774
P 8.283301077886271 8.759568337051228 2.403276895378195 -0.5421682665100405 -2.0434695980569195 0.5211587541379089
P 6.8134967109097975 4.489667774039461 5.598564143769056 0.18828059894938542 -0.7080188185906838 0.478578457573537
P 5.1829144015770465 0.16495044440314013 8.689932473256903 0.11920894096270439 1.50795380386639 -0.5110424916395134
P 7.6785615081951395 3.7752946710992203 2.0611289489546727 -0.4778073837354675 -0.47441249912130556 0.8192228869710407
P 2.8979022373557766 8.853669604079268 6.317630269544248 0.893531624986945 -0.8170127666935993 0.22431898063018144
P 1.2718490145955363 1.8162100252555862 3.34331613621327 -0.4025167414222681 0.7526855653704391 0.6938733803282372
P 4.4936504064038365 4.954431709026381 1.4358686344577003 -0.20739675095354604 0.7410564657719431 -0.1988912845856962
P 1.9971048920198264 0.10463764511574812 10.262253502066702 0.06131592530066214 -0.3923043196656405 -0.3779621920113555
