# total energy = -340864.95368487056 ev
CRYSTAL
PRIMVEC
9.29116695079660 0.00000000000000 0.00000000000000

0.00000000000000 9.29116695079660 0.00000000000000

0.00000000000000 0.00000000000000 13.59856199804146

PRIMCOORD
 96 1
Ni 1.607474085345392 1.9935127809891122 4.380137623021679 0.8344818700126403 -0.7307134319747223 0.2402582775682572
Ni 8.724554425583856 1.110313032968684 5.323238453491375 0.3309691110912687 -1.2490917951540166 -0.0559978555218584
Ni 1.883737643464008 4.327518957228541 10.377361972716171 -0.4183416242696667 0.352483845234593 0.3305726469837984
Ni 3.2421991633578284 0.6417009492820643 0.22757226859563162 0.28291133635209337 1.4094347871528694 1.1527551308037953
Ni 5.4598613470378545 0.12008926195731905 1.2988670459539329 -0.11223096698297445 1.2724096439443506 0.12366106319678703
Ni 2.3886846937455855 2.496713091883917 8.883967622544244 -0.11501084372095677 -0.03130832319497834 -0.6927598355490844
Ni 7.6630200191074955 2.86760718539764 0.29683791821473043 -2.0235301788205153 -1.0283463908077064 1.5430285360823361
Ni 1.077784657473518 5.4604559817227125 12.976033543369384 0.39389146164710226 0.7413050914476393 -0.38865669561072425
Ni 1.8453279592889102 4.119554767366129 5.3657074485073295 -0.12258197119999534 1.232884846376851 -2.1967024613735524
Ni 1.742511905810044 4.532844455676893 7.549853605645305 0.26616394169042545 -0.5292597859784884 1.792012366449049
Ni 8.550205677749867 3.512321260121887 5.2073785307301135 0.6273663977449389 1.4433597220350887 -0.7491369287872324
Ni 0.8597451261695288 3.020233184900381 12.177281211765855 3.4968710205987263 1.442199126068084 0.6662473910808526
Ni 6.590847226472332 2.3367006146551956 10.610808117058173 -0.2932849662769336 0.24039274626359247 -0.4319859545259786
Ni 0.7538722787638106 8.00490708940045 5.672721981883401 0.491200774323238 1.3610700226962367 -0.6926387365901877
Ni 1.4062367003554441 0.3308956197900179 7.812238018572639 1.523809282841408 0.9195393619046163 -1.1073491918651703
Ni 1.5788108353018078 6.610367968236212 3.678138858461543 0.8383058717444208 0.03313869153549776 1.9198028784331773
Ni 2.1388266321014804 8.043391102911155 9.578990578957631 -0.08434838164009345 -0.6275427754218031 0.4330213377690284
Ni 5.610601239649558 5.0909927279194305 2.7382332603062682 0.8718981058775693 -1.8533866557914729 1.4242844505711922
Ni 6.225360592124044 6.502209493760567 4.7481960523819815 -2.01630615026825 1.0611354123132692 -0.8498740361979944
Ni 2.7970500635723634 8.50401928683685 12.176941155055452 -0.36377150233327027 -0.886583475803886 -1.8901122933472803
Ni 5.289387015822398 -0.10524104805305591 3.6306117521575083 0.9229468449242685 -0.6776993416715361 1.1600313527502344
Ni 4.037188572346234 6.218104190735376 12.193953281742584 1.0883798498515191 -0.08341224297906924 0.44031530032728045
Ni 5.670566431150788 7.113466076294556 7.326266318554923 1.144915065934086 0.19224241181061086 -0.980814406665014
Ni 6.853898745186742 6.61813538380718 13.016176030180828 0.5752555359823124 -1.1766054550588316 0.04024136401855005
P 0.40680073731224314 5.877908112827489 5.53299676769201 0.02357932998183681 0.2027944762948443 -0.030484027521470083
P 8.551023300441548 2.056571931084997 9.599646701322913 -0.7116435598274647 2.1677472117917826 1.0628914757724275
P 7.390686624609117 0.24547170172657645 3.13354361145031 1.4305306885912201 0.1353420990791411 -0.27079244160137234
P 6.97251907364912 0.4905764023585917 13.318526397747538 0.81819753103032 0.28197365502917243 0.04320198930877076
P 1.1038649631047466 3.928658451192553 3.2092201662655424 1.5091159424952914 -1.1365759499407717 -0.5829850434160863
P 2.149725170934908 6.486089319100724 11.263430833091041 -1.4720977133997293 0.36148887694668064 -0.25487345637827075
P 6.655643824788039 3.2091783560142635 2.3410470225548354 -0.1377334821294531 0.034751287438256284 -0.6224525053830893
P 3.498960562046466 0.8785197872272502 3.273758470140014 -1.8398595678393153 2.920646950055557 -0.7194085484848644
Ni 4.410786395442675 3.4107873876822477 10.016660289347605 0.3708420360268065 0.7312050268991601 0.09873061850369448
Ni 8.865752289736967 5.322361367331209 3.261112262803118 -1.1512916588843913 0.03785538028487674 1.9981965851517332
Ni 5.29760040740701 8.362542687675212 12.815271268967724 -0.36275771635677523 0.24215395192907324 -0.8849014601157729
Ni 3.4990627648829262 3.003295387548856 6.540717664305346 0.1217767016898806 -1.6646831103720556 2.3935504902769744
Ni 6.700390084823664 2.3460103639400156 4.444648982511993 -1.4052973679457281 -1.2948034382585185 -0.785218762111454
Ni 0.2756187511322223 7.018194450379837 1.8331816167339743 -1.8543708740816127 -0.17133574356493073 0.032870525475775646
Ni 0.3636070312741173 7.426466908537106 7.908094058888572 0.1511178738561591 -0.604406703624972 0.6343045196256689
Ni 2.2920008104543257 6.679484959184096 6.755642796447386 0.24481658636290093 -1.0803793481445458 0.19372773810688573
Ni 6.1314733500850105 0.5821259867927738 8.952708321230615 1.7176264953383062 -0.08033283272279713 -0.1866286651682592
Ni 8.129994070060668 7.589842788202059 4.114570985413656 0.8125107650581878 1.0961723493127447 -1.0931788139020593
Ni 2.201337603347261 5.719670248486393 1.6110892784059945 0.5116024779080415 -0.12073849023335334 -1.5958829608792064
Ni 4.74691294222606 4.793359485813702 7.779383523117495 -1.812124563817892 0.20524679449007877 1.3185128660603163
Ni 3.4683368757762385 8.06295830050979 5.423690834097927 1.2109014001272242 0.601985238667673 -0.8534388707311172
Ni 8.41187878418459 1.955716313832775 11.99375464921775 -3.2974521456443338 -1.9892288344354838 -0.6169997097986342
Ni 5.480868675513881 7.156753623118887 1.959770049973461 -2.529394468693199 0.6402046871601877 -0.12068115463285668
Ni 4.651994380655474 0.7630714631619151 10.869657240960683 3.42061518615878 -2.4060594213772624 -0.6653773297710734
Ni 4.496497410564899 5.11788136507539 0.6429125174524641 -0.1664262220784553 -0.07050093423403987 0.1311648277729999
Ni 1.4594565046503065 8.35058495580938 0.6489369101034399 1.719727086621077 0.3062800929850209 0.009152613033545526
Ni 8.909411483239333 0.5490141260130897 1.3029718835128488 -0.49981242725164887 0.542665260751117 0.4321615608718944
Ni 0.4854736934691471 0.47192624293801255 11.011856692911103 1.9709809439688895 -0.21927216223489335 -0.5137665754388959
Ni 9.065196479505387 7.553848807434201 10.32987574754672 -0.4050341085274831 -0.23953425491803912 0.5022230935756706
Ni 5.162776283782229 1.019733446364178 5.942272671879978 -2.1534068839097107 2.116197621849265 1.226051111284469
Ni 3.4494014775302655 4.438260376116541 3.155505142772196 -1.5366948805548246 0.36720623904643207 -0.08585273409976182
Ni 1.7466650574371045 2.222066196814761 1.8930696915495107 -0.25261885601613915 -1.1725228003490258 0.9069224444715542
P 0.4828350020550862 5.464051663332718 9.053256400856762 -0.11707698222136612 0.681694064653226 -0.7310319916564055
P 3.46906158679841 7.381674192666727 0.5014684373751537 0.6457269025299975 -0.21021365157705083 -0.3657916180870926
P 2.8062947746885274 0.7183605095607042 6.109521109930076 -0.44989085983085747 0.8475988670105725 0.44861662110412415
P 6.338666373090497 4.0578614188120286 5.601479171937147 0.21038565837854087 -0.727032126468393 0.3380244752761533
P 0.9133653797599757 1.0002034134333468 13.27560956848455 1.5288615005533346 0.2822935002624364 -0.7032278249599437
P 6.874283565477057 8.42411525105895 10.571182219129199 0.6266837698556175 0.0811095629878216 0.022286065091710005
P 3.8247739135143313 6.884475975622215 8.20972343189989 -1.0296082882392654 0.5764860659553039 -1.812642641104891
P 5.147250743807244 2.408335511846779 8.19823304573169 -0.17697391568731458 -0.003522925551593933 -0.9426931743132603
Ni 3.7070548282461915 5.824168003183376 9.884183114494627 -0.34565011014221114 -2.8848996172526187 1.0595068755709107
Ni 7.133507123407689 2.2669239508537964 6.913332481938378 -0.9015709503516537 -0.24256018622855643 0.39528937043589346
Ni 3.1273138840097188 2.136856904707886 11.49914773863585 -2.8963677657932183 1.761292311657373 2.2905163593019195
Ni 0.05787932452074792 4.114565410713485 1.207591550944803 0.8323535108157277 0.7714564182200392 -0.05276983550286396
Ni 3.2271474728973404 8.175446458784563 2.5596440238758795 -0.5844554573140257 -0.24347344207144517 -0.4153131218559879
Ni 7.442754324202066 7.97983022979992 1.3148543569263786 0.7133366312591715 1.6651675062076419 -0.0014932967160748475
Ni 6.555921729903829 4.058233065490065 8.753271564395757 0.3763172002087648 -0.20223089048189044 1.428714718428404
Ni 7.848676117120752 8.117655400349848 6.463124341748138 0.7283181922696683 -0.11386104638722971 1.352718822518064
Ni 8.59927233041767 3.8831874801347572 7.779193054195002 1.369134801982242 0.05451072945337064 1.031446626999585
Ni 5.231939730564867 1.7935947417061948 12.738561536387548 0.8529560175574279 0.7390700314695335 1.7100628240584357
Ni 4.759344523606389 2.463237017359757 1.7033830853129452 -0.8167386870966064 0.054634142405112364 0.44236138422303173
Ni 2.8746034341116817 3.1973414093187933 0.2259565346628669 -1.4321594824438948 0.32210034784672914 0.5215292501034501
Ni 8.866634950597305 8.335143036336953 12.939575933370675 -0.9710321304672697 -0.06395259159256082 -1.120375428921509
Ni 8.376628096772803 5.031798703275129 10.59496574829016 -0.44447688790413775 -0.5314495945409557 1.005869549861429
Ni 4.806264916708528 7.751453346146339 10.045937685526644 1.9168566513206602 0.07651962962429401 1.738141841682839
Ni 8.503805589996979 2.3218719122015297 2.9115339645081937 1.265168389000905 -0.1431374267538438 0.08676521861170218
Ni 7.649873017871945 6.316776383754132 8.621162319754033 -0.5522030250382232 0.07670654882411951 0.13604760978659794
Ni 4.549568556188547 5.041331440566771 5.642873178936879 -1.993642133011831 1.028501428328332 -2.352522111580755
Ni 1.0488055077536025 9.125932837863543 3.556309360934317 -0.12485276951204305 -0.2537514269586856 -0.8402012889949207
Ni 6.155779042828614 4.416695577623459 12.120874537206829 1.2679369528849775 0.08960577338429085 -0.5731446602868968
Ni 8.714157609765778 9.563583965919618 8.786833117655863 -1.4759456263909096 -2.348506819773775 -0.7947745241206893
Ni 7.624591752598496 5.6047106398026765 6.192390886198709 1.565190416891356 0.5219277710934496 1.5350696862465756
Ni 4.121840394436055 9.025244461616438 8.2934498537614 -1.6194651190745206 1.3089059390981717 -1.6443410563805938
Ni 4.213051780393223 2.798239332942081 4.471085139837442 0.5987469342360334 -1.2082745040273384 -1.4600297264916018
P 3.9687219630849144 6.5629737256195755 3.821413298428184 0.6234158977376231 -1.3511429933905117 -0.03298468245613674
P 7.394356635554731 5.955117710189623 1.8361454989913173 0.17204665358902627 -0.1421614359938197 -0.8304238978931828
P 2.8465069452521035 0.7511416047969356 10.012974483418175 -2.4781639526529964 -1.5515026349916183 -2.2308400264872095
P 4.1827625761332285 3.7759581223542047 12.445811731631222 1.0902058473166643 1.1337166261151055 -1.252901398708094
P 6.280643035482011 5.885619781396752 10.434122640736028 -0.6276492190926803 -0.2614593371259045 -0.5244225124908453
P 8.527656015559987 4.375405631693576 12.664734852912245 -0.982631662379411 0.31579214624051427 0.4956145871202174
P 0.666778737999289 2.6291865502701155 6.543764237948551 0.8390139535550389 -1.0563611308530776 1.1870492760999751
P 6.058853589196631 8.604113028399098 5.694071225303222 0.2120144522312155 -2.4187843251430987 -0.8746499575910937
