# total energy = -340896.27984563046 ev
CRYSTAL
PRIMVEC
9.03851888492657 0.00000000000000 0.00000000000000

0.00000000000000 9.03851888492657 0.00000000000000

0.00000000000000 0.00000000000000 13.22878601558649

PRIMCOORD
 96 1
Ni 6.562778043806005 1.7463683523474134 11.39513077840177 -1.11731375927705 1.4047276114851872 -0.6215557046004327
Ni 4.73854285284714 0.13115342561479573 6.049496836094475 -0.8765317479948389 0.8704328341859525 -0.6370417160511738
Ni 2.9617960391447538 1.6918118534665407 4.818862745434117 -0.11937863377134923 -0.32218596558199997 1.0352135502411848
Ni 3.565460626165255 4.248085712560061 5.018697163104262 1.2768005739231945 0.44355514742081675 -1.1566202701861563
Ni 5.110676744815877 4.413870222578777 2.765014833091898 0.08589901395666497 0.17213715642030353 -0.3370829372984904
Ni 7.267872887692172 5.862283805938786 2.562283570177996 0.33538266677793205 0.6727360841289898 0.7758977418208443
Ni 5.1124754100374314 4.601808141934309 11.499597977551062 -0.8264731407755508 0.2993576548335748 0.4378084747450267
Ni 5.660634453713426 7.843445758589121 12.752681940961638 -0.8172210260496636 0.5686321171285239 -0.9952683773068149
Ni 1.7014107603272906 6.595777675584346 0.3946425150905135 0.28515539519126376 0.2742616310968954 0.10182416982735366
Ni 2.889487889534585 1.5250511834280869 0.3351446580356555 -0.8015578655911099 0.2717185529600675 0.19724475012120868
Ni 0.5478887919668264 0.16020684012816186 5.095966555629559 -0.017283983891428295 -0.3387662385381843 -0.9610904458735253
Ni 8.665571342619346 2.215078816639234 1.4050558091500105 0.6496897438324875 0.9477847299035548 0.41815547640078954
Ni 6.98018587594941 0.48348301925717824 4.616898852757952 -0.6132453849625245 0.8452784464075119 -0.1417945395727042
Ni 0.9459532902376412 7.418563071479764 2.829849031587987 -0.8793759023118534 0.23065289326800922 -0.5879303032365036
Ni 7.645014119021413 3.6923162361375965 3.888919383372037 0.49015793488102033 -0.2355423601498266 -0.6020582579974535
Ni 7.486803887674363 3.828391135185234 12.51074068006975 0.7328006535210542 0.20355398016868817 -0.10456136625285863
Ni 7.796734693940952 8.892383930909046 6.783826768719904 0.5545823239036771 -0.21803211918020515 0.8533116011246338
Ni 6.891391468228122 0.9218475608613509 0.4391662582129754 -0.5461388211220143 -1.5139470453353474 -1.199037815920419
Ni 1.7769185455577101 6.741623213348058 9.259965121007953 0.2843418981510329 -0.8712522447634543 -0.07556780723398597
Ni 0.09256437387158847 4.854244930742113 1.2614229007643696 -0.6271198289517715 -0.6906073079824558 0.911990860133397
Ni 6.359926568593376 1.8940848634822887 7.00051440836044 -0.2002809658443712 0.17381197301956516 0.08894422854089198
Ni 3.3328453088693397 4.099854005859213 0.3260130425917612 -0.14335468497097248 1.0008782672944245 -0.3453636892500439
Ni 6.04625381558446 5.484455647188247 4.753115656549199 0.0950642253957008 0.3214953672728786 0.4685079607114125
Ni 5.325359641008471 2.818653018472722 9.183052749971358 -0.11210575425901982 -0.09622944934839556 0.4542756191621144
P 0.18466507173380173 5.50872406990116 12.434714987717749 -0.8292820709792558 0.677173036854421 -0.20158502936777542
P 3.753027966254035 6.110843070223744 12.729531583012072 1.6824507187681217 0.06873998567887517 0.17822989958160274
P 2.292421421166012 8.527065082041068 1.482787973832813 0.5777482204971792 0.255074002424851 -0.09331381836349736
P 6.259400163597837 7.644399499749727 5.8863334964991285 0.6303848728562885 -0.9623808825501747 -0.6390289216845317
P 4.773295957253527 1.0506374138357641 12.604149251588039 0.5058673751964772 -0.14875040206524706 -0.11777092296459717
P 3.7948853463596217 6.129435303192259 8.187970591332956 -0.0626608693643308 0.2740299747020636 0.5253131426259147
P 4.698502215000509 0.9968582275632005 3.777175272816351 0.9301125094347723 -0.8509366731345539 -0.3934428041454579
P 0.1317987758500665 5.488794136164858 3.629238221825165 0.16532399015321206 0.049650573147591914 -0.059434649117549254
Ni 1.7089217693680467 1.169448742163974 2.903163168329608 -0.86707651611921 -0.41146443753385914 -1.4279644705259407
Ni 1.9292447012302336 6.167243426919676 4.7347014823991 0.052009817408387844 0.6225494359722697 -0.12301314520014299
Ni 5.823571830341241 5.715615762973258 9.23541198495595 0.4746834933945051 -0.9061068905487943 0.5285583890360898
Ni 8.69786596993899 2.3595414610416516 10.097717400020807 -0.8650635994542392 0.764536036951122 -0.35473176072850515
Ni 2.1547015117147423 5.283339567566261 6.928443971792113 1.366583239204982 1.3021573075204285 1.1510903415068625
Ni 0.6208495226272277 0.09061747694333466 9.11616771158195 -0.2400826712223414 -0.31792281943027184 0.15562553191852552
Ni 1.320780660779358 1.3036617063591502 11.365709496177262 1.5940340805959259 -0.5009678810123308 -0.21306809030671048
Ni 4.0056003328423575 6.796179712228931 1.6553576998405735 0.4999623225659519 0.3885109140614793 -0.9249309652338329
Ni 5.434861295074372 7.709549142548489 8.026989150152096 0.24318547851738118 0.7472746787675131 -0.04935515339436016
Ni 5.567944444431889 2.7160206386197876 4.770578074680056 -0.5133418291966514 0.3933523013141806 0.3643654271635273
Ni 0.7941658302797134 7.484643681704759 7.101225199137484 -0.09781556288859283 0.400729053394226 -0.8941867420724408
Ni 5.171632514937252 4.7358945668676675 7.030133634144505 -0.3446278395252839 0.1613475220039673 0.4332190556021313
Ni 8.026719802294798 7.338147370594555 9.066877053696437 -0.41200308364614846 -0.14743014059192674 0.3655710174358543
Ni 4.665728546189699 0.4830329010258549 10.36423800866893 -0.7979246397138967 -0.8574382216984976 0.20897463696362717
Ni 8.225431635942245 7.311610279687622 4.647867529384118 -0.5776201795597471 -0.9736312586530136 0.21552992158364168
Ni 7.350548218252699 6.039547234708117 6.96197958772944 -0.583466353927879 0.7686886256669149 0.4127859845587601
Ni 2.272184177793865 5.239358135565876 2.3739714561482312 0.042359695913133495 -0.49214642606595893 0.6474318010362463
Ni 2.3628947514798235 5.33309661301676 11.349398585328947 -0.936716130794219 -1.011523919933729 -0.1778473194312034
Ni 1.2073291740410017 3.4507889394022273 3.820261891465311 -0.2938629502675907 0.15266542084893708 0.41377148840048095
Ni 3.6839104137454144 2.645935964610131 2.5327167678023974 -0.03548765138364856 -0.4607977365513483 -0.03165233679795839
Ni 1.0240280147792218 3.5496974495502385 7.968187259037236 -1.0765070096733331 -0.9164779493704733 1.3694775300336415
Ni 3.8853880341154503 2.862535026767394 7.129309684446073 -0.45035288706894055 -1.3825065953034577 -0.2721435563126281
Ni 4.1417113859648005 6.706183181520373 5.948522120571354 -0.5131217427660454 0.5675036599510355 -0.07706418927385437
Ni 0.5375125724977671 7.354696898336583 11.385658410802836 1.002560540092854 -0.17168644203613012 -0.28777946307767216
P 0.11952717900935059 5.690488680983724 8.174383890021206 0.40892213072797967 -0.6348768471893711 -1.1566948321778336
P 8.539203812656874 1.6142794400470362 7.974775435318592 -0.15746849866453524 0.24866578490566202 0.0656394923766805
P 1.6876902889387608 3.3125809499410894 10.402244075955906 0.2739068188606379 -0.01740174041621519 -0.6002607997773985
P 3.955761940723548 6.040405893984738 3.680632143012463 -0.0005232194933216796 -0.03664850446096914 1.0314551116400172
P 6.7632704656376035 3.934268343251925 10.365137341279707 1.0804140580372232 0.19406378129006577 0.04053446977893664
P 6.15084755399557 7.742286657284494 10.377427015157826 -0.18969727679125395 0.750021902495347 -1.0890059134712922
P 2.4213649289583468 8.510931326159298 5.851951875211363 0.5738715111505923 -0.47206713881758056 0.48889346634629993
P 6.884133537711001 3.8908472994110186 1.5683917844525526 1.0312792481837851 -0.5290803229778308 0.2964911319190571
Ni 5.313853606701753 2.966333375532792 0.35256821053609605 0.021684426951969104 -0.3841531513134158 -0.3982168284953336
Ni 1.5531609765890402 1.2328901049281966 6.972244633418473 -0.10438318880378153 0.4480581774974929 -0.04458395725796193
Ni 6.842384619829829 0.5530244782928887 9.108191218828079 -0.37017740585961406 0.42003649547358624 -0.3741911550046975
Ni 2.572470884606198 1.6267616343734916 9.064099516899537 0.7397004659646809 0.13791474490232378 0.984275625740737
Ni 6.260150360650043 1.884892689963096 2.4012623595148495 0.2006532615821254 0.718182389387247 1.6548360423746467
Ni 3.994925842256156 6.897763623912518 10.439959102940701 0.46154232802685674 0.7244304271794878 0.12588815275509288
Ni 8.128701408801241 7.289203791827171 0.303450188357778 1.199337863659341 -0.48766627880741825 -0.47205556885335476
Ni 7.554746432751818 3.8027307805923254 8.298324577712387 0.3114703789367087 0.13676546178922896 -0.18983663058259562
Ni 3.2280979156403076 8.266674396776144 12.504178715492628 -0.39248429688693054 0.6498301260650938 0.11038491491317119
Ni 0.1242534204382453 5.019206935559013 10.222120859869493 -0.6668243466302451 -1.04422938058655 0.3784095639614193
Ni 8.530544911741057 2.347059266715196 5.846065087981224 0.1940720088201819 0.33688187703127787 0.07441466746614926
Ni 3.59955391870645 2.6720211295819993 11.20856490618509 0.3878393419157514 -0.2353256161533302 0.751509542784467
Ni 1.034702505365423 3.4970571166340347 12.647565776169595 0.06987949859995708 -0.7532092990843932 -0.4061414826590489
Ni 3.045357144538006 8.396151177171856 8.038312606381048 0.14600626366120661 0.06680343077779463 -0.15891988639908114
Ni 5.59888329394634 7.672066405494318 3.7367613441473573 -0.3492540254433856 0.5097651675889866 -0.9302222955397592
Ni 3.0559593269745977 8.202464759922314 3.779080592558579 0.8425942147071295 0.5218658075072625 -0.13848501558349696
Ni 3.302692810481899 4.150867405409188 9.158645134070445 0.060834100568237175 1.016958460685739 0.0024559177396602863
Ni 7.151556190525512 6.273455060178314 11.441986459349158 0.7999419272542417 -1.5386844001810274 0.21215766267729913
Ni 0.7090989076708294 9.062109235081516 0.04328094680103714 -0.18910026663720336 -0.218897552504294 0.7946894206060506
Ni 4.538303509539178 0.1609733065140297 1.7020416489326393 0.20678791372495353 0.09174261722163554 -0.295747054664181
Ni 6.075484385064371 5.5746058327147265 0.48645036494680555 -1.0509204194534805 0.28397063085454316 -0.7541757767627205
Ni 7.937699431605977 8.91722178030014 11.124906184789864 0.41527815485299446 -0.14544293495856886 0.7947801805476441
Ni 0.07691869799968803 4.948444372646761 5.831195820865764 -0.21954752738346703 -1.1102067159186235 -0.45357859309508985
Ni 7.986805703709984 8.972103665854258 2.390574311150596 0.6364737593628458 -0.4491143866761491 0.07753778647616325
P 8.72154688893632 1.5760555444593602 3.67143816178953 -0.5515661627851728 0.7106464860215181 0.14090493787889927
P 1.7890211220987122 3.2105903049159457 1.5720026726737104 -0.367835902210631 -0.5543043876519421 0.2979399485504417
P 4.605739897569363 0.9885518288767323 8.143428771173092 0.39148182376434515 0.08334873673098549 -0.04474310854364553
P 8.539212851175575 1.7453831538089748 12.403389289602883 -0.6176813092466911 -0.3710178994830385 0.3812017819945757
P 6.489457580101293 7.655119182929435 1.4707766863306937 -1.8467005020205485 0.448240468711628 1.8327067588446178
P 2.028803984724736 3.314262114419526 6.051892043550313 -1.745541733691336 -1.0289958514662472 -0.3058861999807119
P 6.924165137038932 3.9768759204097175 6.1256689524494385 0.7700816493596996 -0.4729870795286886 -1.024193030760965
P 2.309956147446478 8.519056954471742 10.454140538782994 0.23290723651982467 0.48985171649451115 -0.3100004792594016
