# total energy = -340861.18273415166 ev
CRYSTAL
PRIMVEC
9.27936270886150 0.00000000000000 0.00000000000000

0.00000000000000 9.27936270886150 0.00000000000000

0.00000000000000 0.00000000000000 13.58128529677805

PRIMCOORD
 96 1
Ni 1.8921084299195974 2.558895587903622 5.04542049899311 -0.1921143708731788 -0.1401714021469844 1.0752520542203095
Ni 1.989810838681636 6.722257924009141 3.583531157062342 -0.6192095729657594 -0.47412864933229953 -0.22056954089007816
Ni 3.6802694400507674 2.774715003136549 6.778636547327168 0.878693788643164 3.5554803456015027 2.1464325094744066
Ni 0.3905275424252677 5.63101416220774 5.428045736232534 -1.2749892317460687 1.7716029495547618 -1.3221388928486777
Ni 4.299314277483867 7.225774697135337 13.623115739882937 3.868018246570777 2.8578181876547943 0.9796095877236355
Ni 3.5755425538043655 0.24513384960657655 8.488275591180026 0.9218394707927027 0.2547253608361807 -0.5413360004167322
Ni 2.6118621895954934 7.1036490060234385 9.442972604460744 -0.30078101754366265 0.5950185775418527 0.7185078910474657
Ni 5.060639581585058 9.112538214200255 3.7379360388969713 -0.1549770997012492 1.564694193981228 1.7470733398445135
Ni -0.10733995475313472 6.0988425067938286 11.031412037588675 -0.07514280388142543 0.012495561363849448 -1.4122046365885226
Ni 7.870736794296082 4.209378695213786 7.504271567015732 -0.10957707429989515 -1.9310041464656356 -0.5261587784556616
Ni 0.7613911875756152 6.388906102148805 13.09663718401558 0.48836227643317826 0.6508896776778597 1.5750603677069004
Ni 0.9374290474278095 8.493270672064877 11.754235410410972 -1.6362850188453366 0.2754628504938482 -1.772932981220095
Ni 3.2210337852275854 0.8465349070016726 6.073469017714246 -1.09563138920761 -4.319782669275264 -2.0017470215071524
Ni 5.170377323632723 4.394808197948311 3.1152889529045193 0.9103620662807225 -0.545582434397912 0.20509072852818871
Ni 1.3580532744934795 2.4994519911204875 2.843989156652754 -2.205157277009125 0.1796496627472648 -1.8172806540975348
Ni -0.022525652699197287 7.241085645416976 2.087321164637959 0.11218391579512292 0.935284540554015 0.9930963093561607
Ni 5.854897343535663 5.8393822492769365 12.877855796242352 1.6342186232346112 0.5319512167677226 -0.7313112134597212
Ni 4.645313870561094 6.124871118872613 10.632340058085992 -0.25333927912193144 -0.05798480404490013 0.7174429401180611
Ni 7.121650969457607 2.2816282335670555 11.188547835834992 -0.7663946874264156 0.542483226647298 0.22400299205165938
Ni 6.725013894699836 7.8240894385313595 2.702634770371637 1.3511679330911763 0.38967973755859986 1.3638270166160835
Ni 2.4314806601126113 8.504368789728415 13.327504941568709 0.007497336818309669 0.21479998539615264 -0.00195403840257728
Ni 2.4426715714020992 4.622328889413448 9.484436508279938 -1.3214148701984596 -0.06081867394926946 0.7931398167307437
Ni 2.373967170749223 3.4129310036907783 0.7335234058305156 -0.29602756201907726 -0.6279934898059765 0.12743467130660632
Ni 2.881743171306494 4.489132918725795 4.067839649617031 -0.24937540937817698 0.6632525701185868 0.1335721516629119
P 3.2379315045129564 8.257203687649808 4.450247749771733 2.918234741069639 -1.9017187672379567 2.077289889040474
P 3.114636613714096 2.631794260449407 9.057576549550474 -0.07494328627610965 -1.5289234641395215 -0.4872150502026125
P 1.997150814494227 7.71027805630452 1.6268476428446135 0.6465206020758865 -0.12258505652378889 -0.15789967266468288
P 6.294451470294994 4.985699449268388 8.63056719308323 -1.1886551871345141 -0.04076381218092334 1.3563618185872899
P 3.2059269829230366 1.2072914704136202 12.118879098813938 -1.1773431045558047 -0.08094835481960898 0.067386042754142
P 5.15992876135083 0.8124731507244559 6.849205171925367 1.8642169136377573 0.3439974050301366 0.2957123447715036
P 7.213646570223762 5.8274675477050435 5.492054779412374 1.6664427733756395 0.6058652904483695 -0.47293874278925646
P 0.9171471446040668 8.353040944530266 7.646168796008653 -0.30038969564251494 1.4574761068318125 0.5593429785171141
Ni 4.188620761088924 7.342741062644454 2.446559624329376 -0.8865724200602925 -0.5557820006387331 -0.08913937527083358
Ni 3.023671022195978 0.9721895397084245 1.2202937132816387 0.040946360505374646 0.23374875858451355 0.665968426387853
Ni 0.9766529131165868 4.104503339165865 6.890695985896087 0.8829391941830794 -1.3763601160860877 1.3450453651332064
Ni 1.7113278878451335 6.426227698505621 7.379390833149398 -0.3729811938569963 -2.139572806240096 0.1332942154111769
Ni 4.193019178958922 5.518882344610582 8.333354776785118 0.04349509506915735 -0.3221450850417355 -0.6796397532273586
Ni 1.613894580598348 1.6989492181434942 7.598049733336374 -0.5646767320252017 -0.5024393233515347 0.6347536913479456
Ni 5.351092910169022 8.051229676130104 9.27661497566758 -1.642909980361022 1.237132051688979 0.46536632975863723
Ni 6.358646100726733 8.596930431612861 11.842541536609383 -0.32504323252513695 -1.971759988226759 -0.6364932997468716
Ni 8.37828081078848 2.005251698039603 7.986800277824713 0.566654681687179 -0.5773257882477799 -0.34161450662025683
Ni 8.482794271695198 3.3522625310451133 4.909268123382712 1.272846474371453 1.1365715790653974 0.5455474673949186
Ni 0.8413598064824791 0.36264120195497823 1.6626344326282279 -1.4259029600112216 -0.27349184281040645 -0.1442561137393193
Ni 4.775735311832862 3.543380283050331 10.050585267176887 -0.06335403877661348 1.5313968653806789 0.44088377123624073
Ni 6.612390270885147 2.588673062470759 6.138727063099364 -0.8769454384934897 0.05517818783404045 1.192443964752985
Ni 3.730248086987071 7.422023936655554 6.995380187074551 0.4506189962461336 1.242974369402369 -0.8582979985956315
Ni 4.674144850143548 0.07562030959487887 13.226419277204558 -0.2293349457875341 1.9335595658976379 0.30686707583674244
Ni 5.991925690975022 6.927944275288402 7.47322467564561 1.5540719383806914 -0.6119881155166557 1.2736494298887227
Ni 8.511634530640247 0.8967019249986532 13.02878462884892 -0.45320784001923237 -2.319239695378541 -1.4325348635054427
Ni 8.531176868265174 6.296613561779613 7.524018050617748 0.2735468644180579 2.4573413594806905 0.26590965958777435
Ni 1.7128682620358922 0.08305215109715985 3.8704351294537456 -2.0356555013291393 3.0090856997149404 -2.0857408480213047
Ni 0.48869763106209063 4.726378382190419 1.3122169350195536 1.0546639456563125 -1.4108517221050543 0.7656549810469137
Ni 7.255069644847539 0.6199106019632068 5.219273996890458 -0.30256459180664663 1.2613852678093889 -1.1914196372535288
Ni 6.071486945863969 2.028774882217755 9.004677687205545 1.2017570146237948 -1.1796064466686846 -2.7568129141843105
Ni 7.1568661505053734 6.7779526583039225 9.720547105699202 -0.22572357428719192 -1.3819941744434134 0.8070237738016877
Ni 7.770760941698285 1.2209042953403852 1.9497425509967197 -1.0518462737018595 -0.8831173716321564 1.0132249617852358
P 3.3333883075270214 2.61031253604214 3.1948882531801055 2.390832062904547 -0.8657030328104509 -1.752652376594188
P 7.182774130870424 2.7432486845771344 3.408426801087198 -1.9837474996059385 0.521862722183469 -0.5580767102101808
P 5.9013127152355125 6.29009944923797 1.5749676545126083 0.15031029035319918 -2.1435035087530694 -0.6862706282803149
P 0.2346361067029301 4.888303259471981 8.976265206876121 1.5835606918684275 2.810678553854514 -2.4605187287674077
P 8.308407210448642 7.7006924747439545 12.724265642443557 0.36365863090448985 0.07133114344481908 -0.7823198432971044
P 8.715242304698243 8.816201769731103 3.6915698478188754 -0.13446792400430388 -0.203487645707127 -0.5216914867129273
P 6.892144494397155 0.08456839894517174 10.07873978122617 0.8792717726338213 1.3917839068403255 -2.847175106118651
P 2.130374623269665 6.050951716441384 11.419130716956454 1.7050856825588185 2.0433981213890355 -1.2077883084195393
Ni 4.681160048265316 2.220829849845061 4.753734871056539 1.248652907844385 0.07489417820572908 -0.9662681334197228
Ni 2.023040236134087 0.7189548065564724 10.049688880750217 -0.9922658430350654 0.675369665097095 0.838096583947092
Ni 2.9892445869687805 5.831977317926181 13.415593002746137 -4.549241542235172 -3.3152557494846584 -1.1263360173803183
Ni 6.832997837217059 8.656652409273843 0.41192853637795923 1.0359067196534675 -0.8611992314028265 1.0645845472041342
Ni 7.086602816936549 3.7825280158469172 1.1775195634640405 -0.11443080284777066 -0.41107362985334367 0.17772262092788102
Ni 3.4122814483091326 3.562402976369942 12.227719526498674 3.933988382813999 -1.3096680140751769 0.47679076954549493
Ni 3.733867038399094 8.388664417532208 11.039859969295101 -0.41156522477778146 0.22769792440474335 1.073757471952654
Ni 9.125390131394235 7.931488781205101 9.382712423769256 0.7104420833201959 0.9826383472476302 0.7412048184243494
Ni 5.918535212211705 7.685066028134089 5.493887453524873 -1.1801445785603417 1.3887798299066791 -1.8163131479779429
Ni 4.816870726216195 2.3528009446701836 1.3164065672311653 -0.4899982693747045 0.2119000381405383 1.903050598675503
Ni 4.915389718886588 1.2469329074191693 10.801019383400405 -0.4002328304840978 -0.5276039955426203 0.6229428147559465
Ni 4.405108290428686 4.552130511382788 0.888951801359366 1.6277492134601839 0.4745924763425955 -0.02927432348408507
Ni 1.1346804581082777 2.071311480352923 12.414285751151077 1.979909356806771 -2.6528958663836697 0.11872300246522134
Ni 8.800231986705226 3.422479467800963 10.056452608145662 -0.3335615544087933 -1.8663311317672826 1.3878789153589643
Ni 7.520997618093098 8.974702562215136 7.832952157745779 -0.8298636545143386 0.1628559882286937 0.5385486674795822
Ni 4.358692918728837 6.180203958026192 4.728147956637273 -0.4827408164813428 0.42441816948104966 -0.0856241630287235
Ni 1.481496635093859 4.134215858194837 11.807582465969237 -1.3283468214316025 2.2429900315861824 -1.9255901745389157
Ni 8.045049620641878 5.990394596146859 0.6421068372902841 -2.8302145670049126 0.8656238428330834 -1.3737733291955179
Ni 5.67733674028164 4.81710271028107 6.484248769002953 -1.4000713436600984 -1.2035105069797918 -0.8330284253955654
Ni 8.85115712862621 3.7204676388120124 12.664018452859702 -2.8752523239708414 0.4540871573003921 1.565488407747749
Ni 1.2639234203304899 8.077239729483697 5.604235777631285 -0.011385616129122327 -0.7975052927882911 0.8963613811262562
Ni 6.337461315922503 1.841183287998611 13.389313847877292 0.8471648647969475 -0.42231346443322104 -0.5826055485894804
Ni 8.084570425933693 7.99987768352975 5.728939275672056 2.5946644935456025 -2.2953703449601113 -0.062493233438214967
Ni 8.03944488563454 5.347705942821872 2.8736914683828716 -1.0776393235055635 -0.39085036082793334 2.0800854495077403
P 8.999858914209996 1.240298163163793 10.75324087333536 1.5134809043322064 -0.7077074579978522 -0.06799410865178612
P 0.7248481297405137 4.5702345478055 3.637271657594631 -0.26337378053979804 -0.32165786099267185 -1.4442488095082613
P 5.757399080750712 3.806997695009753 12.699357049429981 -1.040002486989396 -1.99930653038646 -0.0698023655051185
P 7.481411857263118 4.813715742933919 11.303527489812534 -1.0235793084363662 0.11497279139416974 -0.2188024216873264
P 3.255200398302125 5.034861512296337 6.2528780699971795 0.05322286387988253 -0.05831313391859635 0.6795271389088943
P 9.129714314363474 2.301727332947678 0.7880257420318482 1.9476880348792196 2.379810772093379 1.2435981190292968
P 5.450131547144732 0.2582873460848926 1.739707890405473 -0.5474009756638896 0.9571265761297708 -0.5138105413029538
P 0.162522468232676 1.6844455744076154 5.9164287969026566 -1.1268947180972657 -0.28647668510584856 1.1944648518377559
