# total energy = -340868.15772491076 ev
CRYSTAL
PRIMVEC
9.23425927960906 0.00000000000000 0.00000000000000
0.00000000000000 9.23425927960906 0.00000000000000
0.00000000000000 0.00000000000000 13.51527186893712
PRIMCOORD
 96 1
Ni 2.655172728828736 1.227279223485778 3.5380685650183175 2.0264746061608196 1.8792334416512475 -0.5196816553717502
Ni 1.1975356744932817 9.239615104288022 2.2229512208475284 -0.4259281783676729 1.012400151891095 -0.6285408776690142
Ni 5.629823124373829 9.025906642837127 2.12780418397886 -2.333143449943827 1.1453652660976275 0.2916554010933106
Ni 1.1352228931827064 4.803236877566843 0.2774248501650293 -0.12374256716699979 -0.3197416178065654 1.422226796711215
Ni 8.44551498146601 6.825004062762458 9.473597381887016 -0.48538056809703506 0.688704177422472 0.252372801443604
Ni 1.334959920412663 1.937366055797473 11.11866311931952 -0.542375240314524 -0.6289278286947878 1.9350526055033963
Ni 4.157115758968597 8.720511221452515 8.518148894322351 0.3119303492922628 -0.8341041749582474 -0.348255151865226
Ni 0.7484163955399017 5.5258268968812825 3.8789641726018576 -0.3146842578883161 -0.17472857129656358 0.6807766950452793
Ni 2.9350538919499916 1.3352461824489148 6.079912923972695 0.12590126538121543 -0.32379753304349396 -0.3808138025275377
Ni 2.9026970475942924 3.331425235307303 12.986338220678507 -2.8702376443650697 0.6136598467921238 -0.6257322045756255
Ni 4.54738325697228 2.124230525655328 12.29751881080848 1.3130927234860097 -0.5810099219675865 0.7686318042870505
Ni 2.2277558059269436 3.1266001312394502 7.379947029110779 -0.6910757629784421 0.26473363700180214 -0.1164401199683156
Ni 3.704673993542848 8.212747008956278 6.036731680942982 -0.44108971659945967 -0.13394059074592415 0.5666567385697079
Ni 6.426065595338113 7.88345332467425 8.701010312802298 -0.7257128934363373 -0.6257350327891029 1.0012431068330112
Ni 8.610586599531786 0.9913900713549761 12.484002829185895 1.2858801676269596 2.181270443089198 1.193577564136796
Ni 6.306491172517923 1.7494119433500144 3.1886718983840194 0.1818160742709643 0.6707864166017867 0.27414258902052785
Ni 8.292410963367413 2.402274071189031 10.085109420302409 -1.4842729153096825 1.7477341133569644 1.7924391695738227
Ni 6.572807208824532 0.9847414047065449 8.961368405051173 -0.652245934595438 -0.5554428721317595 -1.110765673745887
Ni 7.851567427539483 4.5741164374545145 13.08497303725983 -0.46065426899494866 -1.2094258440229624 -1.470275572589326
Ni 5.289577608640358 8.842800516487483 4.430238367756537 -1.088545686005422 0.08688503201901811 -0.2806839896834714
Ni 7.95291342263189 4.475392971984543 3.2782377489716996 -0.7778654070701765 0.07058603774867844 0.11767630636826186
Ni 7.487349774834723 9.140291411967846 4.596543682855965 -0.2360501530241806 1.670944775011051 1.5510647761232514
Ni 7.119032111030098 3.001688306582047 5.11753043114927 -0.5665204701021598 -1.780538561481495 0.04264431703308785
Ni 4.609372839209668 8.362655973359935 13.113557686718467 -1.0246378316078677 -0.020443612566332536 1.9553072419873743
P 0.2722065702719342 2.9917337751278676 12.971727775718577 0.22302648707100303 -0.6933159651628705 0.24931216024040936
P 0.7294326054067836 6.758000277761045 2.1933526497250053 0.6082592446018428 1.056094250344936 -0.481633442349777
P 4.691844008427917 2.2119005828222815 4.803489896269853 0.3060684911948471 -0.3007720186825981 -0.650038385421158
P 0.7202038867283915 8.338600728055543 9.25905599025322 0.1896970196809378 0.5092853997390907 -0.17773933309842938
P 4.496539425630249 6.362709342734103 4.446510979378573 0.4578155139945728 0.6308885519655844 -0.3722409732568622
P 3.359072607453696 6.33722278724845 -0.08420351625053545 1.3943123296891342 -0.5278454221294651 0.34648057646330654
P 6.816905617414299 7.802949052672829 1.1860067018397173 1.6875510161091647 -1.7393734000970944 -1.1665652972140104
P 3.492212157088533 0.22806958141150777 1.3820315568576331 -1.8316685473880907 -2.490543557264272 0.13194541469276633
Ni 6.176214243245606 7.272431625424182 11.113202901834496 0.02229866349720031 -0.2802888111275818 -0.9916096975083052
Ni 0.3568339390213071 4.500011507102207 11.146950425630823 0.26273820383832813 -0.8540417944224389 -0.008343486868688858
Ni 4.921684720760494 6.462162314683554 1.806113065324129 0.34611702247630066 0.6935946727455539 -0.12000392606017399
Ni 5.600938361490089 2.943392428038232 9.574501979388042 0.6485836552525024 0.9698779622581684 -1.336449395934079
Ni 2.166532667205972 0.8683278688221301 8.758058642923608 -0.8093411090809545 0.20480610740823438 -0.13257533496728136
Ni 1.993648865828291 7.7623829518581635 0.6872366578373297 0.7762980625830566 0.15723170006338083 -0.5904988352946282
Ni 4.349114476960518 6.386321343595268 9.223416366739858 0.5238121326003559 0.28375774351278876 0.9669415053376639
Ni 2.734845917499104 5.8656106996530575 2.138507613856911 -0.8616324622855033 -1.6168117406120737 -0.0292997774053818
Ni 0.5634264803065351 6.060592083377539 6.6652587654228155 0.07763343151376306 0.9352809410095893 -0.4325929919823582
Ni 6.501638772908615 5.167971648788703 5.43878846304593 -1.80457889026015 0.1319330733975921 -1.323884929005507
Ni 1.6520736167651335 0.930961078928123 13.485524729772344 0.6476701422992974 0.24527758515971948 -0.23033201959348074
Ni 8.258576637534285 6.093235189769489 1.1804024299106437 -1.296294163871432 -1.2009836267928802 1.8367241075341272
Ni 6.102626431410399 6.342560189085662 13.275551526181573 0.20538203451636242 -0.7178432608802734 -0.5940310168176028
Ni 4.373105082450275 1.9877020028816383 1.641699849941734 0.7053065618658435 1.4363411246254103 0.45750826716679915
Ni 1.3201666371199035 6.394687582461211 12.180936287980083 -0.33749302825271554 0.5117264050804153 0.9140945367399612
Ni 6.240549327328412 1.825068229253622 0.27020365944409425 1.5385144502620665 0.4322039840740557 -0.10863527921191612
Ni 2.362400539816911 6.373799688074056 5.39222840456252 1.627009764190998 0.21155319632408082 -1.2612348582744537
Ni 4.153034216387199 5.546049924603595 7.113939417062584 -0.3285265630880471 1.5106274940438111 -1.1277969181965608
Ni 0.19526210520519297 2.1502157311396135 6.242731382785391 -1.0384084030293987 -1.8086764573682916 1.295310202691608
Ni 4.980303798377496 3.9274597318207003 0.22243391300103885 0.5000291712481453 1.7409998799569242 0.5954749483529809
Ni 9.00736425029539 0.8755915371355413 8.676642026109874 -0.05216974002501983 0.08677447458308281 -2.037390481742375
Ni 4.7711016554327585 4.5753538281918615 11.169844924549514 -0.19454354913996175 0.8369197900301715 0.4159237588567934
Ni 5.445664292471516 0.8682623055815691 6.458623746545112 -0.3585315940905696 0.35233086459649643 0.6201161439404288
Ni 6.100050073084131 7.340525053015199 6.438432115304195 -1.7579647899460369 0.9712876981215013 -1.1753088477345952
P 6.413857904630854 3.135326506215516 11.591359308948975 0.7247119629756485 -0.6128208958305962 1.1074520359916218
P 6.010884065921281 4.98233533540896 8.391956277909204 -1.1126279237656065 0.047155831750196206 -0.11478947173877005
P 3.129462751601969 0.577386833416394 11.584939651929545 -1.840106907963431 -0.9813808206914454 0.8758367788103432
P 2.965803975198986 3.5580339569080026 1.6461738485405741 0.811219299940274 1.9712681361920052 0.4081343447193616
P 8.56682544502218 2.283937039106188 3.6958460417152086 0.3433590001151893 -0.4618534315093723 -0.8726092730119811
P 1.7248118767508185 9.10986452779204 4.72846615712377 -0.05135701431573735 -1.170989651533951 1.1173847217243014
P 2.4216198442841192 7.01470345020513 7.578364480696208 1.1895774418384675 -0.4278595910624309 0.8734579941655215
P 8.217715040424133 6.64928534379996 11.618011227949951 0.2250391466256576 -0.6738519429009878 1.3254322188879688
Ni 8.10176968148288 2.727809411962848 1.5298074073782522 -0.5296415947979395 0.8561984357541255 -0.8483084914830875
Ni 7.644849300328674 5.847917858960843 7.242117399211029 -0.27245543112609205 -0.3126921671589518 1.82586479622212
Ni 6.793358256367772 9.066786708465745 12.705693384318604 -0.32869085658005326 -1.7081632930428778 1.0532416113874892
Ni 4.809885544215274 3.4356246165029956 6.818494833428459 0.04347478335418319 -1.95498276876842 -0.05469302066750581
Ni 9.214867289541084 8.158661952623136 3.7341746815174917 0.6627218944260974 -1.8260257472800165 0.5129605345978326
Ni 0.9092245561173696 8.602811353256815 11.461571795416056 1.0824935662740711 0.6356417503798537 -0.24506546914891342
Ni 3.5288629319880105 2.328344591762168 10.342602121910996 -0.937019778077567 -0.6173375527540271 -0.40199249348768185
Ni 4.8111137006933875 4.414243707337444 3.104944869909955 0.061107151723965726 -0.5656840902437936 0.07872126526130314
Ni 0.10917757034870547 4.950504843829596 8.62781126328084 1.1695392922406698 -2.6292088071793756 0.54713795181049
Ni 5.135171559989775 0.2374525122191064 11.14705846646386 0.982995473476733 -0.7325540847278867 -2.776379523462328
Ni 1.7861181238048955 6.590629329146021 9.913005913829993 -0.17445629147178343 -0.23165228106680105 -2.5454664345543967
Ni 7.93133295880219 9.222263931187463 10.6294366822354 -0.5890415340228115 -1.5941461806937578 -0.9458278632875002
Ni 3.041700351842676 4.213740236591071 9.228038113486441 0.5279868328033358 1.0211203053729125 -2.0589959758272927
Ni 7.231366874610885 4.743694374026448 10.303610462295715 -0.1742670582791128 0.8173251557276957 0.04688072371193862
Ni 1.0740920970540744 8.59012348106939 6.838390044947967 2.0453395613861227 0.8168798406601608 -0.36998894399789184
Ni 1.2701354205904578 3.2052575513940855 4.5801094716973365 0.6198914295241323 0.3032189375611939 -1.067156935917001
Ni 7.9747801484978424 0.49867123742858455 1.3991823465328157 0.5074156935202035 -1.3090195818579005 0.47658096752753404
Ni 6.639746354011307 6.8526052636126815 3.5234174893177603 -0.3228783636633343 0.34643275394450657 -0.8517257446947525
Ni 8.945744038427359 7.890028117248811 13.57473875508321 -0.22854073202101285 1.1557270689479258 -1.255120774956916
Ni 7.308833075324342 3.3656658685467242 7.410951054488707 -0.03608363309643463 -0.7556819289946018 1.596237773115464
Ni 1.0627893637517412 2.854706602355546 2.000273523402714 0.23058244504139 -0.8082902992189369 0.7488317388419877
Ni 3.5352622736371258 7.194023530268862 11.398158290404796 0.5445401091763267 0.12374385271858043 -0.09016036033618022
Ni 3.2503484392333775 7.992897765114817 3.247517215352253 0.12883849363266844 -0.024638881594602726 0.26974394573219995
Ni 8.148975214686741 8.274210238417332 7.167351295897572 -0.08652456335580583 -1.0395299182283515 -0.4560627929695243
P 1.0219370009008244 2.8524719116209343 9.304251225221854 0.11218674400860033 1.154707626544476 -1.842060689255692
P 4.151778357131384 1.5965110789545625 8.401389997142589 1.1800803009813094 0.8394356144734898 -1.5393667709600327
P 2.651349745505888 4.925516938342575 11.047734774143684 -0.6074064096832442 0.6121467525817069 2.5003626002372226
P 2.95292218356765 4.271731384580166 5.58698354893577 0.24317288011189087 -0.43942209908904967 -0.041560597050605844
P 7.543660287643243 0.9812323861976505 6.891909964615992 0.36371442384308966 1.5089202815447174 -0.16063944019334916
P 6.610953933719906 4.29132648267457 1.5294288027496612 0.06717778339807787 0.9089119640977572 0.20772970881293257
P 8.00814352711004 6.838670766428678 5.117314349483197 0.8433668312070959 0.6466201037682283 1.5240270552791688
P 8.812327461015506 4.17879779964987 6.041772663058785 0.5026627522162505 0.5895683530605588 -0.4039527025378463
