# total energy = -381167.8964315423 ev
CRYSTAL
PRIMVEC
9.27964276352905 0.00000000000000 0.00000000000000

0.00000000000000 9.27964276352905 0.00000000000000

0.00000000000000 0.00000000000000 13.58169518508553

PRIMCOORD
 96 1
Ni 0.6202206838631398 0.15390379931891549 6.465674449333934 0.4179536448026286 -0.2031965968292694 -0.25203470137789497
Ni 8.366488586185005 4.1313154134964405 10.76248857549012 -0.05239908242700653 0.7880593168840428 -0.4153149216282009
Ni 1.3134591629352814 3.8793174409605817 5.689372034050164 0.35709589008530757 0.5773813240760637 -0.2952747430134528
Ni 8.234142324426777 4.43355337068796 1.1402861859034954 0.7717310120376645 0.21882221918166833 -0.4050461927123411
Ni 0.18982807944404692 0.45224059479096 4.0475898387724465 -0.7692997768883525 -0.7688400636431145 -0.34096453174108377
Ni 5.486050426403717 0.04081186784551135 7.82790462951243 0.22199470337237895 -1.1053059361828965 -1.9223775811388892
Ni 5.975700044124557 8.608102638730157 1.6226596359168166 -0.7846955426181325 -0.6693653678845439 -0.6322874891956402
Ni 1.1178350187671995 5.368347440557318 1.8942664210821318 -0.5172969571896575 0.616615586986338 -0.2990375524899947
Ni 8.9442762486527 2.9349282207155407 8.788334639834268 0.6876330558454803 -1.5474048107731608 -0.45331299813852893
Ni 0.6245422133892095 6.365630623221507 5.3097502098394305 1.5894397763570238 -0.5937422819325903 1.6435566128060854
Ni 8.130256726307065 7.831600711131999 5.801883059901211 -0.7860353444754785 0.48595649520516304 0.5740532881440952
Ni 0.4616891268146753 4.25814956759204 12.727515054753784 -0.6889785141297812 0.0701396942398792 0.5028609842699856
Ni 2.576112283020591 0.4505433481722824 10.732988591888283 -0.9995348658926528 -0.35177062121765224 -0.32400347840671295
Ni 4.295889873760229 6.320791390518116 2.357646298765714 -0.8885318577795085 1.517139584130716 -0.48942619892131844
Ni 8.761263138682446 2.659304278299129 2.7360320745914954 0.49327462613313106 -2.444286326068945 -1.3277516110497647
Ni 3.27576021118798 8.359296863224507 7.63164946965233 -3.013724998259165 -0.8343407164490856 1.9035393653864638
Ni 0.4218989476116811 7.34338015836073 0.29695320077086995 -1.1028289353973137 0.6351650678537512 -0.21126343299780387
Ni 0.6718860216113592 0.6988526628025952 13.10721853981878 -0.011458378348586718 -0.33797408165419207 -2.5301945959969907
Ni 0.5660526265246669 2.1392452720085444 10.983244775521321 -0.23409020108433234 -0.4583680440639331 0.6636827156774698
Ni 2.787753090194893 1.4890578385243245 0.028468087352537454 1.5642241963233448 -0.1523010955309829 -0.7017460982080947
Ni 6.888965343325067 0.38093674955718904 4.3021916790021315 1.4573244117452966 1.496271225322139 -1.2255893411567023
Ni 7.518802520741709 5.354010392848969 5.1898368131424615 -0.6555821980575225 -0.04688406614604829 0.605894343914092
Ni 2.707576978738499 1.7669274544329174 2.4497578864437757 0.7099630868012482 -1.3401173317039694 -0.02772754782225547
Ni 4.754471248291717 4.667428201363363 12.865681508306624 1.6413359510056829 -0.1419806874415813 -0.08142992244171782
P 2.489449701435955 7.418053441797026 5.751549350856 0.2633961491373012 0.18022456141412832 -0.34421826279169104
Ni 2.011538831515155 1.4647730140241646 5.002015920377584 0.5772676813163349 1.7365778396298288 -0.8176565709251854
P 1.2884412466752773 4.2880021776100055 10.710700746460509 -0.4162526029511218 0.6570901500616168 -0.3510399136992148
Ni 6.381099787318475 3.0006652083957595 11.178183154106462 -0.7820509059064338 -0.13339114600035737 -0.5560401393961263
P 3.2743404258809394 3.353477217374009 5.1266415195511215 1.4641779443320202 -0.040363234308395 -0.32649024938430865
P 2.403074788769739 7.343185285867606 1.0610389666643225 1.3412828127669805 1.1050246574970517 1.1373182274234348
P 3.9125292815742894 1.7850969945060216 11.625917554485008 0.8582427198776638 1.4160715757430966 1.5660566215463931
Ni 8.130581513795603 8.0421465204878 1.9793143448666046 0.7321403942292358 1.2346236834448285 -0.8639929920978797
Ni 0.9694349754326343 0.8636145718454835 8.884004042458207 0.3392244091215255 -0.31755335190599504 1.0610454237026243
Ni 1.01269666890598 4.5513584326021865 7.8907612161514376 -0.41309863070317243 0.8788871356008929 0.34536034681593425
Ni 4.129208934642204 3.937194571418166 10.579461546056072 1.5539256426108141 0.10569162320255991 0.6947524404990809
Ni 2.273085556214049 2.9080172573794827 9.360476567786908 0.5724689743761109 -0.09161457628420351 0.5983000765066019
Ni 6.303651890765806 5.588924543487695 10.613836125878747 -1.1179364804627134 -0.07960829585194677 0.9274868988864672
Ni 3.7507851122820512 9.03968025350029 1.4833786972961633 -1.1577566977834448 -0.24727070433034837 0.09759239113419323
Ni 0.5712650017335855 0.6718767419688295 1.6604435564048952 -0.21912998023007424 -0.5329248935349016 1.6459958183751975
Ni 3.0795978477531767 3.938345247091845 0.9017390552144009 1.11778992758252 -0.4471822026504428 1.1366973060099843
Ni 0.9917339564314436 6.981557616486166 7.954975414492536 0.28163992583883757 0.3666171993121815 -0.06362529016012912
Ni 8.472146596027887 6.699168814665621 3.6876334330105998 -0.6048710448559002 -0.006663270952788524 -1.5355173153069555
Ni 7.023343846797293 3.803233651859775 3.488037601839817 -2.2842613795311433 0.8467169786262514 -1.286450695418449
Ni 0.14724751173237952 6.2907995858622066 11.675843887223168 0.2710986599878815 0.38014891525002914 -0.1564770812855434
Ni 5.153124691366561 6.1728182107399165 4.5543223504261645 1.2823626413920042 -0.3995679432065892 0.280467245686975
Ni 2.364935457972774 8.108468125647388 12.514363521775651 -0.8255380305557912 1.3293984026245687 0.7117926838108193
Ni 8.148797452081356 6.50808241569455 9.636810402856838 1.0297101039244523 0.3773281579717824 -1.0357146582473196
Ni 4.957314954347885 8.452288161014382 3.7719222820361455 0.047151203764505885 -0.2133552825298261 -0.655928782763664
Ni 7.72702841946509 2.927782895967691 5.34461382682342 -1.5051073355565303 -0.4570048451678194 0.07918689204381202
Ni 4.44699957271346 6.653280982356377 6.784301183197114 0.41139681752071733 -0.7377993922872261 -0.19389768802584673
Ni 2.232320086581186 5.7855694483340425 13.377683928952944 0.3526702502137862 -0.952959332125959 -1.6071117397154902
Ni 9.275002708410323 4.411365745399507 3.9532372174234682 -0.16078496463227793 1.1987897044653548 -0.5528242035619898
Ni 4.62837018595596 7.321201812714806 9.448595125284449 -0.28686312191098984 -0.48083460059756544 -0.6782780969931415
Ni 1.0314415468159237 2.7923743521746713 0.6902736332839106 -0.529246673352366 0.21893971859613903 1.3957086958160285
Ni 6.61721101184353 8.52461369489067 9.511708758021529 2.5178129345031866 -0.8533522245545819 3.089534232079995
Ni 5.035709374438581 2.874165121431228 8.84042034538908 -0.23471086538746672 -1.373129524963932 -0.9798199039622286
P 3.7258878313749326 1.0199162307940672 8.431447939821236 -1.7882338732432237 1.7622564753428556 0.15056251557332137
Ni 5.755410610112597 4.585451839256213 6.4769065286518535 -0.4708942015554019 -0.2453156374865065 0.2767985385861362
P 9.256703253341803 2.383791691593074 6.51107788430313 0.6773697262462592 -1.4978195436458657 1.6650250670925066
Ni 4.591975427954575 6.772515109220173 0.13900440527326904 -0.6219308285516645 0.441318287670498 0.5899172517595453
P 4.8671168289594435 5.106243937306642 8.895996124499305 2.281466076174193 1.3866802670651732 -0.6664787903653684
P 6.469609017766516 6.586328361504771 2.6908866136846257 0.1796074966554197 0.07206905005210815 0.036792229127685025
P 2.214939316123105 7.522867004169707 10.02536852282365 -0.45475924366675224 0.8234487521269304 0.060695775218159984
Ni 7.142160389747254 6.623929473035015 13.399401076365143 0.046111449646081874 0.02845722689942841 0.1439321547409973
Ni 5.510223895193521 2.1782847281308877 13.194100120967116 -0.4671069665988278 -0.9829126839549395 -0.743065782892488
Ni 6.942954303562717 1.5097050431528518 8.834186281537646 0.8451941142238217 1.4120236309259682 0.7353768988886625
Ni 2.8387818444655766 5.4952558317931555 9.503370071244364 -2.1310547414667553 1.084178924396294 0.20819790669860272
Ni 1.2103066565754121 7.743991606009336 2.767609770155727 -0.1918613743221083 0.04001587827130528 0.3443391046402715
Ni 7.612424834223601 0.9419208353321474 10.993974826178384 0.22514790428937997 -0.30589725572430543 0.3033482640502066
Ni 4.945065826208714 0.6068756299412139 10.14263350954265 0.3139676914372658 0.7589996805139251 1.071682077480864
Ni 2.859911590505647 5.641020456649292 4.2473759026150875 -0.9047773731040933 0.7122886496106314 1.1515443983251459
Ni 3.975667969346199 0.46539727196953345 6.089108411408223 -0.8783405190688034 -0.15625159553829865 -2.5334845796021725
Ni 5.4757129046256585 8.319598552482557 12.373209023328256 0.87489061284699 1.0549094860082155 -1.111955066068298
Ni 4.25160741960862 4.184942467675433 3.0398141642999534 0.829164828675101 -0.8662085116919599 1.5475127971059348
Ni 6.9972958902164955 4.1073368171997595 8.572860412330957 -0.015644134295160154 1.1148298165129316 -0.07269614211314578
Ni 6.008689173317552 4.680865123746333 1.5927253650445905 -0.7396819540219197 1.177715914514191 -1.348833885641361
Ni 1.9670893437980106 2.0942761243097383 7.273038612057286 1.4392025053336053 0.22579659361697238 -0.7685212468511151
Ni 2.8327871953914063 8.917819987800595 3.982723281561511 -1.182974334699653 -0.46772711668132994 0.37531575552744395
Ni 5.340489953683232 2.097273448846823 6.524415514511031 0.9324439857814265 2.047054744305016 0.8053664407039227
Ni 3.782215261530061 6.756684039064547 11.52763964434598 0.4838240222431925 -1.7025863131757324 -0.6040876297226563
Ni 2.7749379038614115 3.7335342568193854 12.224082383983617 -1.7355941355603206 -1.6886241945686853 0.4764961211232116
Ni 7.968243447381466 2.333022767313221 13.200293354391421 0.35909929366858157 1.0750787618672388 0.16591045878430136
Ni 8.643365280342923 8.798975605923046 8.291054372061277 -1.4401748965492036 -1.1140674844256104 0.18981271932319568
Ni 7.400078774217045 0.9572972030038192 6.671546102747537 1.1745493438607515 -0.7121456962748639 -0.7681083276834126
Ni 6.662839014161943 7.081480807245708 7.837806008091593 -0.016919915683790213 -1.5832642436739313 -1.7349302767240766
Ni 4.959523509269949 2.119340438782391 4.2522115243373015 -0.4121028424488064 -0.1646552462209616 -0.585355857641108
Ni 3.462967719581646 4.311284800716961 7.578530939883963 -0.7564206069328392 -0.9385724672766674 -2.484754461386321
Ni 0.26886093894078433 8.606191032369045 10.885103276127476 0.9977096397584561 0.195577903941747 -0.4022822568139588
P 8.388676211473458 5.695092933669709 7.042828312216852 0.7535234878907022 0.7798459278353149 1.723060007649052
Ni 7.684425580611352 0.04122945175934673 13.205141967613176 -0.12224541379618303 -2.1746393109259254 -0.41698331046955933
P 7.220888876969018 1.0375289923153905 1.3990777847353293 0.4181516197460476 1.5805648424648973 0.9429651970277244
Ni 2.0589021269866166 3.723428726104569 3.099981510533861 -1.5979347012019125 -0.3272412686177203 1.2426650656920661
P 7.606968404416153 7.762662246779042 11.425764016798192 -0.6151888818421405 -0.0022962522333444327 0.37084743534344516
P 7.234400036492225 4.543767685012912 12.660271981090998 -0.3472051133341569 -0.5184719513343651 0.2523805147530879
P 5.911642671742209 8.48888707115142 5.673141939265762 -0.287207392624286 -1.0394229603368421 1.9694457382712853
Ni 5.108647364721828 2.4986643864679223 1.7766079775198744 0.4631662367835249 -1.3622195629196476 0.7205305779044494
