# total energy = -340866.6278809094 ev
CRYSTAL
PRIMVEC
9.20427599963744 0.00000000000000 0.00000000000000
0.00000000000000 9.20427599963744 0.00000000000000
0.00000000000000 0.00000000000000 13.47138830794393
PRIMCOORD
 96 1
Ni 6.679497110504645 6.331805582590972 9.161568212419686 1.9882325319604857 -0.5722005512060726 0.39238093853984685
Ni 3.0634223817179658 4.430192945701687 8.864011455740771 -0.4439001894650613 -1.2042738675083775 1.4602338720826078
Ni 0.45144949100739257 3.4530209785023454 9.907802132158738 -0.3997738885698083 0.44719300128372014 -1.825146944219489
Ni 6.309687707234875 3.1792766044009415 0.5886778835413577 0.3036226007575158 -2.5340751619983197 -1.4694551335705597
Ni 4.846345878899857 5.825045755924046 7.955461048229255 -0.5298619383388616 1.667841196385063 -1.525340888994586
Ni 3.5576643929523932 2.27694460579104 1.6501775870858868 0.16200083931725004 -0.612580497685016 -0.0421681487276177
Ni 4.138113653702094 7.008062152779546 9.94540067940889 0.34614093373570065 -0.5880737707929032 0.27635785150429176
Ni 1.2232851045887174 3.132555699154355 2.6881345933412675 1.1129256575116833 -0.22151853506690883 -0.004932918525243117
Ni 8.091865658056449 3.1622671022544298 2.2435247998690873 -0.8999650393171146 0.0052864452099199285 0.9158230893952938
Ni 2.9107602590978154 6.397606952096065 4.1201165327350635 0.22872199479388353 1.3142448348125817 -0.4006429214383229
Ni 0.9261618693119134 5.208027906414556 7.0691113545583155 0.15605979124246672 -2.658135517516054 -0.6685364442253453
Ni 0.9723029051671414 0.20279965513772444 5.6577672429312456 -0.35507371744895627 -0.08533594236434336 0.07424883131224633
Ni 3.826834241855304 6.004114946541135 12.23973952608547 0.016082507384159398 -1.2006295858875708 -1.4723278271326645
Ni 1.70523940729198 6.603064802157983 9.777843276851675 0.06833143738654684 -0.3179734701625492 -2.030399909357155
Ni 2.681987977792869 7.986826459736109 12.93421688114917 2.286230330332056 0.2233692151224024 -0.516462119993188
Ni 3.1379862220258055 4.561537964982378 6.061397758558892 1.4499427745692448 0.40848118653581916 0.08455612677552533
Ni 7.983393264768226 0.06916277111975969 11.47777089643329 -0.6853164918971616 0.674044261417452 1.4426436698046703
Ni 7.825963327152462 7.939267965368671 6.495027771127082 0.19420699173614941 -0.04666912192176478 -0.8392234984626836
Ni 6.845790765959744 1.9394698242965376 7.339576245101927 0.259752638847443 -0.005271018590952212 0.559001021796663
Ni 7.093487038830289 6.325749168947897 3.9354502218499587 1.1490218890136084 1.0530017274625414 -0.2938578080612681
Ni 5.810144032993743 0.08541200006426793 5.68216409703814 -0.35896611052482696 -0.7449406313176976 1.4158694870346196
Ni 6.175434136721339 6.7409448574365225 11.437626446426792 0.614549962706561 0.15974906716859585 0.24717531640306462
Ni 3.6364437916926478 0.02424590397962138 10.588591808303566 0.07859708097861304 1.003876173580484 0.15294284288003981
Ni 2.8048282460003042 1.9499995161015207 8.880407032674526 1.5458498075812153 -1.411349487677079 -1.4080011400301362
P 8.816113323586967 0.0620763989863186 9.648409985707255 0.13810063566088474 0.48523170122399656 -1.635425756168835
P 7.03982610943951 1.2765226372810454 1.523155816267434 1.1660605896634497 -0.808216251447892 -2.0261681306639945
P 2.871761741459953 7.798258456232007 1.5560528193095586 1.1325506308314623 -3.0402446418162477 -0.0214370868278534
P 4.93032569361023 1.515889040323348 8.854554982523602 1.8638590160777062 -0.3048947826017201 1.324007056405668
P 2.783943743635351 6.1971010025508235 7.8370204239753 -0.5868219006636731 2.4208862019774497 -1.033422519779033
P 5.0538286696935035 4.917955146594586 10.510457629314645 -0.003235990438794427 -0.018346877938303887 -0.08035083044492614
P 5.161647559381942 4.881561439079809 1.2907395620729836 -1.5098780174722963 0.21587882028262823 -2.059896376154375
P 0.06481375068457211 4.249061997248657 0.8450409027436971 -0.003547351031626149 0.38146480584797526 0.45938825779833137
Ni 9.117580977160932 0.4747501158363393 1.8506457990993088 -3.263089609004064 0.5337808137772936 -0.008081748566869952
Ni 7.4125532682181765 1.9996473811330588 9.715727299478326 0.5250367490360763 -0.11239628891624515 0.01957535102876629
Ni 0.560840471045736 7.278907179924159 7.588177298308512 0.26231834269209015 1.7234742123683353 0.11452876187821567
Ni 1.9162382315379904 0.336878344406248 0.9402572976599477 0.6136151095971174 2.3933136916758198 -0.6586916902207818
Ni 1.8744508182559767 5.881716483584259 0.33585759019193623 -0.03746508682499355 0.5979797170527057 0.22399116497711746
Ni 2.899365365343821 8.009137624889325 5.947618179698331 1.5684089238286536 -2.1729974044471287 0.10378360754656965
Ni 9.10396785287809 1.5352640414155594 13.213222419442646 -0.06974862944904762 -0.02042484351325515 -0.44182273811074224
Ni 7.665238258709614 5.407364912901027 6.030992353044398 -0.6808792820614145 0.33451723345384327 1.7172349163268426
Ni 0.18217655421268472 1.5350983644465999 7.736981908834722 -0.9944857335045195 -2.1002971485689246 1.0547493062812674
Ni 0.15353560841760922 3.7144684397965317 12.11844373539978 -0.624793237701124 -0.20860696921156335 0.19947466789299195
Ni 4.061607711147007 2.652819626979939 10.812123174823759 -0.24790293859770857 0.907122219187186 -1.502113285925213
Ni 8.638811353972113 6.882350150443479 10.879789330657252 -0.3413537967597024 0.5820802722136298 -1.2357266867010204
Ni 2.3596450261300035 4.060438768088236 11.399003463251905 -1.3695855163664155 1.8267461703858086 -1.0666591703449757
Ni 1.4158569681760071 2.912269760370558 5.58403823046144 3.455554678348442 -0.8136001414676246 0.2572710100761698
Ni 5.591073058648981 1.2475107591610215 2.8671964205375127 -2.2737597086688712 0.6956160740509569 1.1995463801257211
Ni 4.65275234067065 1.8570547365152263 6.723515640301981 -0.7272786952615603 1.0627693483722664 -1.0118239676726508
Ni 1.639612919031901 8.951471407226899 9.029885396207838 -0.34748819179221446 0.5956518402504773 -0.5031368636391915
Ni 0.20356637133296493 8.191888525927737 13.137971940141227 -1.097831225072406 -0.4406037781019767 2.0795200639225735
Ni 0.6625210290342239 4.970502358582915 4.493287337619501 1.781041212149526 1.1179259389397522 0.7634888266335302
Ni 1.8249594259173447 1.6717634552861027 10.809482468024065 -1.0611942905756626 0.35539124868937505 2.5094591632218526
Ni 6.45960695559114 5.204272561784808 13.107903411130286 0.016705999900771228 -0.017578375203395533 -2.8847376377534575
Ni 1.3146375444177898 8.663202685513376 11.31557590510473 -0.7662838728801641 0.6885067166996852 -2.159377499670849
Ni 6.325242933764964 2.2522035117597503 4.7563427859402 0.8333762956532873 1.3774050124108344 1.059345153182066
Ni 1.7920633433028255 3.1661328981968184 0.19729089591982021 -0.49313038724578295 -0.0388802220049653 0.7143768995982278
P 3.013461571300615 0.7518236765862248 6.504686738417422 -2.3524436929343358 0.7512452333794869 -0.4836350461608381
P 2.896484426939136 1.5546758596119838 12.854655118944384 0.939275663991279 -0.5347948568641048 -1.1754065496547241
P 1.4349006153302994 3.1036174552427576 7.984344066484532 -0.487075953521587 3.07574797692918 -1.879082775005996
P 7.531058322404505 2.6295512171171787 12.06528535948151 -0.25855476188459986 0.06569065732959008 -0.3303805855776504
P 1.1780829048909267 7.0506503380781975 5.161670570072076 -1.8151813483663448 0.433714250070995 1.3477501656588788
P 8.319993640037664 7.536065448577504 1.6799902372225486 -0.5006665477218281 0.8168376745683159 -0.4823705776261177
P 6.046804378876373 7.6816310743605545 7.665044968912495 -0.6130800630292538 0.6946768500661391 -0.738075271656432
P 9.042621352982799 5.600709935676795 9.037293918003146 -1.3354703198502613 0.1053254981123928 0.49819237514972264
Ni 4.962835196630511 0.7985132872942301 13.433439326156043 -0.7532442660873866 0.19438311230269747 1.305100192198836
Ni 0.31913342060307737 5.9519635184230975 2.2885999805573425 1.109330226850941 -1.0942915873502639 0.0795951832258242
Ni 3.896602654339371 3.6909054931000655 12.931495176720206 2.5518026611850697 -0.0491216972273154 1.8507319917774447
Ni 2.992890014321474 4.683356558547897 1.7893370367358359 1.8854416273444885 -0.34753807119354346 0.09140863092098452
Ni 5.330951013106472 8.5331554691562 1.912641200456358 1.328120050132777 -1.0000580853859744 -1.019760191800592
Ni 4.992758298079812 6.108003610354812 2.9553126369062426 -0.34408430831698805 0.41564068039873575 0.4477576155379385
Ni 3.4756542933174273 2.199361762937715 4.1432330720429436 -0.13160577196516043 0.4206152507951917 0.4092579168008436
Ni 6.940834120486191 8.437624287998927 0.07979094867851332 0.6191892612507852 0.23890459175384018 0.3874163954457199
Ni 7.412764966567403 0.26374484859709163 3.945500370872565 0.10436879062607833 -1.7994048022583786 -0.928068225311234
Ni 9.014032871561227 1.8918100828925137 4.179659914951512 0.2247987484800774 -0.2829637868565836 -0.5236537526456208
Ni 6.427115861122966 8.859999311809133 9.619514081465503 -0.8533725362695561 -0.04660767255621005 -0.6543478114297892
Ni 7.221564540112055 5.584648473963774 1.69036253590702 0.48553380584544764 0.17276090604723152 0.5825914075220935
Ni 8.636427446474306 3.1750610459685267 6.188014541230999 -2.4222206045181576 0.1615007597523799 -0.532002124610316
Ni 5.017039178308436 6.994320168631959 0.45686620746476375 -0.7442690591719698 -0.9466902112877955 -0.9419043598633778
Ni 7.39973171167592 4.515608627476376 10.611453389164769 -0.07944348813930834 -0.3401970574474399 0.6928459675049874
Ni 5.49265173481097 3.4476732941153743 2.7440008672744196 -0.3396350142963828 0.9976744156451464 1.8647272776152723
Ni 8.946013271527288 5.844411552740205 12.902316701203619 -1.8777704839524758 0.20062909321240932 0.7401542656726479
Ni 3.565202695040052 9.08980247203205 3.0789398707162356 -1.2491283048189068 0.24276998824651738 1.5656326466350972
Ni 5.183894294602785 3.70683809494834 7.955797924732806 1.1569524567145946 -1.2818875015277986 1.0885729396989317
Ni 0.2802361500018018 8.124163462727504 3.5270923900413336 0.025743170402375018 -0.5958511007454771 0.7410181563348399
Ni 5.362319185896143 6.778387852421376 5.623698535547534 -0.42299223566780053 -0.6758103521789394 0.48094978601919103
Ni 3.784420937801665 8.682863019163241 8.148250132731402 1.6208234328746278 0.06106987072812708 -0.3582500582944088
Ni 7.859982331445485 4.0203449416000305 8.125550547128737 -0.4210312552866878 0.4971135402632471 1.3663189298000016
Ni 5.814893439437249 1.5489139828026135 11.483011811218043 1.2791554473086164 -0.9136353377153555 -0.6484314459453542
P 5.431038310910133 8.120573795066713 3.941755150946474 0.4370530846362408 -0.3949589836796682 0.5192021446321703
P 7.975891779784781 4.2774663931491625 4.312177559001395 -1.9152455980797982 -1.7709234069892341 -1.6933537388338709
P 1.5492913581207992 6.487818061694526 11.77151432154332 0.1644115056412717 -0.7849968759086351 1.7602358453684006
P 5.640297526982068 3.9531261135827296 5.871262266842912 -0.4985147914861479 1.0675983943297935 0.573053129014355
P 8.05064890988974 0.8474993648775354 5.9793968631999785 0.18648776871502076 0.34753807119354346 -0.5330627046643465
P 1.5975125603640747 0.7506933914868787 3.052819055704556 -0.11215717632224555 1.983543096904616 2.211423826744127
P 2.743288456307894 4.399423050855481 3.8029187713859964 -0.05268267510569636 -2.9247013226305887 1.6813608281380528
P 5.262885391692267 8.5641830837319 11.788030474493375 0.3170951813226539 -0.11326197935065009 0.6408819157328706
