# total energy = -340868.82418245083 ev
CRYSTAL
PRIMVEC
9.28630154704583 0.00000000000000 0.00000000000000

0.00000000000000 9.28630154704583 0.00000000000000

0.00000000000000 0.00000000000000 13.59144098784745

PRIMCOORD
 96 1
Ni 8.538345811889432 1.9437808120315274 6.533351556340419 -1.303822096817361 3.3651744886919723 1.0547601049145447
Ni 7.269697705736147 5.195072902812698 0.3776042426999813 2.0784340299472466 -0.601205423078855 -1.3833856554743014
Ni 2.4463740324043126 6.788518697073565 8.682145122276975 0.5499998467393172 -1.1032971332829837 0.08944996453271692
Ni 0.6002201100993124 1.6938028566859191 8.754477983444849 -0.7945071293919156 -1.1871724319414005 -0.8096421852611412
Ni 1.3814859580573113 3.568354289576263 1.3647028250027358 -2.438987796674167 0.17949976743296184 0.7483601985222079
Ni 3.2291906927454876 4.670889030997491 11.187931055669814 -0.42754437381485727 0.5158699949351438 0.10476628317481312
Ni 4.4287951457915025 5.033296240972517 3.684408916387668 0.3049454333339974 -0.2181966697825274 0.19398896218807238
Ni 4.403034944887727 2.7740226151324636 1.541350570378355 -0.05586081572336186 -2.384155679325636 0.3332658775452454
Ni 3.9281334761714155 7.526575383241633 0.4976640514327264 2.450112702942735 -2.339179628835578 0.5408050676139267
Ni 9.175729701374795 7.61344873560458 12.631898966056239 0.10778295851394985 -0.1605733628421041 -0.20751245059580392
Ni 6.585390133782586 2.0175233337968037 0.19515905917575818 -1.2073622766257142 1.4158370911347875 -1.3198770933976947
Ni 2.289899848832356 1.7531051793144363 0.6173867674139188 0.1595220387594543 -2.3399710143886217 -0.7586842061560353
Ni 8.324194408485699 4.997209672583162 11.569075236576182 -0.5296225686345458 0.6727692513597703 1.022897194767677
Ni 7.639422521447356 8.280706657644899 5.543568304217448 1.6600525535785797 0.4414974935608396 1.3693929407396352
Ni 7.132901195457304 7.690153587610775 9.341016585255938 0.26036790383393865 -1.1856613946135128 0.042639431937081404
Ni 5.726110065279306 2.873915362472733 7.623466797873864 0.33532301718459023 0.18999475342701472 0.044712769526342344
Ni 3.4019344768882496 8.53567135700108 10.213695858475894 -0.1150470962755309 0.6448007911713024 0.3437737190551047
Ni 3.3009738048529784 1.0558989343055978 3.413408631263413 2.2702033587761803 0.14885016086790495 0.6485605153240507
Ni 0.829559259926305 6.908609150601905 1.2153930231889847 -0.2612225385247501 -0.8633072788847649 0.32620202871992854
Ni 1.7349597458011068 4.7736698181651125 3.32367788386871 -0.45272421551459446 0.21698645152451015 0.06316866223868475
Ni 0.4882365979512872 0.27205985214773026 6.409411002129056 1.6594354888198712 -1.9580791483055566 -0.8566555778962021
Ni 0.5746994957792856 3.9920696633460695 7.262966994267129 0.8608048241778853 0.22699292791791875 0.35476441373865353
Ni 1.2494347479449537 6.944509992957347 3.6982993664640436 -0.6727751648970413 -0.7797960484339861 0.0005502160765151814
Ni 3.198601614959967 3.854140224260356 7.565920514895997 -0.1260226214504281 0.24449417002647572 1.022119178951072
P 8.077810251896313 3.156506809373517 8.37675859060384 0.8485391194366547 -1.2547286817248198 -0.7280042605736753
P 6.512158358610572 0.001793184857432927 4.20101888053989 -1.6544177238903055 0.4580600259052111 -1.8685944738801628
P 7.16817056929744 6.943572076486085 11.898558792519397 2.0060371642420747 0.8288614385020694 -0.3759695870613589
P 5.844278254356643 0.7533558682116774 8.895802494430498 -0.7707107983032662 -1.1625597755990429 -0.4630903892402669
P 1.0953657165121744 8.664518793028432 10.369400207637279 0.6578959337923637 -0.45374982856563145 0.07773704697116289
P 8.703214812194268 2.7054525634116726 3.0392226762176064 -0.09167294032596471 0.07824586828678139 -1.5431457783864906
P 5.2963678817090125 5.2165706912381635 8.192526722633373 -0.7563205910198652 0.07473836935415515 -1.5932113275843143
P 1.4907764427135937 5.1014855543237845 5.417970145153408 -2.2888824232429226 0.44676568393831445 0.44668109464430816
Ni 5.016153728042318 7.628576121066819 8.574772258920847 -1.0910512260360954 1.401252251342077 -1.1564536627013051
Ni 9.006124687205169 8.578230477672312 2.713857595076419 0.5061221715197606 -1.7425955065788183 -0.716650783234069
Ni 5.736965751961538 7.333819618944713 6.250473162717238 -1.3592558523056333 -0.9250996296012133 0.5125013355732271
Ni 0.10478384244337606 3.3080871119518584 10.257596849742152 -1.2210053213304455 0.021960306321175082 0.15916696941288072
Ni 7.8153143618649485 0.22906984707781833 7.8097240082441575 -1.411853166786375 -0.7383578358938574 1.280880143309207
Ni 0.2696992742566922 7.818035248261778 8.605991876591503 -2.3236545366167856 -0.8785647192644677 -0.32039930599522237
Ni 2.3246399034758394 2.4320266962845105 10.228062695829257 1.0976535618439611 0.3905235736161339 0.5957426001920707
Ni 8.997302700594286 2.0111064993250993 0.5323112430592528 0.4141319570636932 -0.1120910989710005 0.08080000216720278
Ni 7.444373040631606 4.5404907825869625 6.818363942093263 -0.7683626097860637 1.1295259850725259 -0.36967964028758915
Ni 0.7093713002301597 0.9238969415922275 11.863711016776243 1.2934073292419404 0.7697024116434099 0.5371031932823073
Ni 7.465322937257027 0.6574515874496962 1.8254937582924848 -1.2649634720789507 0.3647994293771524 1.1214396085199654
Ni 8.290949448415217 9.200050525515742 10.652074302623156 -0.6443145955635033 -0.197831218752298 -1.4322391866418946
Ni 3.7392500996815876 2.9673727027379067 5.277583550639021 -0.016644807645532625 0.5760394653361885 0.3768789862495057
Ni 2.536386154740394 8.678578253795669 1.79996850082161 -0.763448203203582 0.5505078967239874 1.1345964576168976
Ni 9.177104074025754 5.408202813029908 9.217905297785997 0.9561680688712436 2.0183429781926208 -0.7470602487638618
Ni 5.348185445170825 2.238398019628198 3.7880161844062035 0.5966761677499336 -0.2541098387393688 -0.8547668455139215
Ni 3.9968892539261196 3.0112226193448373 12.61689415977638 -0.508814373639943 0.5572837819952402 0.44487618022508546
Ni 4.510068858231963 0.748562279276375 -0.07527383291489156 0.7764471865664111 -1.138110384307427 0.48635912996022046
Ni 1.2226251949495686 1.3843461389795761 3.006820912341092 -2.4720611821893685 0.42745052854947024 -0.7218647233348408
Ni 2.5404071233746173 8.45454622538775 12.737083048102697 -2.3024316226822674 1.2413715436916233 -1.372123966517553
Ni 3.3746420362046896 0.7018493958566709 6.078704440252522 0.204969372458976 -0.24866887022945564 -0.8101288950895725
Ni 3.7241598594261323 1.5072689145250948 8.530993846836973 1.2751699802983072 0.10744717244108593 0.0018049144192226981
Ni 6.661834969341301 3.4172383020827057 2.118348425827318 1.3399494386675375 0.7108246634705951 0.4098940077229457
Ni 7.096926062688298 4.685319943832555 9.368825344313777 -2.3254064863108854 0.379788703697133 1.1093615943095088
P 3.5093677012053988 7.981019129322395 6.841618698799547 0.42626319310958843 -1.3821556397219423 0.013394933249667253
P 8.20754917288645 2.431450945579379 11.96337717835514 -0.37079524194927105 0.08200147867447168 1.0552766395396471
P 5.663919702823436 4.031202138691602 5.334409216605304 -0.06097499702147564 0.12232820331797643 0.2379311720969773
P 2.03610522348983 1.9496311820997962 7.149709401526458 -0.35733063180393293 0.4842371985212112 0.0892267927783173
P 3.7572562386694823 6.961782514111284 11.68816369815156 -1.5176885146556507 0.27811262941186937 0.4030265911791511
P 4.9580214794274555 4.309011140219119 0.37635152060123606 3.890523369651828 1.898257548162234 -1.2797833107006023
P 1.8283427956527147 4.548012686960451 9.382878304669825 1.2812915198150125 -0.012515615968507478 0.24729975779607088
P 7.992236981770759 6.406665971347817 2.2743917250005956 -0.1131748189534825 0.6520145353109222 -0.6040290085705791
Ni 3.231530840772795 7.9935834955166305 4.469749593529725 0.7979295248099032 0.2867690195352868 0.6976922398536952
Ni 1.3209299846998792 6.02832346766303 11.34069814760486 0.04112608061634852 0.5993868818128775 -0.3029579705903234
Ni 6.437654360106251 8.042652313676525 0.4258540090503179 0.03503153768283644 -0.13919515427664414 0.09098542734063685
Ni 5.984315683927273 3.58164298730276 11.608558734125811 1.6365449573749427 0.7259988001078722 1.34584472110605
Ni 5.428391232916283 5.948544849795572 12.423935954102495 -0.16249012024884274 -1.1758986587997944 1.6513298289936014
Ni 3.3292320209128876 5.7314311161509215 5.969741762046096 1.8160017873851113 1.2295370129505403 0.4667621816648993
Ni 7.01457513925114 2.1199976730084678 10.030538415611613 0.8790946236260087 0.1430114426989408 0.03514466622193302
Ni 7.510259351162349 3.091298398866557 4.813218319826611 0.9722009539643902 0.792748494829596 -1.15860310494414
Ni 8.489722736210929 0.8416834554201653 4.415682887797224 0.3851440544717754 1.4439274216131004 -0.8385586111851752
Ni 1.2576716975490088 3.35816813699658 12.339017368246488 0.147530670725533 0.1326532393930683 0.6788990184065921
Ni 8.599505394857081 6.298777718247579 5.241131101962857 1.6213883042391624 -1.4207119027285853 0.47434899287322174
Ni 1.2527035261418278 7.220536024559295 6.447739283747743 0.801644254657329 -0.32716902061888814 -0.3588866634371432
Ni 5.5801294026234505 7.31889653211978 3.7037216380241427 -0.01356179784483471 0.6574475334010355 0.055163275435705005
Ni 1.345835845847653 2.8995269825493772 5.296530391988687 -0.539714148542593 -0.6205612018976474 -1.1545667300912374
Ni 5.740977434294066 6.08459845593876 1.5746633204512146 -2.1524684312558415 0.16759658823747267 1.8036455798126032
Ni 3.0600035621521653 4.891884438750928 0.9862451711769228 0.2502896936623302 2.2510064741327556 0.35010788880324867
Ni 7.054274079000107 5.383900561492351 3.9276273727290016 -1.0644737326578828 -0.6304090412260046 -0.5189620035969063
Ni 6.221552833346428 1.4599459210839854 5.785604614352923 -0.1658271550418757 -1.5483224374914237 0.9913739273484151
Ni 4.741567073203198 3.687581117046907 9.719308014281397 -0.6426788597322931 -1.245581468007913 -0.9887686285150843
Ni 7.805470882067542 0.2785723355269002 12.84086768448362 -0.1713840803043629 0.33981550573830505 0.8391538215670129
Ni 4.81531888127017 5.9841299578933596 10.097162987127163 0.6934537762923154 0.6017026744302476 0.7328397342891056
Ni 4.742737147216851 1.5155801545427148 10.896027305428616 0.2769157808902908 -0.866862857446507 -1.081735605062124
Ni 5.796323792400229 8.627995768459382 11.683176025510818 -0.3536554969451909 -0.47579600973239355 -0.5015900879773619
Ni 2.01251801718284 9.113242177264665 8.135469827754868 1.527539953528434 0.23165742327312364 0.32090915575210543
P 3.14677476519646 3.343746510463212 3.0580608678374324 -0.468624945905251 -1.9143739941081224 0.9670271230729345
P 0.7318794382801128 9.177401235680014 0.6757158856247304 -0.9957802839462269 0.45381564880656033 -0.39832790015190106
P 2.9645125218156414 1.2651936019224974 12.092481844939462 -1.392906193370227 -0.6513614751079556 -0.6666945059206002
P 7.847212808189558 6.882663223664217 7.271665473065458 0.22841551929705825 0.09890571062897804 0.6015900601117833
P 1.1983043708086216 8.888300091290569 4.394628984592812 0.11825274769702215 1.8558376884351264 0.5303712738751124
P 0.9845429920761074 5.222885376391215 13.419699584517476 -0.254852116222032 0.2705800684802501 -0.43761152824287214
P 5.1094439148769695 0.6337668749749025 2.0922121297048686 0.4417453479055876 -0.2211099867745805 -0.5083068378759052
P 3.4758070068772655 6.724898244156563 2.637446190203809 0.280673191050194 0.26347713888688173 -0.5508236281921933
