# total energy = -340862.2943519723 ev
CRYSTAL
PRIMVEC
9.39524704608210 0.00000000000000 0.00000000000000

0.00000000000000 9.39524704608210 0.00000000000000

0.00000000000000 0.00000000000000 13.75089373806765

PRIMCOORD
 96 1
Ni 0.9685184437659098 8.86783551992188 12.662167135124207 0.27476890975061713 -0.8711398875553062 -0.7592750456624988
Ni 2.8475490756295425 3.7821412820747815 10.405549038035453 0.9768929601234209 -0.3432517851133637 -0.8502429895016389
Ni 4.617876698409773 3.7606355614358957 1.0258623345127156 0.15246898856741484 -1.5545540202234325 -0.42574305894006037
Ni 5.324605976652786 1.2755739098734071 7.884253676461637 -0.58119298451267 -0.32424721898640285 -0.38323603881578516
Ni 7.378510343008153 0.8670770211752097 6.642864373204475 -1.4662705651949908 -0.0030621838650915 -1.385334551670556
Ni 6.199660502150617 8.976942524631088 3.8731182784323703 -1.1942298530088142 -0.7984859115340055 -0.11689571944849546
Ni 1.0138786968216285 3.759761803454499 7.08454339565209 -0.2457190435725123 -0.26735539089536536 1.123328598012562
Ni -0.07458135062280567 2.931880813704963 13.122711813772293 -0.2242073947529816 0.779941829983231 0.13720049244411855
Ni 7.132101197007255 7.76311417877636 12.098064284711132 0.40253422492376484 0.3124029180533071 0.38477484405781476
Ni 7.154255189696856 7.979618253220432 0.841552953346612 -1.5301352250594358 -0.7272966929836894 -0.7945246128934124
Ni 7.9513197689197215 8.260122750990012 5.3046551694109025 0.5489824612183964 -1.2260796505295593 0.25723012953590535
Ni 2.687247369408194 0.40717967505312447 10.791137495700973 -3.586694566420778 3.120771335717406 -3.31028400730168
Ni 3.1956899573568944 3.2749576572390606 7.768595365941377 0.8446071313721003 1.1955655411011024 0.10399135268200155
Ni 0.3551450384491907 5.536111779633387 2.50623759902775 2.3378151443878834 -0.07622061032663648 0.935498199226718
Ni 4.769515986794052 2.6388054752998085 12.067935606273046 -0.07606840101948835 0.6263996629562953 -0.16964730011891427
Ni 1.1384220925355073 5.092994344852957 5.190893759282512 2.32840670658979 0.9360455870897557 0.03866784888384309
Ni 0.05721517586137437 3.2877164028168706 1.6035601074965484 0.7460114957843733 0.24787337091135378 0.6227211856634437
Ni 1.844333984279795 7.3448283821123885 5.214792449360772 0.147826604699397 -0.49553334026032075 0.552506672321571
Ni 0.6538744365662204 9.39712616121164 5.332431277972196 0.34596661294136544 0.8991044910890323 0.35356216590043626
Ni 0.6104862458792663 2.4864709386292567 5.198044481859295 0.47389879270968066 -0.5307422840612859 -0.4876408248861215
Ni 8.767456699779522 0.4419035688535865 8.265566357166582 1.2060990936425744 -0.9053121625616408 1.1576831642330319
Ni 9.184107723446042 2.7598820248294365 9.403672769399135 1.3743299730299365 -0.5901216544608675 -0.21595312516398937
Ni 3.701990428964107 8.686291159980774 12.060620466871807 0.033620002047290494 -2.4392850161996114 2.2702676363552126
Ni 0.6529696742693551 4.365013017643077 11.334050305778119 -0.7481159437218858 0.24012895107924453 -0.6573362046341518
P 4.530998848367058 4.775397411486033 6.970176931609701 -0.5773535561619219 0.054240763621435616 -0.4382478762752904
P 5.4132219474111825 4.698055737261783 12.81221674769717 0.41521079195016886 -0.3427697032706226 -0.24428359667756638
P 6.659012923940217 8.685492563976272 8.639728315294747 0.7205784004232493 1.24979087810357 0.827488983634575
P 7.751698953535535 4.223933987012448 9.818509570848367 -1.209607621016465 0.44734058260517795 1.6111460576858638
P 6.040495620829795 6.211573675488365 3.828441059841679 -0.4909356935873094 1.7776581546099064 -1.0526140051058193
P 8.192213904866 9.141613020759417 3.011995964876613 0.24381025658557365 0.10206225398008875 0.7904805247310257
P 0.9568683373472912 1.4819029316954115 7.268158468056632 0.5795166252515117 0.2636380899447782 -0.22785244770473662
P 1.3499748717516666 2.2644518541305643 10.89659350738254 -1.0097262046033577 -1.2634578340677016 -2.0892910272664085
Ni 7.184179051747904 6.940654246610325 7.626699888336735 -0.08043541973893245 -0.2581259018772974 -1.1172206853426114
Ni 4.852635737992053 -0.18004205992792915 9.676848034896809 -0.898218231829337 -0.7394330712359071 -0.16185428643705674
Ni 6.158650248507656 5.240058147893794 5.679532105844273 0.5969271074184752 -0.35202670309251627 0.8909872612985364
Ni 4.536278977243883 6.622559365146476 8.368725230929318 1.8161665950977497 0.01613675766086253 -0.42465522519252025
Ni 5.073903202721802 2.49872234086303 5.891653297510696 2.175265888766331 1.2044114215275064 1.393691922496316
Ni 7.115358866654047 1.6140564775698396 9.49699951705938 -1.5981403894548154 0.37407854068623314 -0.3309405718461784
Ni 3.19178153455839 3.57451571615135 5.236615729352035 0.06713587441654889 1.7679758943251358 0.38975892753596747
Ni 4.401626295637719 7.317873418148665 5.434132948907892 1.917984851387832 -2.8834795969766405 1.019043882459858
Ni 3.1280347829049 8.417333420911582 7.1021857906786074 0.2774022336084061 0.8896397461317065 -0.0008916585763339483
Ni 8.414580613507828 0.0686144291821083 10.738581422882335 0.6247721546552013 -0.5755319295721507 0.45901621917089336
Ni 5.199677375807324 4.251743918463345 3.4797740442760667 -0.1766761819412377 -0.5624537562319539 -0.376787454976964
Ni 9.133551898737503 6.618989171243996 10.771721278019749 -0.5400514772773538 1.098960710691159 -0.7293139805240343
Ni 8.993722435972742 5.231358149068278 8.328806705000748 1.0282620586240163 1.2567292570946162 1.2167583731286333
Ni 0.7548226086835516 7.70142498624035 7.573139463601846 -0.8028729848581077 -0.3463219393982552 -0.50350555983252
Ni 0.11596365605139274 1.4564324167753506 2.801043541950897 0.7958111929153198 -1.2374092166097659 1.8686320119863173
Ni 8.028990276792884 6.986568819245639 2.7216865872211686 -1.4192882829081814 -0.15846043026415935 1.1199221434341744
Ni 8.523039346166323 4.569115365899586 5.024988727683693 -2.6848094272628154 -1.0155289273280639 -0.5716665330794735
Ni 1.883296074052385 6.443081959569965 11.557928709680231 1.8086826280158788 0.6497871886423002 0.20930785193332985
Ni 6.805738498085032 1.9680693887420597 3.4964806726902506 1.6141748172098587 0.17813194055115772 0.5563417297969451
Ni 7.886445587612817 3.3838767570060337 7.343595725691322 0.11094747228486053 -1.3405631609921365 -0.8019103638345222
Ni 6.2460824181299675 4.650797644289483 8.292160543641213 -0.6706828011443868 0.4061605088224424 0.2669450428308241
Ni 2.2140275628815913 2.893087838380385 12.591954574408382 2.11425206808712 0.29024515100934534 3.0069244303975635
Ni 7.601093142333553 2.7947665773555106 11.682099114083774 -0.573061099434155 -0.619784471632623 -2.1987259195614843
Ni 0.997446409623109 1.2794729374247997 0.5745851276156971 -1.3772391762569314 -0.007324558685871257 -1.2007776814296611
P 7.867908765061257 2.5287589458794204 5.315517954121552 -0.7678874699218582 -0.3603961581031342 0.09761475973169641
P 0.9773593712981035 8.266718214462488 10.047172974104518 -1.8357671429374964 2.488084039980186 1.0541777500485137
P 4.670292782046445 2.3776082103449543 9.78603020158291 0.006555027509698387 -0.5370281170699978 0.002903289689724032
P 9.015293923341412 6.583446951420098 13.453888637314598 -0.4469325485334819 1.3150369916965738 -0.7612229134174889
P 4.141678598548734 7.232404855172717 10.513685513718013 1.247319276634626 -1.211470642367133 0.1592001366436613
P 2.3968590716770106 5.860426314685241 3.5793439336420985 -0.11129534254258254 0.6813891318182974 0.22770640904517558
P 3.0727531488991318 0.9795954401107094 13.580025466938636 -0.0079364812382573 0.22891354197939928 -0.8926325102114433
P 2.396558423769433 5.08344877378738 13.205395625504307 -0.5790625684332286 -0.3323449083928728 0.07635636457355237
Ni 6.956701328677262 3.3457696347206163 -0.0025987253511209154 -1.6251688543275171 -1.1061063205970045 0.3879311302986093
Ni 4.105769964087474 6.379053350503121 13.575624733191475 -0.0673778152240259 0.6299462426569732 -0.5543694365619227
Ni 2.4177541012536303 9.115024471433054 1.428277679755452 0.6142409161065744 -1.2452127718145845 1.0104895651319437
Ni 1.6570773140947228 6.951543338012889 0.6110856626449984 -0.026616317035947707 -0.4615186738777729 -0.501780349611297
Ni 6.763469281329091 0.8592883613195365 0.28712814698339223 0.7611614640519343 -0.6128545772820091 -1.69756366315016
Ni 2.4864239623936983 7.219204532980654 9.1553864530253 0.40053442088491664 0.769550716556894 -0.7563568435744393
Ni 2.8684816861946087 1.4321832839798225 5.9721235890231705 -0.15318298391530394 -1.5131867701305552 0.11647585830225747
Ni 6.086720236619797 5.555916960545039 0.9371552298573349 -0.9134540749424848 1.355427993919111 1.029809348506478
Ni 2.8647799588325644 1.1813301860950487 8.419397556702043 -0.2818558985043855 -1.2381486658789516 1.0820536505231753
Ni 8.203732477825053 4.9462593754610324 0.842393827963117 1.3316432327946872 1.7111979661041432 -0.9914189216537378
Ni 1.0353656269662905 8.076511436684314 3.138064209196735 0.08854545044057653 -0.3839829442841387 0.8715597487015442
Ni 4.555341933633704 1.5846681446041628 3.981378771376807 -1.425615767788106 -0.7443716461881051 -1.948354207708309
Ni 4.934703221513531 5.060045213231913 10.710681297059166 0.2576757017137562 0.24179836836186744 0.0784340730381875
Ni 2.643860118245951 5.916187106293711 6.993897111992835 -0.010730241933310552 -0.6710340138362185 0.5428755769897102
Ni 7.6421033959765134 5.343236751675465 11.880717456601134 -1.0896898269121944 -1.2676836992235911 1.249656666518551
Ni 2.6496381952197017 2.2366137369383328 1.770455398140951 1.2467832016254978 0.16449275250116832 0.5419116704145441
Ni 3.9742177140282013 6.972832967968204 2.191204628597633 0.49426167263674875 0.7783179212265628 1.3821445839783486
Ni 5.966254378152435 0.6189673354470785 11.506967949821176 0.4156813038286841 -0.3295310930931615 0.8837897151088328
Ni 6.658345861395281 6.552715098117434 9.889271753520228 0.05405641552477142 0.6461819877895452 0.4648950465491735
Ni 2.846027045597433 5.080968428549867 1.655167260356896 -0.9728051632072923 -1.707789968863859 -0.6304211254108627
Ni 1.8048363654218327 3.5592296491004687 3.4454099884399865 -0.42308659515381974 0.2777655304850958 -1.003632433000794
Ni 3.465568430643042 8.689213081832541 4.117223709841457 -0.6641342013925917 1.9758416144953002 -1.8805740148395418
Ni -0.037522737915064025 8.494289890004248 1.2036532932326602 -0.22841320530421308 0.8409278827483002 -1.3265354792544766
Ni 4.835376669047695 9.193221113144476 1.5385741227490133 0.28841555399977425 0.3925233776549821 -0.1512142902247073
P 5.686633033611363 1.8685737218282112 1.7470781442773968 -1.755907393196376 1.3350946816783975 -0.037672831960425444
P 2.218687605449039 1.0531696202431313 3.8593260556722635 -0.6281634397249375 0.6158553117815458 -0.689110154611639
P 1.71613583743943 5.307215374248865 9.349769418144666 -1.2496299270456737 -1.5448208520960685 -0.45292141912706513
P 5.144433322790003 9.269510519692204 5.931337881786182 -0.2507987720882648 1.5153308130567515 -0.32406955575795804
P 8.709131005709533 0.8926978600490592 12.868815595348012 -0.9825002790078692 -0.41475467824935663 -0.15337735931429713
P 7.772669145089049 4.656406606815222 2.938428361417169 -0.6506076276610667 -0.6375004008551473 -0.1317096445328764
P 8.750686183684977 6.210512012564734 6.354989304075695 0.6937139719322375 1.338926653829978 -0.28705672597903464
P 5.260906201234855 8.416243572246614 13.21865137965433 3.908635762981823 -0.5127293924236331 2.3747834940821164
