# total energy = -340872.7503018684 ev
CRYSTAL
PRIMVEC
9.18006473064958 0.00000000000000 0.00000000000000

0.00000000000000 9.18006473064958 0.00000000000000

0.00000000000000 0.00000000000000 13.43595266847148

PRIMCOORD
 96 1
Ni 0.890755439059011 7.985517881377658 5.101886084628833 0.8060346704155408 0.13274914154098427 0.31619503810588767
Ni 8.534935568131369 1.1049676566658961 9.61741482052584 0.1991684495064828 1.1770643969731212 1.815723079802428
Ni 4.6591398306193526 0.6303840205876999 0.33289851891071176 1.062144313193758 -2.600143257271986 0.18596326367011842
Ni 3.1714828206191985 3.5957945868883643 2.2105632297510134 0.20069259946049306 -0.8842152326820255 1.0005285972644897
Ni 8.798385062265908 5.721548707760274 0.634843695974506 0.06565594743691273 0.38118764092718865 0.14455436170602848
Ni 3.3234312500189787 2.359662167096317 0.135321496380877 -3.2023305846481365 0.3533467074555205 -0.37119453427021876
Ni 2.063274601146505 8.500804087916991 12.288172853087696 1.3292721614593495 -0.004168529555392821 -1.0099851146916994
Ni 2.971421672606306 1.2802609903650746 8.938818018620793 0.12361092668514194 0.03950731406600293 -0.5797899335175563
Ni 2.4823812707826542 5.823309723945421 4.389982172311253 0.11217003183805198 -2.1365733572921397 0.2732727848210648
Ni 7.409845209843655 3.4289193724351748 6.32932773725602 1.1318962850769152 0.6838409357928997 1.0991013500340812
Ni 9.102575683132939 0.10226316571923205 11.694894653647525 -2.597554670609204 0.08700587386759855 0.3454570202947986
Ni 0.027651272607242462 5.83233372745557 8.675970736724572 -0.9685466450412544 0.1297628052191507 0.11285343105832175
Ni 2.5861619011816703 3.936053681602166 12.016753226860063 -0.5091079936209619 0.6665682647553811 -1.1939035800176472
Ni 1.9939834734815978 4.464127718141131 9.409304591864219 -0.031218334584333332 -1.1389074262874255 0.9719520711783776
Ni 1.2707871636891095 8.705831650883079 9.881310465800352 1.1392049029231863 0.5593342367663657 -0.14375217751970729
Ni 6.558669619344164 0.09498612850407946 3.6874566139977087 -0.05254434975561919 0.8343060065564083 0.682563868852689
Ni 5.5090761123966985 2.5196798732869627 12.379375876966616 -0.5032685041210494 -0.3690638610804612 -0.3047909100340041
Ni 4.152987788365469 4.904651478508895 0.03525328410953571 0.5622982044906961 0.06827924399237273 0.5604441820010929
Ni 0.006922686721264745 1.0960262737372237 5.005107089506715 0.842097477576369 1.1048073992799232 0.5516666929187789
Ni 8.847223005983091 5.295841571670617 4.9828711370120224 -0.3227372100997797 0.8190619359131442 2.761616763330857
Ni 8.447045629569654 3.4173065907054307 1.4579218627267831 0.10082375358729734 0.05926007121289795 2.292329244140942
Ni 6.4168376211429425 5.424031993863617 1.1042699717556506 -0.04623357704624296 0.1755893766349621 1.7729625489064498
Ni 6.283910285611961 7.9510559188373735 6.259998053319757 1.1172430539401146 -0.27701811079611005 -0.6332274845114062
Ni 2.6990766958661374 3.2866375510681376 7.347060911973249 0.6166222718545574 -0.30428851647628885 -0.25522646884231526
P 7.5346665483253386 7.766398919237532 10.085603623597759 1.7625788916792804 -0.11882558948135664 0.21257623827195646
P 4.228750861579364 4.084357625352374 4.3427681820233115 -0.21600249034468605 1.9707312898519285 -2.39452108172036
P 7.3061288398969 8.592026389931588 13.35307962580859 1.6599733636012124 0.5274258180935433 -0.1630768459902482
P 5.0824050695231495 8.155009414244269 2.5028353727368384 -0.8775720163338951 0.3117657986899405 1.1016218024630897
P 7.764884208577131 5.508350887292627 3.043310758555416 -0.9894026625546574 -1.8016956551750842 -1.5059509145037482
P 2.2840826951745923 5.6400848144245055 2.0877853736511813 -1.033861921309297 0.6200019869600677 -0.9561608697823919
P 8.490806997558343 7.294011154613687 6.356266636849644 1.2007041478792482 0.9226946197041463 -0.7728959788800431
P 2.043445661592159 0.7171448112025696 3.980683483702817 0.0007954993181018558 -0.3398281041437954 -0.27161159506855803
Ni 1.175819395314247 2.1599590416031553 2.441460214783835 -0.3658692654025634 -1.06626373467877 0.40679891373738974
Ni 3.836973244282699 1.2452574040128896 2.6201722045432163 -1.4369749015546671 -1.9160328698677842 -0.7753714370037291
Ni 5.409013408164122 2.436361606900278 3.4485390065164463 2.4306167990016525 1.5338314429641005 -0.03457465265107594
Ni 2.0971857598102783 8.295446042624997 7.657632595749645 -0.5681785745308731 -0.8562621991125254 1.1843262207418572
Ni 1.7537595428065467 1.8428796100257991 10.96267617635781 -1.645127299727315 -0.38863432701322104 0.4117146058714522
Ni 7.717542615391132 7.303163679028356 4.225271617092745 -1.0837845171713527 0.69754980073856 1.8241694107975681
Ni 4.376164339062549 5.497169568599483 2.4754402239321727 1.4179947609077386 1.6338506983722312 1.4376930106676142
Ni 3.4425425883141787 7.396185273706218 1.0233128179862707 -0.015409135466218624 -0.09387123352886415 0.726654174303684
Ni 0.8325189451956515 4.4001243076907155 3.384744901539105 1.5815202643996311 -1.9978541142106494 -1.874449904219675
Ni 4.365864306571819 0.6633606486743294 4.87589400811633 -0.05951255354333621 0.06182628927817738 -0.4572264742603222
Ni 5.85799200803631 9.139791665055771 11.04686563087584 2.449093260539285 -2.305776370784784 2.355561669738027
Ni 2.696855120230882 7.786539980988566 3.4853666717063385 0.734673959284367 2.40462243182042 -1.0507463557694614
Ni 2.1389734139081398 -0.007107206019895459 1.552295680921476 -0.7181926737998922 1.4996262578373012 -0.18139492757314565
Ni 2.369503196356622 0.9511832143444175 6.391173832523439 -1.047438631552467 1.2756062965047772 -1.208691536960099
Ni 3.920484292026161 5.476615403941066 9.004627147779699 0.11722250666029489 1.8480870979554302 -0.029275094815033452
Ni 0.5773443612992086 6.735808146029649 10.99617147809482 -0.5688198076592977 -0.23564546138659417 1.0735836653789512
Ni 2.048283555640835 6.252009561097447 13.21710726284697 -1.8741172034706044 -1.331414661723649 0.22040190496396236
Ni 9.195946120265925 2.7479421797771466 12.62752495741818 -0.5316871644730585 -1.4971955369086214 -0.5673864176468809
Ni 7.291128614326621 1.3137039657338154 7.813422882188078 -1.4874256020060512 0.6736933058359366 -1.9793740531285908
Ni 5.6464924995212336 4.2221962954489 10.80961328711456 -1.6809800477598664 -1.144034463101346 -1.7961682975989517
Ni -0.08255448501125794 -0.22334454587941438 3.027510031351278 0.9867400281208298 0.856759450463918 -0.7242859311818236
Ni 3.2875371973997707 6.297001057743672 11.220780118870824 0.1254862893309839 0.035532388578654935 -0.25489685341703844
Ni 7.384829533785512 5.795484948117078 7.059759773972923 -1.2584189860922135 -1.994920999724255 1.018788571915942
Ni 1.4050731487821484 3.894412908538041 0.6931738264968719 0.9568463258851908 0.627618622965061 0.8012105095540202
P 5.371485304044602 6.410631897467601 7.618520930485159 -0.48365972875118635 0.4562553685963045 0.052809944712180014
P 7.897233200037778 1.5131775896117647 2.446821372515195 0.19976057456452695 -0.45095786764279117 -0.1825627226290017
P 4.812208227901368 1.9443835844019086 7.741379571153545 -0.5944264524838085 0.007895857808308981 -1.6056161290065702
P 7.654879494373557 3.99884532352426 9.036349779040808 -1.1463463990639742 0.9037399329785145 -0.9652916284390666
P 7.116826727605161 1.473648231407593 5.530076428195087 -1.3935402274097999 -0.8596776525519776 -0.3382928984461916
P 0.4333155736371758 3.4050787446469175 5.771803135446548 1.0333921807617301 -0.33718680986620636 -0.6206432200884924
P 4.1419992510291035 8.211127149195988 12.082400786881859 0.6783225770778317 -0.760385248007542 0.5685858372716208
P 1.9247015258812992 6.63186227446768 9.27072692656671 1.5699485004016316 1.010486222697834 -0.5487968275701516
Ni 1.6455082209431946 6.15402155146639 6.712575238518474 -0.9644557628013326 -1.281762288803844 0.7250865727062481
Ni 7.171695973770124 3.8486594665293103 13.177431023609062 -0.16667870440889357 0.823500431300472 -2.2538460004640797
Ni 0.39645394220823205 6.607470842802914 3.0313252662025674 1.9542376630722798 1.173221111967631 -1.680433688338093
Ni 8.814128873069475 8.568947707505837 8.093320298081654 -1.3175960106730018 -1.6927024784031168 -0.40754813319858846
Ni 0.44362937622481796 8.150015459097247 0.37262341249104447 -2.3725013829161594 -1.0042983487195671 1.0696830447729642
Ni 6.320630544045934 5.227514350789602 4.754338936622348 -0.46981433822766183 -0.7253801926872668 -0.428295650158585
Ni 5.622229588760986 7.5297735738890115 0.5724431248047341 -0.2726654902543691 -0.4505971418692627 -2.6385671084658235
Ni 3.81618957800907 5.0379184764303915 6.207786435858952 0.9609994288216159 1.206741869432896 1.2827902158477262
Ni 5.219683755678558 3.0231237964813396 5.775767087344496 0.025626956539484897 -1.823649019517724 1.67705680144606
Ni 4.312739272682469 8.95781524432161 6.9609923768566055 0.27407136946296023 0.09102862187374645 1.649886154568539
Ni 3.935291736239661 8.2692920385554 9.827324341850723 -1.3547209405497573 0.0822444479232132 -0.7001142190316265
Ni 2.5031557569916747 2.8092374711680557 4.815606687819433 -0.5779456812199659 0.20967114881001955 -0.10089060226949076
Ni 5.512995999984525 1.507412509037631 9.655961911816902 0.045726041282205115 2.6379729265252503 -0.7346973563231346
Ni 9.21035882170126 3.607646050297929 10.439910053175476 -0.3047155767113785 -0.10308195349385472 0.20536712211802693
Ni 5.697129735901682 6.721505605369616 10.409047593968184 -0.3902230116565795 -0.6271895058474424 0.4172514765292814
Ni 7.317383599106912 1.5729765304714896 0.28877912840229325 -0.5293207211234109 -1.0796954347036436 0.3079340836486761
Ni 7.6123482550424075 5.384649516693181 11.17577026209538 2.059356701600821 0.6021847562729886 -0.7823658660436912
Ni 8.145223465371615 3.073641692021878 3.939017924464249 -0.9314060314352154 0.1507265519550114 0.3947736071417394
Ni 6.040445792130112 8.426160982585333 8.562597856816142 0.5739689559604051 -0.1954130962291086 0.5793289347207378
Ni 3.881129355049551 1.152703992630061 11.473013410066706 -0.7297744651002206 -0.7969499345054533 -0.1276789261069285
Ni 0.3999570548628331 3.490682847121117 7.9513561069500724 -1.1095261449118312 -0.9810023543061042 -0.42232683416965977
Ni 5.478497317185807 4.179683416246967 8.122651522512252 2.2292184317233863 -1.4520338527703187 -0.6480198123292323
Ni 7.4843138939477525 7.59173900999634 1.9130648759835733 0.5758132082579954 -0.19743706863767288 -0.2415140043522292
Ni 4.8351675694872105 7.102432386299043 4.533787884403299 0.19104530617871612 0.4268676594628068 -0.4160736541710963
P 5.081101500348744 2.615822689931712 1.1714092922763268 1.4680963055498202 0.6730551580313053 0.8471337544486959
P 0.5453545901579923 4.810757777693226 12.324073331752132 -0.6826088631580115 1.280211913597589 -1.253178049408248
P 3.1094531240596104 7.493668379783807 5.840957480148789 -0.1650591665275996 -0.029797800087722873 -0.3807680368912668
P 1.1381444101609908 1.0490977834586064 13.218222640696903 1.2934278980672305 0.3640345261866698 1.0993422624002938
P 5.92561236394247 5.588235809515735 12.405562929268804 -0.6125442451304418 0.7465740531560627 0.6304707477018755
P 7.309250061863787 1.7865599136526933 11.361293859794266 0.31968865308144295 0.5748248762027971 0.22732357178446014
P 0.8552129829143077 1.1622788000167195 8.064204805169357 1.3762053356757784 0.4990956036902824 -0.18763653760748333
P 3.5648853093515678 2.994224953093803 10.29781091509415 0.5997591775506316 0.9586039320062459 -0.2420217972265832
