# total energy = -381180.9711504628 ev
CRYSTAL
PRIMVEC
9.10638290508474 0.00000000000000 0.00000000000000

0.00000000000000 9.10638290508474 0.00000000000000

0.00000000000000 0.00000000000000 13.32811186889039

PRIMCOORD
 96 1
Ni 1.0446023040246466 4.239012195178919 8.802498477375249 0.7177116203984156 -0.3661767693406532 0.45328497311407095
Ni 7.278467872654613 8.658858944614373 13.343306223267797 -0.5724772019062269 -0.06805530090702472 1.0585519678568092
Ni 5.890755268736838 1.3055092842846925 11.911719976538432 0.4433610291321396 0.192090716724095 -0.6699904030630526
Ni 1.7097962653891918 8.912380648235178 10.311147490515932 -0.3810634566444986 -1.1035467873999447 0.3584241219784279
Ni 0.8801200817793138 9.092996649298938 8.117433477595798 0.14610525113291611 -0.16618093883686863 -0.7118988703713804
Ni 2.717180781960597 1.9224394155777484 9.813009215241662 -0.3845647849295377 0.5590832970978243 -0.004374474918611821
Ni 3.9878035128483322 2.7886841015306607 -0.10733147297256666 -1.2181768507427149 -0.47096079312727923 -1.3054619464136292
Ni 8.140815026669676 0.26749635902225927 11.380941692561287 -0.5555421167137852 -0.05015656624973298 -1.3048880761880302
Ni 5.1596766261331934 4.214597982269171 6.551220285392681 0.4998049710524811 0.36667710601583947 -0.9488550801495981
Ni 2.4988643551428824 3.820765128885817 5.841284842913561 0.10762586411079528 -0.36710853712630326 0.8681201268923759
Ni 1.7535160103275356 2.182007757532038 7.522093669834156 -0.6431889665994923 -0.10083866598563279 -0.5105488398325465
Ni 1.1055968575753705 1.49636085987682 11.716436324324457 0.7668379456114214 0.7122557394901669 0.2421876333804861
Ni 5.972393992621914 2.3061095454969927 7.517601491084294 0.94314414580775 0.2585388210449999 0.5694625834496193
Ni 7.360297830583368 3.3322441047320206 5.2618456905647175 -2.2049564738522283 -0.5853430021253015 0.9548223534766265
Ni 2.957835166356683 7.154074680432623 11.45984394834514 -1.7789061680843945 0.385491153398549 0.5175964907079473
Ni 1.1581497940550995 3.3715836794318004 13.225152724699578 0.6604238424205401 -0.2925162064317091 0.4226088841864528
Ni 3.005716528340813 2.035568011988713 4.329650757414873 -0.1593592879293449 -0.04522081951101244 -1.1922197645573211
Ni 7.547652555091071 5.328663776064634 10.039893837854521 0.4700174553774034 -2.41678786353836 -1.0186091089152844
Ni 6.863653912764709 7.877713408098832 4.139738049913381 -0.11162470085754324 -0.9940751283296622 1.844483953985204
Ni 5.20545441363685 0.6364833569401318 0.8293519963739262 -0.6325739100878073 0.2024916003424448 0.7323121439204098
Ni 5.3460478612734015 -0.36918005323815845 7.494983967546831 0.39489496321095213 0.27570093464658324 0.8744676663769585
Ni 1.5893916689353742 5.854812374908127 2.4439892909899026 -0.24052798628987607 -0.6554217612202583 -0.1547842669641528
Ni 7.458437320523075 6.792414678302585 11.751290094742497 -2.566007491930542 0.8179237085436429 0.03070077151796648
Ni 0.7326977575067976 5.650929565196697 10.70497943326098 -1.0423144229520243 0.4140167716420676 0.7835737703088633
P 7.3368033623598885 4.02411976838137 7.81288597792979 -0.4666166572259706 -0.08302632039456023 0.2590401861614507
Ni 8.687498519251134 6.699902933076874 0.7750442598838618 -0.5315205569882072 0.007626149086690092 0.5368396552082755
P 3.1892101464427967 0.5788636289411992 7.946034046799087 -0.044065365750330564 0.7165196569728434 1.0779411710166984
Ni 8.662064391441763 8.988109329532254 5.710042740012936 -0.1253104258747519 0.6156151707462817 -0.46146288093917304
P -0.1815011414945039 6.84151629561305 3.530350735686026 0.20982772899254185 0.0715579147436445 -0.3907685997474044
P 5.022725731709584 2.8148285272165565 4.731693015101896 1.770135620980616 1.269141771826356 -1.267407819854385
P 2.1657437574362497 5.5450314369134235 7.09307466305208 0.1204782945934312 0.20549284906261384 1.4239190968119737
Ni 7.018007105163153 0.5366755776288981 9.116788896247574 1.0852189356250341 -1.3987623950406878 0.2635879534331331
Ni 8.370359623766285 1.9720145648058973 3.6233004979355923 -0.47116725271113047 -0.34566296565801763 -0.29381152820436496
Ni 5.387937223222242 4.268717216630465 9.404196361770081 0.28656024595859036 0.2546847374062324 0.15856533127313982
Ni 6.582476123874637 3.5243432547995805 2.8571877785298656 -0.025299140886420945 -0.9962970756816454 1.3956102225649512
Ni 2.5087447807329895 4.4137636855698394 11.177288363702274 1.4254656153634868 -1.0428404706588232 0.05623516834364508
Ni 2.249868523889159 0.344964359478516 5.801687557573966 -1.6131173224796218 -0.4998476513649585 -0.2966207155183859
Ni 4.916099092783722 6.192185653490871 10.803994046610097 -0.26055919390913834 0.07785557482689817 -0.24103320806106873
Ni 1.5984252009034718 3.191341040072368 2.867409693483686 -1.6005088896869921 1.1818893291655903 -0.44964583369958694
Ni 3.6583710002698036 0.7007106764673421 12.03432558577117 -1.0006841490057474 -0.8507618381195864 -0.4949923801551862
Ni 1.0518236657693052 5.660673395041318 5.171067800668369 2.0869405247563604 -0.3747084609607482 -0.6986672021724548
Ni 8.294503453106756 1.7496275847727192 7.325823796337776 0.07823018455749753 -0.14266922886817368 -0.12227549570317008
Ni 1.229316177452966 8.256821240118866 1.6541653714445261 -0.5095975316628708 -0.46354161784507264 0.4278709039163406
Ni 3.768858745601385 6.112122333870392 5.4659251981496455 -0.4807440977662882 -0.918617107200663 0.6546272903434209
Ni 9.285778778093924 0.9558879205234296 0.44622916007492675 -0.031223991011288154 -0.19235374057749452 1.2274590473755893
Ni 8.11880489888047 8.680951029850869 2.4107091035598525 0.4099747403622101 0.16389471390585322 -0.21727338663730963
Ni 0.0025898553344021885 1.5231882642901424 9.614500082157624 0.6842847081985376 1.140829583010803 -0.3273968203589781
Ni 5.741665565731098 7.572476555237275 2.0962984804314986 -0.6012463036191195 0.5772322000927091 -0.41012026480113883
Ni 4.590846410017044 5.981901056507694 8.011088225905635 -2.2704985214190962 0.25032877443038176 1.189784415642951
Ni 4.982630327218119 5.29526156310195 2.112265612440433 -1.2953577681000916 -0.2533775885590346 -0.8755359597404728
Ni 6.360626420440369 7.058894764978433 9.245684284240761 -0.28284783010400966 1.5978172017874417 -1.0106096356495755
Ni 5.989340971445129 4.425155770743318 11.870536359274599 -0.033172630097226735 -0.2965286700252119 -0.3172319640108343
Ni 2.0061452884111692 7.603328980950899 4.097501734771009 -0.4983643819512127 0.424796635866391 0.3049541750847457
Ni 3.1074621459613323 7.704792300697415 7.193368723217241 -0.09863497346609465 -0.6325263446793234 0.23248968936643188
Ni 3.4378052968430968 4.428743685658066 3.8324987034230085 0.4051739765394571 0.4612939594614765 -0.8351467572901488
Ni 4.548246750191681 8.339315964008984 5.380491844454987 0.2727364527016206 0.42821697440184964 -1.531381181651395
P 7.584524299989082 8.20238328235144 7.589013746824034 0.512343469839124 -0.45732083374634136 -0.9193455007262554
Ni 1.6343772011152153 5.678175863229508 -0.16375280096444106 -0.9059068587228463 0.5510609410139801 0.259872709365075
P 2.9663405281089035 3.988313470298144 1.2365247902613792 -0.9629622089749416 1.2274852726278345 1.1656816090574764
Ni 7.9998117917966685 2.4185005248823366 12.489360618238386 -0.07063026072305255 0.6825715821621728 -0.402474575330423
P 2.02975813961407 8.8419427754799 13.09120511540004 0.2555054335353148 -0.07717808914389934 -0.5447537678490295
P -0.061227676956352166 3.3482804452519996 10.767128676180207 0.8451694316334735 1.3126132127464296 0.33853278237113954
P 0.9235784735246286 2.20713226831831 5.047516038238569 -0.39382358452364435 0.12773780436932194 0.9878530586793505
Ni 6.468036208307013 0.8116391707376897 5.703485233591336 0.11151311498034341 0.2459177898468797 -0.6959068658184981
Ni 3.6936582345201847 3.5309089569659093 8.145342720313364 -1.476293753758948 -0.3540853853937579 0.01474630507123912
Ni 1.6934229886970147 6.813705401832234 9.018107576517444 1.5054032695303945 -0.5090884532369362 -0.9524057736153341
Ni 3.6868193408628853 9.33140175708603 3.014872085841544 0.052013674063129775 -1.435029347792522 -0.054703047969834814
Ni 6.121356206265202 6.4965300808152575 6.547941076862728 0.38359367926552 1.6015558428942678 0.20063783496315768
Ni 6.06639918466493 3.0646439329431923 0.45336947501059754 1.7021790504349847 0.13654229003482934 1.5041364870028289
Ni 4.509672111666619 2.664491249735383 2.4673271294252257 -0.7816701255282473 -0.16328690511852526 -0.5002338310597837
Ni 5.0657442851544365 1.5023710726781754 9.407675000088442 -2.154143247855103 0.4615076181341794 1.1499744827348646
Ni 8.701039710820249 7.52960370392094 9.555616388193801 -0.5167788799026584 1.0016521693459715 0.37932359113525643
Ni 8.52088813529114 5.904879268820023 7.67482046222302 -1.29060405546519 -0.05819640583507397 1.3106730583009232
Ni 3.967997129752957 8.331948900135806 9.569771349979296 0.5407533884403848 -0.4210091437995007 0.3786322214951866
Ni 7.298738681284639 5.624766926744737 2.353944464927658 0.5723154795173822 0.8242139124277289 0.69997717923313
Ni 3.240770487171999 7.368475362546424 1.16010584513045 0.6684217730243521 -0.16153315565221213 0.6992192180211828
Ni 0.3374060615616601 7.603939108614066 12.119785347976622 2.9061387291370533 1.0205788310471455 0.1913738931627285
Ni 2.51187737649612 1.5525381368034274 1.5686518815791823 -0.19716427459226044 -0.6308795531045199 -1.9371588532131219
Ni 8.397988389886455 3.4071258924070875 1.4505384510963053 0.6071492993671156 -0.19408255034314317 -0.16344014286693787
Ni 1.2058490283785832 0.6436737569824804 3.4028668370628545 0.037430376932316184 0.22599096901596563 0.5370893093252364
Ni 4.164230577717207 1.5931890306598668 6.200171040771943 0.4767038662586435 -0.10566076996462448 1.9035452789237346
Ni 7.888304131565462 5.9513946733493 5.318050286640421 0.38689189040081756 0.8367611529651202 0.16285084602237113
Ni 5.83909475779428 5.243227690455065 4.504928596745064 -0.5354412321988521 -0.07558529073548273 -1.1279313868918963
Ni 6.989057913503291 2.8347897188234814 10.147864578915959 1.090938868827947 -0.5572688695969048 0.04399903128876939
Ni 0.06216654504698812 3.8516084482164086 6.638812762504311 1.0839740074743396 -0.0856043655343816 -0.9937084890188629
Ni 3.859521895071526 5.5177487133484835 12.983193395614956 0.8008873218866466 -2.529588586981876 0.5337728433574936
Ni 0.7680368981404634 7.330301404874786 6.588778651571332 0.8299819252597578 0.454380777281411 0.30862493906811367
Ni 4.94932828446879 7.434979277831724 12.990844578638741 2.3370055040023945 1.362728384235266 -0.846490207327426
P 6.497386080820299 5.628737309746844 0.3255641210663837 -0.27181882598335766 0.45703287019227745 -0.03823281822895351
Ni 5.968751439408972 0.7439568894880031 3.301226853485511 0.5376140714804547 0.9886138481047748 -0.2770443360483551
P 4.045692789785022 7.172251020965206 3.5774516806442835 1.0584912898222028 -0.7579771527866817 -1.3680125154523408
Ni 8.747345668539781 4.509571941453262 3.8967797506101096 0.5684863355792791 -1.8303809389249186 -2.495582148129444
P 4.300935599798943 3.0184108262879183 11.035716890528045 0.30576690079402824 -0.4312274790933993 -0.6881313356381374
P 7.204924723285301 1.3889874975423047 1.4874302300369882 0.12101025583750129 0.6040683464489468 -0.08063570867519661
P 5.959599524461453 8.33091987885315 11.084657324858838 -0.3888091620281885 0.3879578697714867 -0.11695948280689535
Ni 8.38810796429635 4.8678625818613295 12.528812201449464 0.3952302350631839 -1.1311408949681292 0.5761245688508272
