# total energy = -340861.51978823 ev
CRYSTAL
PRIMVEC
9.37181100323921 0.00000000000000 0.00000000000000

0.00000000000000 9.37181100323921 0.00000000000000

0.00000000000000 0.00000000000000 13.71659272040842

PRIMCOORD
 96 1
Ni 8.661418272676611 9.043094643861853 5.79196845394039 0.07008544396317606 0.7132839236443651 -0.2753101269660678
Ni 1.6599726359037092 5.957997581687859 12.374328261912275 -1.516661616053033 2.1247030882171147 -2.745375875991962
Ni 7.420421815386253 3.352306134885124 2.640265931617758 -0.5919090853785935 0.4693641380641207 0.43044766350458125
Ni 9.059139184142486 1.4095859637788737 7.48345755275867 -0.6925616034953491 0.6889808281226264 -0.024329834994616162
Ni 8.961128785629123 0.8623921657219357 2.7360627083938045 -0.9606983526414292 -1.5924353686502382 -1.590557692011551
Ni 0.9757179776270125 2.6791008416731867 1.8289154596635917 1.1688147553698192 1.1274889000378387 0.5858502807790233
Ni 6.318474916591093 5.031678419375815 6.7634185088782655 0.029632478154452187 -0.7452026267298326 -1.0705271379408143
Ni 7.62536457640081 2.4645613462851665 11.785214353647813 0.3519143458843681 -0.6889934265281167 0.5227991179548094
Ni 4.2132100570343 8.026852955853142 1.1678813372825307 -0.23330550039950787 -0.6086119999555711 0.029514978739981428
Ni 1.2159362349127778 3.5660583981565708 5.7319719948466 1.09093269818036 0.19633355116084897 1.355846312403452
Ni 9.340584037628316 4.76627810617062 9.786075880853817 -0.5601811581476933 0.7592398215491892 1.0297926363359298
Ni 3.201382491964947 8.30035988549686 8.990568455245688 0.46692801781880233 1.3627152716091433 0.27596447272061503
Ni 3.269496813670352 3.6853334356283223 0.7415782768985018 -1.9031207897918059 0.5857024423472493 -0.9203335756711375
Ni 0.969148338177991 4.847447360475863 0.39054679021305594 -1.079819361876018 -0.5947604387844596 2.1974848480655313
Ni 2.5727026723939543 6.240426475319407 4.844206588262637 1.5480920666481726 1.7116921321317422 1.3181035464370396
Ni 9.01111802503152 4.824008461385987 7.626946538082686 0.05237954204298076 -1.4624005407166234 -2.0486477998237493
Ni 3.1140840733235264 8.029355229366535 3.5158507955599325 0.23215364618325182 1.484889465847759 -0.371458843675199
Ni 9.066983389875483 4.362062529743016 12.053140369893683 -0.5432969807978449 0.19350610901438287 0.7027082050110479
Ni 5.13365309390478 1.8720473450219823 5.0971545763096096 -2.0509615355585904 1.1552624706066814 -1.4576607120387928
Ni 7.423570743852546 6.180015782183325 8.635788244195606 0.7674868920493298 1.0829167698544189 0.23884159972638863
Ni 8.429878312294974 2.714338850700749 0.46367690511834164 -0.23603832594963867 0.3682285096633594 -0.4018976197810304
Ni 6.747797574450835 7.8112544458321125 0.9645580251934963 -1.2387652164170277 0.9540222261728344 0.5869625400065955
Ni 1.8490864082885976 3.416671732225894 8.684194584735039 -1.306395513971492 1.3822613120618712 -1.5413814873972163
Ni 5.490344217199732 6.8353302883650455 4.169679869712167 -1.5282899443205809 0.6182328108747868 -0.2391231355225495
P 6.724564855201014 1.3578723111687434 2.5215897528632567 -0.5140882204443727 -1.5830500707805963 -1.5710695013799525
P 7.525161174134136 3.52379153094532 8.537056216242052 -0.12072280650406951 -0.024741725721054163 0.32710705703270115
P 9.498049204564781 6.969394043455279 4.574374345677352 -0.7184718956032079 -0.5811341062502765 0.6689951290293189
P 4.924699197820064 1.111328081517658 8.464577442195122 -0.3185162300398966 -1.1880692327240572 -0.38464911711322786
P 4.928916512730278 6.409568918651706 7.692800378996217 -1.0494785448006314 -1.042725542347514 -1.0223546920006459
P 1.8199494481644776 0.9242686100845892 2.767953106563749 0.316827529483564 -0.7372468622178658 1.0368904237229755
P 9.027706130345027 4.677423966917876 2.180979719911494 0.4396555552560945 0.08158701684487239 0.0927728582583628
P 6.538384459631452 4.278372258302555 11.946466669373649 0.8626943278911143 2.0238875621599335 -0.7831827055180318
Ni 9.425698824327338 2.611070866265986 3.98458754138944 0.27323447538396173 1.7539780373841471 1.2323641979866906
Ni 7.4394747069695075 4.890098471934491 0.5172536737376948 -0.8414073934878799 -1.7467267551383725 1.5714988756078871
Ni 2.90760433531947 1.8048233453531781 12.619168696339635 0.8928415408984559 2.2272854763667316 -1.6281796161293831
Ni 6.261278754597686 0.23491662385308115 6.112922987867283 1.0056911153020358 -1.6432424239997765 1.3227515867320123
Ni 2.9469097102826605 1.9097782557520264 9.929962230960484 1.0506059735368551 -2.133832561322209 0.5965062178309727
Ni 5.33778987918094 2.7447597489197566 10.910328626799643 -0.12297149332893016 -0.326244966142722 0.21553763489312558
Ni 2.849011773500236 8.226903631571851 12.763646407714822 0.7692802365043269 -0.09473898084579813 0.32020364504464854
Ni 0.6556181528552554 8.054284246391353 2.803095523120013 0.523410269176247 0.47068799908186676 1.2202234488590984
Ni 8.800964537150122 0.6526238592690037 12.918602740870254 -0.5806039447784194 -0.42637914986216247 0.39223901364534386
Ni 4.65044252330342 0.35584391158854517 10.534534941323606 1.9841568192292152 0.8226475963818736 0.07482013043468405
Ni 6.546462960637239 1.3851911399760157 0.21380193386927854 -0.877259884410115 -1.899471365964677 0.4836612714130832
Ni 5.602965268924257 3.43668054852213 13.581196332587002 -0.7512079523836482 0.3412915760631993 -0.3160032338100558
Ni 0.965371498380622 8.74875417856168 11.630463263151347 -0.37307940999775746 -1.3100799048016147 -0.5254905487440433
Ni 3.6010995991549897 4.804027760522486 11.877979349593964 2.2108270737003926 -0.5359906769444188 0.4869435417087807
Ni 7.5819918355019915 6.191168237168112 3.605858604735893 0.2631714347210048 0.7120564789951672 -2.5145571465700503
Ni 7.416241987719687 1.5034727654911393 4.577981555697221 1.5102382290251926 1.7411950266868659 0.32930046513959416
Ni 3.150306122496805 5.901176292130915 2.3213413319343137 1.0426563796724753 -0.623699747526629 0.5831223403248991
Ni 1.8113554975585533 0.5887971410556492 0.5925346192471894 0.01727395658909928 0.11425725338438386 0.2071555814770174
Ni 5.536294206099237 5.96786609857776 13.16710567900186 -1.6092514117663124 -0.35090981587925374 0.7369650693113888
Ni 5.630780803709845 8.352007935430608 12.698780355671373 -0.325623016288007 1.108835803713026 -1.2970505824214822
Ni 0.6281137621919335 8.559228046496681 9.1555648094307 -0.9447639407993601 -1.9599545109513985 -0.3840773037701579
Ni 1.5201827043464964 8.223876536647408 5.594545634001289 0.9571409743074741 2.820105760705685 -1.9675801458174564
Ni 4.7229147370827125 2.464786269747045 1.692490008223638 2.6145959423622065 -2.6933462610892325 1.1045438612058913
Ni 7.757244699548645 6.4708793056353 12.785414312919162 1.444448584223893 1.1860429463226476 -1.8887694061661409
P 0.839852960479572 1.3513589025851913 5.639769307555147 -0.94289243480826 -0.28635430059537137 0.47669023941188865
P 3.1084984740202213 5.76297019661776 13.859519435858184 1.8095087234615996 0.2942427022045126 0.02489547769009906
P 3.883762788059327 3.762313490456087 9.790272577780026 -1.2025545708244256 1.5401172759728121 -0.32728652003335895
P 3.2999364555111828 4.290012047454745 4.616196051870303 -0.15535428053500988 0.8027012351669336 0.022902358519470235
P 4.820540891348701 9.188104674096817 4.263445775063673 0.3155229517395276 -0.6756753692629718 0.791020713505212
P 7.902376563325461 8.367724462329338 7.832339146020998 2.385401893027911 1.002944405794834 0.5359636803612253
P 1.6944327846256098 5.447918029202984 7.750684431910535 -0.3562312280921671 0.6102580201994264 0.405851719332772
P 4.007648756499578 0.5619084783692185 0.004906143012215125 2.810729718807424 -1.4392449285357665 1.6091161717400289
Ni 1.7653586496044906 3.8834347746774216 10.98733398551687 -0.16786655406940768 -0.5629399518397531 0.4594970154620538
Ni 1.1986827310245483 5.051574773941112 3.7704988301062663 -2.1481978289049457 -1.622731191420302 -1.9179190311469034
Ni 3.3984810472465066 4.717835215568633 6.595582495987041 0.9847358532066073 1.1075219699976089 1.878580638558597
Ni 2.860426639190547 7.312786567066691 7.058736454056517 0.5526041171313838 -2.471816927389046 0.4870849523826515
Ni 8.331136912530507 5.129154624667219 5.304151638275985 1.2361977128001678 -1.1142050384447393 1.732538122342816
Ni 2.1728824752838842 0.703033892981332 7.4916325834168465 -1.5283830182550193 0.15320792361596838 -0.6382141390927202
Ni 4.019429122815442 9.301091226446895 6.624716644567888 1.3498924088128623 -0.0024898563013892603 -0.6817133479269356
Ni 2.7666335555873975 1.217557558200482 4.8138522299011015 0.07957255751800489 -1.8299698195294292 0.750193652186521
Ni 0.16377801876650744 6.988090806223893 6.892615482562113 -0.3370166028369293 -0.3776857984215173 0.9595452128735925
Ni 8.286424002671332 1.2218029885434305 9.804290932541576 0.5081415159426346 0.5146183819162299 -0.8983938381752528
Ni 5.168366281521293 4.096559126617792 3.5106794302989197 0.6227571811077016 1.3284244687470734 -0.31415126820298156
Ni 3.7078726408706864 2.5786818877555455 7.487723601085624 1.146602223828522 -0.496955417418828 -0.6044843509404427
Ni 5.885628457828594 8.144244259331664 8.154815662039933 -1.566944166357669 2.142287891178414 1.435875240732585
Ni 1.0462502265476068 1.6419506435207298 11.40909171760878 -1.8407100887650687 0.8312451082428973 -0.6323918759839884
Ni 8.566041353029403 6.677780775130378 1.287066405369531 2.551777721484405 0.27140744947755197 0.7041390239203034
Ni 1.6211264796751863 7.102951720756287 0.8889312598613641 0.2105232123976697 1.1556748755537516 -0.10429782817882682
Ni 5.559423835429031 4.928260485966467 9.118571460219398 -0.08938028763704607 -1.970486263720658 -0.3470703875285055
Ni 7.1523973951258135 7.250567114424674 6.211983966383835 -0.8626069103836306 -1.2884718396135357 -1.534132776254603
Ni 6.539059230017086 2.6238915035930352 6.740745286739866 0.43658874340531256 -0.6462652915319709 1.863792938726461
Ni 7.228299691698746 7.519303792314395 10.736429989429714 0.14546093268069787 1.8816960442591268 -0.8014293104330455
Ni 2.246816691565384 6.144937093941261 9.931540443917994 -0.245966383696628 0.3167681370005383 -0.12190602817889329
Ni 7.139483039689648 8.83765517686898 3.8659525986029495 -1.0465354030119072 -2.1285126917711925 -1.3296210601583358
Ni 3.2203978963045548 2.7890977863424684 3.334133256346468 -1.5494269834095122 -0.646709321047925 -2.28608994809945
Ni 5.246770851607619 6.328868254892042 10.83137580577499 0.15342132517835513 -0.19525831581879918 0.3885901040388469
P 3.861495365333399 7.881196270665277 10.919134380332169 -1.1289089203138172 -1.5244410028881359 0.7741283086252475
P 9.447628861860448 8.721463465187142 0.8107919120238359 -1.7448094835110017 -0.9026209888827229 -0.2973825333850749
P -0.08263969143727172 6.9211573326933475 10.907160017530437 0.5678553868634995 -1.131520132684419 0.031711215060351836
P 1.0998569849618771 2.8624509503474496 13.448049140603922 0.4321358498402815 -1.132165479577902 -2.486666847917685
P 6.872198992491224 3.551082244319857 4.84689536081317 -0.4966862229178414 1.4240311969098054 0.19620319623057178
P 6.990986695795573 0.4521467661538177 11.211243417454295 -1.7409507718865433 -0.9586324712513361 1.9380538542235655
P 5.641342834607202 6.043749651528869 1.74882396361318 0.101274982192103 0.4196325751669483 1.0676855547269613
P 1.013280195760648 1.201906633978134 9.178704747752498 0.38299795466305003 1.819678979126382 1.4807415051176562
