# total energy = -381170.24062954006 ev
CRYSTAL
PRIMVEC
9.28169270634226 0.00000000000000 0.00000000000000
0.00000000000000 9.28169270634226 0.00000000000000
0.00000000000000 0.00000000000000 13.58469548360500
PRIMCOORD
 96 1
Ni 6.921024002685627 6.41581219483359 6.163267550078482 1.6945919821163462 0.38809645223188 -0.2012893525042275
Ni 1.4305779929162907 6.963097915069991 13.651396471128534 -1.7235508312425414 0.9266322641956557 -1.3286468691705247
Ni 4.395809597448601 3.599783798238329 0.5265578444065394 -1.4787998080102531 -1.0086604823430048 0.7497902461005151
Ni 2.0126143701054944 1.8124082615392647 10.12796109139893 -0.3302121783205862 -0.8015840908433549 -0.18494202149445568
Ni 8.085570123384706 5.533596598490913 0.6630692659340627 0.3987472470775068 0.14520716479867893 0.48501110057275826
Ni 3.0292288747485427 3.935159195587591 9.865002387589056 2.2889580136758645 1.6863706226478183 2.3461329202249597
Ni 2.886300090983528 5.459742170773644 0.23699966605196854 1.808965192253304 -1.5848958657400833 0.389378147157781
Ni 5.971664642348137 6.168696412058101 13.147485028404459 0.8538769867098004 -0.7468895275139524 0.9372470635970245
Ni 4.104169535452332 1.941924999551929 3.5956246718012164 1.0099223797745638 0.7991649398789011 -0.08054777694708064
Ni 6.576533983240305 8.730675601533925 6.737111905412306 -0.0804071376041583 0.3417916556280694 0.03685907780987845
Ni 0.3254848257550022 4.090933841858663 10.584325207634725 0.1714280461684209 -0.1624045025135719 -0.9218556687426188
Ni 5.122881702614434 3.940329098344725 8.3455540447284 -0.465277883809889 -0.33485224819575876 -0.7359973060814808
Ni 5.986338998288945 6.169123369915962 8.495963872698534 0.9602874903562558 -0.36531210734751274 -3.153972762170039
Ni 0.7198945723074992 8.943644037373152 8.859448875972358 -2.180349473936826 -0.30614562428968567 -0.07557809164663114
Ni 5.721142478402328 8.99616913558253 13.541482667807193 -0.5944562772804795 -0.08512176947100825 -0.32644499796867005
Ni 4.68056264356373 2.315624505490433 10.502680655350018 -0.42452718425508823 -0.9745974792210247 0.0031323749813946056
Ni 4.556215808308201 8.08950556103107 8.19923280233191 -1.233255085232076 0.2520789243522691 -1.951127656688388
Ni 2.6074502013379446 1.8117956698301612 5.446226170064597 -1.3252679253959627 1.200865870268093 0.2873670581306019
Ni 5.690531456332257 1.1300182243677674 8.599411120811801 -0.49628075994930654 0.4208908730540816 -1.2579356186978918
Ni 0.5552234237155771 2.848170897938091 5.95880392913398 0.007118870432968385 2.0679359586293997 0.23313606470117915
Ni 7.209805303372744 0.5287009872191468 2.343984717114175 0.6755118471019141 -1.046449271056004 -0.5857628632715395
Ni 0.4989262456489285 1.8099578947028494 8.100662155490811 -0.627536604774216 0.7494801710592641 -0.23913033461140107
Ni 4.260278322655643 3.48195271116145 5.762478496227998 2.606451458878201 -0.3070077151796648 -0.33909276863966764
Ni 8.516379883658304 6.915844818235931 3.726118772040678 0.3896977352807289 -0.23693049874660485 0.08041125136921635
P 6.185366331899777 3.8029043582690836 10.145661279115009 0.8068790206937071 1.088579881677467 0.8785222960623063
Ni 1.9611288214630802 6.9490732776085355 6.966462528623781 1.216615419792866 0.0572155299790434 1.5292263400919213
P 6.197228334994244 4.475530054865167 6.523914211766792 0.17767582685034564 -0.8144434633045263 -0.2781293415824178
Ni 8.23377090852504 4.402687331637176 5.221658403030413 -0.2374634884319394 0.4310063642215287 0.26975834390990316
P 3.4969055178791226 0.6872360088582116 9.0115841705898 -0.32263719418680564 -2.6394685372341704 0.9652018969387377
P 1.5667497044960383 3.6347850608903114 8.61708439161945 -3.081423430047403 -0.08788724803128735 -1.9314682305862478
P 3.4740818358687213 8.272392031276272 0.5239728930279721 0.4613142711764507 0.4740805697031836 -0.27322650496416173
Ni 7.528696414731573 8.807611551181838 4.496751716739336 0.16348796538573782 0.47073839270382795 0.5363560307036375
Ni 4.893456825862461 4.2905737671786 3.5995369052161754 -0.9787824638366498 0.16104361761030328 1.00056510692938
Ni 7.6602829701856034 2.4734689692028713 9.225053817827385 0.6249400476916334 0.22058265351620077 0.5563990653974418
Ni 7.377451234430844 2.1821352030611556 6.535908943064897 -0.2868422959753834 0.005949018494583303 -0.31244225593167474
Ni 8.566268981180025 1.9058841873329828 3.9526301254973832 -0.07774218917748547 0.12673224592294302 0.21991545224584705
Ni 2.0884922068013183 3.85563365371483 4.368362704372976 0.795229866490553 1.6073485383166446 0.06605061177217011
Ni 2.897623755909388 1.4127107347340937 1.3922817294047347 0.4142635975455511 -1.435725088307966 -0.0675433942676127
Ni 6.610699893561691 3.6172240985626662 0.9319329825519962 1.2382841630155512 0.22500006585760604 0.1786605593611181
Ni 7.065818406655641 5.177216730873437 3.012990553611008 0.6552764938916457 -0.518687409779281 -0.6498401533674228
Ni 4.335330088713433 7.348000423931047 12.23879154768965 -0.6700629081722008 0.11199339705087163 0.5433995678139804
Ni 3.414530496389772 6.052062663321744 8.65713211051749 2.0107242853050984 -1.318910101498735 -0.723166987086032
Ni 4.584070167687304 6.2464769957291715 6.175317043362705 -0.5116179045270092 -0.2587571077033931 0.9676002219675851
Ni 5.079285592649872 4.225007890919358 12.003382763742838 -0.2952140649788464 0.25649530825240985 -0.312578524399223
Ni 2.119725102273055 0.17222551816828074 7.021902078297685 1.4265902158862334 -0.9524055165050178 0.5890901278725597
Ni 6.585323746096689 8.28187792107482 9.286837404367537 1.396397494352937 -1.0697622347503317 -0.6553148033287489
Ni 2.6036818341576993 4.356705826684134 6.7986105439908 -2.225763126184934 1.4794718943766134 0.8102137414938949
Ni 4.604025806695992 8.829906176716195 10.413253403851924 -0.29235448404286424 0.1477039630786037 1.702847280146603
Ni 6.583532379432189 0.7483039769018208 10.748727187142345 1.453486268946129 0.8264268609186477 1.4707633108590217
Ni 9.262934261512154 0.34526225626649604 11.137548426603152 0.04528046910435427 0.3738407136438142 -0.017626711942827708
Ni 2.5360461404570915 5.92186836175204 11.459464441567995 0.20187093603931042 -0.3529319885156051 -0.6970450931879996
Ni 5.0308630025529775 6.046400830858814 10.396801603785459 -1.0801127247467204 0.1839547178805219 1.8119443294862858
Ni 2.8438270658189913 9.41339977963766 3.989023642033692 0.3284959669604278 -0.8747677141158805 -1.1569802246287364
Ni 9.034131258161848 7.7711527878408475 6.536317337537634 -0.4306134996584842 0.03943609450843531 -0.9143405913124963
Ni 1.952673199538934 7.938483141351835 2.0514656788322685 0.7240087662610369 0.7216927165333507 2.054275430423172
Ni 5.3400176184140795 1.4894796139158872 1.5795602965703597 -0.6880413470274925 0.4946781913488771 -1.2169185528555817
P 8.687348660653667 2.4974899895537943 11.665965394029895 -1.0395916247042225 -1.3144320111227235 0.3331501779029875
Ni 4.840476924717535 8.640327606133662 2.7526260828722635 -1.5445290318872624 1.026116215925607 0.1944687300379683
P 0.2990013723673331 9.135663693099538 3.0974873700200733 -0.4999877764872486 0.03304407493916244 0.18962759989558312
Ni 1.3382344336151588 5.895062833632464 3.0090643976572062 -0.8800400182584134 -0.5090732837282845 0.10925234397062474
P 2.855568406910149 3.7113961512985476 12.151781248934746 -0.09107798705444314 -0.0873318897484496 0.8194668846610468
P 2.9704757608299412 4.674780149097492 2.4753624344855565 1.1904230776682143 -0.3146798870129419 -0.5436661912118057
P 0.6791794997142391 5.794866962423727 5.7968885150637695 -0.9038301786994757 -0.7668546577819696 -1.465497177364076
Ni 5.840495763059405 6.942019191261279 4.088300625678773 0.33366696963840603 -0.3962388788333563 -0.2176235708878768
Ni 0.25236829259642674 0.7306242089093797 5.844230716146426 -0.8323013174215537 -1.713906623284558 -0.7551939336145896
Ni 3.4574026343344832 6.514151727529891 4.14292431457646 0.14909955787454965 -0.18663869247058826 -1.2585511407947034
Ni 1.4578197605862901 1.8615548236560095 12.432223877023999 -0.31346838320334397 1.3348272869496236 1.0218854656737109
Ni 6.353262868657057 7.523944188139736 1.6803585496263818 0.7681553788712642 -1.5756581491918993 0.08104014320246689
Ni 2.4755480683368 7.871413630897519 9.58466835530278 1.6145792517371291 0.6847678184825433 0.732504462436874
Ni 8.702654171688701 4.540167761868191 8.17763337557046 0.09322845773854267 -0.8460569764447493 -0.4872240490636771
Ni 8.055553129638614 0.46917006746383466 13.20196021022115 -0.7909155553859153 -0.11179490788682038 -0.7698510214061323
Ni 6.230261878823043 2.0482003793888937 12.68211488587558 0.5938266141162806 0.5383270383870794 0.342666602033855
Ni 1.476652314794954 2.0170324557650923 3.2636825725307053 0.0512881087510149 -1.136314982969901 -0.5444838020170946
Ni 6.527099688654133 2.667289273286321 3.2182551846236263 0.07712692419098977 0.30731727600028363 0.5831079421471957
Ni 1.7176421804794038 3.3478229719453823 1.126196951539918 -0.525067602274012 1.1617143968796122 -0.01804014533116248
Ni 6.838435502267347 7.730136988408573 11.497053440106313 0.24165104415072572 0.25132610534664457 1.3659353212083378
Ni 4.92415138316559 5.65903867346878 1.8325207611522534 -0.07989214564095272 0.73913867992394 -0.8898001829689709
Ni 8.478278535690555 7.838510030764589 1.1338060831023935 1.0559677520694009 0.6133829389816534 0.965028604585667
Ni 1.0215709284712526 -0.08643019296976694 0.3642256823402866 0.2852754657088958 1.5480056775819533 -0.5490439105839512
Ni 7.412006975839842 5.792230961736067 10.313229243955588 0.8993163499895221 -0.7673264552120657 -0.19255454373439096
Ni 7.554146815737072 4.383808368965701 12.18241547523622 -0.15953617982684137 -0.9723570199262801 0.2402089123875605
Ni 0.63621361667465 7.332499997352206 10.848669668144133 -1.064058499497335 -0.2640684926139774 0.855081805651179
Ni 0.6181950669036895 4.903870884917226 12.764519608781129 0.6151788545398115 -0.5093149674254455 0.2671653863717463
Ni 1.251571270162081 5.903212159702057 9.173961812949607 -0.5181773029120817 -1.0492661716795089 -0.6291016352684907
Ni 2.7016408174589506 9.034112694776724 12.15557189217714 -1.585417285461192 -1.2239867725562728 -0.94346424815133
Ni 8.494874201991733 6.854390731781734 8.528797860137246 -0.4597230154299309 0.7482830654273693 0.4244744766402819
Ni 1.619803859181461 7.781483311662554 4.815258566026091 -2.522853068030255 -0.5468435604985227 -0.5490799060282092
Ni 9.031653046247746 1.7374864391773452 1.2846595759769976 0.27708933035367767 0.6208111131249244 0.789563412233395
P 3.61609173207008 8.213072734111377 5.735919861130576 -0.03835186030532104 -0.3590648408862203 0.22381015931456294
Ni 4.498353736875568 0.9204645232221663 6.2756400737595435 1.3816061949763754 -0.7186739843116848 -0.08859430140064097
P 8.877558386330428 3.7996650475648828 2.0195143803562194 -1.006527495160402 0.37395692750670434 0.028942394065963058
Ni 3.9338968853991343 1.4556014360639289 12.713888904023692 0.5586235838525863 1.5270853824895185 0.4072403721501825
P 6.028375783903059 1.050622626190877 4.740963257912119 0.27309280759977483 0.5352124040174976 -0.36919524445200286
P 8.761286623603995 7.3196541348461475 12.637217482613801 -0.7873103545331602 0.11071067368370612 0.3016551926184998
P 7.837071368417452 0.38624464160554706 8.253245755859005 1.2261115322087595 0.7136747313248806 -0.2660438711727934
Ni 3.414530496389772 2.276260847334226 7.8670595889166 -0.9104348285001869 2.3042941298123023 -0.849577073782866
