# total energy = -381176.484991513 ev
CRYSTAL
PRIMVEC
9.19229093677852 0.00000000000000 0.00000000000000

0.00000000000000 9.19229093677852 0.00000000000000

0.00000000000000 0.00000000000000 13.45384695698537

PRIMCOORD
 96 1
Ni 3.897678341386673 7.445268290751084 2.0714211251146173 0.05963699493634245 0.22723846826982155 0.32019850283832596
Ni 6.329581581639204 8.887750127204002 1.4639403199066874 -0.3046389578371721 0.5986718580237238 -0.431072955793406
Ni 9.105184571864488 4.542701381118907 5.2442956163922565 -0.7898261789764784 0.3294735003823487 0.19741624270206645
Ni 4.763334742949505 6.345070591500238 7.012682766444642 0.39293166883699426 -1.3200673550316298 -0.6648695368967195
Ni 4.315440377680115 7.2026010080677265 10.837019497102977 0.42150356693741603 0.6855712882204451 -1.0023391681106673
Ni 5.169082455273587 0.6013853972323498 3.394607251078196 0.14736894833668815 0.6383254678596039 0.03957056320377056
Ni 8.792665072009616 6.554526127816878 12.920670965018843 -0.03075605023593413 1.4596941975290538 1.967515611128108
Ni 0.21022125413350967 2.7939783793719966 13.00783778098813 1.968658723593616 1.1990105622269094 0.616867297985828
Ni 5.572219557033552 5.464375602321589 11.963146810013173 0.6754413988752949 -0.9671065701606184 0.3836846963174295
Ni 2.6843327356791638 7.599229967998842 7.190515903459832 -1.926552538452185 -0.6810176074114916 -1.4192106355927105
Ni 2.222879741599669 3.3614092931475565 3.732110477877465 -0.2093009099547944 -0.6681726331280234 0.599702099060451
Ni 0.3375096614027724 6.550113828271896 6.807793960157059 -0.3925588588786078 1.332532063157544 0.031842855542209676
Ni 6.159928664134599 3.595785129602634 8.068487216898525 -1.2058414691058137 0.18248841774764057 -0.47669872405232094
Ni 2.1779937860201835 2.8783544158790817 1.144644263333977 1.0750116560747291 0.030218432564909244 -0.1836271593377741
Ni 7.684038042169708 4.287514198476659 -0.3344008286817029 -1.0095981636659257 0.4645052673099226 0.7546630008117842
Ni 6.31279645878683 -0.10856095338802453 9.645143405598096 0.6668935093052837 0.29701692251554007 0.6440903953678391
Ni 8.58545245462834 8.446336326891307 1.319737178485917 1.1502930424165478 0.3727467092486871 -0.05503189206416329
Ni 7.135221517099544 6.977546154401426 11.009376786537027 0.1830679444001944 -0.3358837747840667 -0.32962493835854845
Ni 5.2696553080270485 2.7422073980441937 10.358990964399494 0.6640480694366886 -1.0579354173187328 -1.3792695764233989
Ni 2.133273291673635 0.3917340651234005 0.7924407252173387 -0.280387284378659 -0.4953466781708114 0.6237691673119838
Ni 7.367400396072849 1.6647514260314484 0.5506016679277367 1.3634693761663483 0.356007027896503 -1.8766456263194131
Ni 2.277592255957461 6.025362720303329 11.596718202009324 0.11847591945142177 0.37465575334594187 -0.24635539160493056
Ni 5.266833274776402 0.23588337213294644 6.237324075069892 -1.3612535994619523 0.5903170583011254 -0.23736784339433958
Ni 4.414717117442238 9.1497396049781 0.31489662623473336 -1.1583776191968953 -0.6978624468829724 -0.456428403839059
P 6.822573325174609 2.289211311425917 4.746517447079617 -0.5322746615454123 0.25583247785743035 0.5760865165240401
Ni 0.22456950071635198 7.605563456304037 10.908540115039939 0.5623331714936897 1.129706476514448 -0.3560718196961674
P 8.254621911661786 5.298886792512562 9.329246658133167 -0.06195073067118363 1.2085010182158478 0.14786362858491955
Ni 2.5794670831600626 0.32639710115291776 3.2355558024594857 0.8470615064498638 -0.19316775183835766 0.2450456716545715
P 8.536080661178122 0.47102033025953327 10.06787663271222 0.1388699097267415 0.25801045934535566 0.9241431792252149
P 9.261508667826957 8.650616603533312 5.976790656145639 -0.7086633941532182 0.1487815124134986 -0.2638800307522552
P 1.8222337506244743 3.695953521564472 11.231553533979296 1.5444120466934241 -0.21116521685704276 1.049899948608766
Ni 7.099858774704648 7.36553436105695 8.132325837481858 -0.19042284210336882 0.3672391491668966 -0.3452081375087861
Ni 6.886827437298427 7.475961349460873 3.1602139492707533 -0.8192429415756988 -0.8531588775968533 -0.17329903793888862
Ni 1.2360965252363292 1.558286314927291 5.678047642390903 0.7487242667298459 -0.8912248312306393 0.8343988233805307
Ni 2.125459844562727 8.472166663810897 9.30587801666805 0.3269473915263853 -0.10076898908996193 1.2277765786160082
Ni 3.108805144197268 1.840048410037344 12.58287174645843 -0.24935329789098992 -0.2499359098673373 -0.9139983774817291
Ni 3.8986435319121386 4.2886540425257795 7.933975507582497 -0.521183179617941 0.32025763821103553 -0.7959217503512551
Ni 4.479246998287617 7.8173078730096375 4.432504199982951 0.23247683385062545 -0.4688918264133925 0.8059014872717862
Ni 7.703792274924226 2.0575931621864543 11.633097611757709 -0.42162003791062225 -1.1757911866876525 -0.29745349583232644
Ni 3.5751300523576814 5.54891710006161 4.390461419922764 -0.04620940867652687 -0.024734012411570305 0.3314689335458227
Ni 7.141683697474801 -0.06142472504059759 4.817122512860995 1.1893588980697583 1.2588838415437738 -0.7244142292295718
Ni 5.254699451027698 3.556405356163659 3.4233846364022056 -1.0972563264055426 -1.051311227133996 -0.4076838874455043
Ni 3.6391175880506568 2.3092872743555906 5.595576248520736 -0.009526451433196496 0.8294008559453071 0.1590039614724552
Ni 7.389149355913329 0.44021144868668793 7.148889534169203 0.5615387006168523 -0.31674576840303514 0.9002635443941399
Ni 0.7567185642553402 1.276202489642083 8.209510744959692 -1.2116220803433326 2.219103197666256 0.14390335838559087
Ni 1.5054122587132421 7.271975226121868 2.5498265417375663 0.3341431379438762 0.3694140453310283 -0.07741308797284087
Ni 7.462770412279517 5.316490029238901 7.111662595216551 -1.5525092218792618 -0.00368927592612913 -1.067399133834794
Ni 1.968501480540668 5.063297573682614 6.180522153031736 1.7445618862765695 -0.8183705662730745 0.16863634235589667
Ni 0.41659369614309344 0.6547135526079032 12.48075642732237 0.404246065408549 -1.1977995726379436 0.851050830114915
Ni 8.84305720972961 6.089258333089117 1.8719548511220039 -0.8918251838187995 -0.5118745006225055 0.4981828620680259
Ni 8.973413084411709 2.468552903348047 4.240020390020274 -0.39408146617072126 0.5609532604270275 -0.8969277951526876
Ni 1.9515600887460762 7.610738715978673 4.983829301190251 -0.4333326983618602 -0.12908994752184216 -0.6717390103230432
Ni 7.440212530855791 1.5214160368545249 2.7417597334861923 -0.9926661637972776 -2.097220052305498 1.4112687550378147
Ni 0.3570607445324074 9.375401149831836 3.5446980547043037 -1.5348030628487503 -1.519301110558409 1.6563308817526181
Ni 0.30223792268599087 3.8488672776702963 2.2011703086092798 1.3422135521113658 1.4820440259791638 -0.5007722200617569
Ni 8.76250516616151 6.922778486299322 4.4542458059908565 0.5118433902742541 0.250975149765129 -0.014710566737297245
P 5.756570947397383 7.9180737638681915 12.567023318030296 -0.8495043115634014 -0.8980228279890792 0.043122542221087024
Ni 3.3735982706405734 4.132293177400437 12.88400935194539 0.8060156442521473 0.6730474447218214 -0.6168649839929827
P 1.5222065738563344 7.673402561808154 13.506855071089655 -0.6694404440968535 -0.5027470843999406 -0.19884320495658014
Ni 4.125398959361401 4.5667576059297845 10.297331835945569 -1.8719536201603826 1.9342306238227334 0.4437325535389455
P 5.236985906812734 5.859120142655368 2.764550179865102 0.8906967266413112 -0.08504900725154385 0.24716374643883882
P 5.277891600511017 1.3361178405466674 8.2607292696153 0.6031296366847613 0.4479627895702092 -0.20922789062501385
P 2.1170029371015096 3.0141153575037842 7.346069685460071 -0.36841388620128807 0.3736280834123759 -0.8618165532718512
Ni 6.652938792251441 6.544616838422105 0.8195763674189854 0.17515460309038866 0.8595678664469907 -0.37735361189307914
Ni 5.271300728065698 0.918672019053949 11.747252993277144 1.0068108307287758 -1.591819075222478 1.293638728526456
Ni 2.5919777908282335 8.730800955472663 11.888720508980025 0.20743454617001691 -0.5496859150433243 -0.015757519944572862
Ni 2.8639133271599806 0.8101129041240683 7.622370640654135 1.8425034332200656 0.5787110986310807 -1.1340223302809824
Ni 5.481739839489241 4.00007126770244 5.68832646187257 0.3167144009444674 -0.017840884836162824 1.2320824050802135
Ni 4.030644826632886 6.69079264543111 -0.2360690564054645 -0.4640758930819878 0.16294957638376453 0.4634521434550599
Ni 2.719373747898905 2.6999228607381043 9.418553439381771 0.6562177747589925 1.6516476173443364 -0.7733482359261133
Ni 0.14790028074783737 4.997067119054272 11.539727838011434 -0.4283583850757204 -0.6065036953633168 -1.3375143468634836
Ni 1.9324768932140237 5.637604320915773 0.6284668049187562 -1.0304410685532062 -0.1289639634669392 0.1594438772233512
Ni 0.21476959958112987 3.359782257690344 9.79959319348302 0.4183974172082665 -0.7330076273255376 0.45541873162762214
Ni 4.519895307845775 8.320300828847007 8.214770573708941 1.7368197804373053 0.3092144930229965 1.3483464044819813
Ni 5.167832303735842 2.0108411715910695 1.0651769100706856 0.26104590373756975 0.8531336807858727 -0.13373027450733097
Ni 3.4630668362058263 4.661493354076861 2.1683023539154425 -0.06623187454504077 0.3580189161202092 -0.833817496955764
Ni 0.1647543457806014 4.359085374012574 7.739244182539093 1.7696422262839653 -1.2637679091089524 -0.6887435153008397
Ni 1.4628887218484665 1.3733650025389008 10.577037615621846 -0.8929310152884686 -1.3567371996488375 1.1169185807211603
Ni 1.3199945626260412 6.233503759047194 9.212238908803716 -0.8458515453021626 -0.7251634486907705 -0.4171031238768752
Ni 7.608872680962774 8.805175779677786 12.331109611337977 0.11521884596670479 0.6847019982416143 0.394412624257895
Ni 7.190788914494178 4.048183717324194 10.716742049964878 -0.5118140796982154 1.5538585368183047 0.16230860036565598
Ni 7.455940540275513 2.2547494135214543 9.189260020465072 0.8319259363600059 -2.4463241824345805 -0.379428749254553
Ni 7.341597636025416 3.725111467724236 2.444873562456637 -0.5522930136488683 0.9854771022480061 -1.1800756729956192
Ni 6.949077630045565 5.199582475878283 4.264075695602079 -0.22653964243058403 0.7244520244460426 -0.11050549965143548
Ni 3.903901522203243 0.742476948244835 9.947801415969932 -0.26873247374855 -0.08126434339813102 -0.08587818802105855
Ni 6.036706007050224 5.8178927187819305 9.412095855151875 -1.253649075507396 -1.0637594801996777 -0.871699616713518
Ni 6.542723226534049 7.15965462582989 5.783028198543989 0.17851323514997644 -0.318405158383329 0.05841854914820906
Ni 5.496732465651465 4.598682431595882 0.791387288700974 -0.4458915088634772 -1.3266331811746057 0.44811885553209924
P 3.115469554968336 9.414927999922309 5.368408087218203 0.803719649129119 -0.6088937928620481 0.5737483553091667
Ni 0.4204710043682474 1.6625176993868007 1.9209672260051207 -0.43225849146107487 -0.7240041382753466 -1.22699676302719
P 3.4661830227594708 6.500227266541429 8.859169456901375 0.49608124234399087 -1.4199963647187994 1.0025955070958477
Ni 8.243820970067297 2.524524761534303 6.565948468263954 -0.6390345781114866 0.6342155594562884 -0.1366633889937259
P 1.1339334061885302 5.3548126892452235 3.6890179382172015 0.7934995140630077 0.580421139343652 -0.5680255938927766
P 5.364207210359751 2.9098839730442743 12.51939622135849 0.34260026757229384 1.5507351606979745 0.4899861851898465
P 3.741905782867328 1.9827679157361138 2.548818147445723 -1.5368064664320242 1.5182649559844108 0.670824983149206
Ni -0.07267700810937666 8.425975402949353 8.413927986733405 0.06418193399454752 -1.745592384423613 -0.2914294011254336
