# total energy = -340859.9440978089 ev
CRYSTAL
PRIMVEC
9.36134837187799 0.00000000000000 0.00000000000000

0.00000000000000 9.36134837187799 0.00000000000000

0.00000000000000 0.00000000000000 13.70127960183723

PRIMCOORD
 96 1
Ni 4.089804676783939 7.91502019817896 -0.029502289952171485 0.02121031552902799 0.13432111401379446 0.21204376280725415
Ni 9.159677017208269 6.80107588893933 4.470495149147257 2.1927668737645716 -0.7856334810513697 -0.5942626732124346
Ni 4.520894777465359 2.209652711505809 10.298704123750086 0.19962019233192071 0.020531030073816254 1.0120324841390314
Ni 1.276232647685083 7.634778868016115 13.019805688016781 1.4371479367974218 1.7504754235475273 -0.6967967246226193
Ni 0.8003428773875709 1.0048471532495915 13.260688164340214 0.2497947563037827 0.14425739929089992 0.7022754883490034
Ni 1.9872738767243294 3.39805718710418 6.099659062343309 -0.49760950606305904 -3.2265791727828557 -0.19486802235891598
Ni 0.5377055631711194 7.770415447142567 9.723305090646422 -1.2154244848085582 -1.084096906205449 -1.719739170805935
Ni 2.9280706832016667 0.23900271753479288 3.344866004648766 -0.6962475369873687 -3.466108285494573 -0.7008786080014768
Ni 6.890036784200471 3.4727794712222932 10.47268291426353 -2.9131012764978155 -2.2011597258139575 0.15290119100882696
Ni 0.9086508716949289 2.997850175285908 1.2768973034320619 -0.7848330966372613 -0.5663597761545796 -0.053955114060216754
Ni 7.7464597562056765 9.034150694514736 0.310588949888991 4.666840201287963 0.26803930433626744 -0.8415305493293056
Ni 9.056000082028099 3.019737008193469 3.6449374794429557 0.6441932394942905 -1.0177431613705632 1.8926083202962565
Ni 0.19899418610607944 5.003622076743061 2.8959575131391797 1.3703871863321044 0.9664645657012453 -1.6481753425250196
Ni 5.3315782004601555 4.112852316911575 12.257356613420706 -0.37136371285823144 -1.011591539946871 -1.829657944715965
Ni 3.8734919958622105 6.444240004948572 12.048412249941894 0.33720789291212894 0.029081233636672497 -0.03569719629129336
Ni 2.344868029947556 4.226405474810937 9.11248833144247 0.7138439099128931 -1.4974012251615243 1.3952541247771133
Ni 6.586953763578067 6.05413388821467 10.523528142772566 0.0016295651836230002 -1.408638259393503 -0.06951414484073834
Ni 7.117292881575979 2.315623177080482 12.82780910995108 -0.09047737735596675 -1.0516467560965437 0.019551696879682456
Ni 8.98255094131265 2.4973456751136576 6.740988201007868 -0.4639360250700139 1.2003449647676165 -0.44181373924967776
Ni 4.566287956579457 7.664566679099031 10.293100420508656 0.826609666353415 0.23654200505893455 -1.0984614024572374
Ni 5.492471697971807 0.3250119795984343 3.781553255627633 -0.9314841929713183 2.3596695212588137 -1.3991058944230357
Ni 4.157384251959165 4.146571894385071 6.01484805289394 0.1840670750886701 1.3532520693137147 0.8796276133113431
Ni 3.029220054273605 3.073021804134373 -0.02505096871712229 -0.4053323564941923 0.10249034265644284 -0.35192077364227137
Ni 4.529319991159459 1.1665550880850064 7.633325986721311 -1.6984306391361457 1.0001377895839743 1.0442386365579306
P 8.416910177936463 4.563460829317659 10.086923271660929 3.2227271460266174 1.9681121070615266 -1.2367289027132895
P 8.707486436897403 4.6236543004877255 5.326427586488495 1.764709050648406 -0.7316269449279271 0.5024128409889734
P 2.2057303064637783 7.860218863773118 10.904039813378596 1.9508304371629432 0.5679276348623316 0.94164056467903
P 5.6658345117507265 5.8148297352566 13.302818913484986 1.0035869244748394 1.772357568332599 0.47168095912275537
P 5.848642926215586 3.9377950990452875 2.453598221074474 -0.030826755572869492 0.5068899029237206 0.8414567586685766
P 3.6410122659963604 5.455737766265534 7.993368132590101 0.38652396553843754 1.6303324008063276 -1.9543389645368343
P 5.106962003375465 8.131323517752138 4.956438071651539 -1.3573552928488106 -2.7660046079859075 0.7606503287434706
P 4.575995675024769 1.8835594961499653 12.612042195649757 0.5032494779576558 -0.5784267346214425 -0.10605800540304317
Ni 7.452541495812745 5.293889411201884 3.691248070714856 1.9931543947421353 -2.2363339597222454 -2.062223995846287
Ni 0.6864489664010252 5.5991910714304005 0.3698781147892236 -0.22044355683517522 2.659775367112322 2.8591847289850176
Ni 4.318146690591131 5.680625442458146 1.2658162751546114 0.9862242648266757 -0.7357340251177651 0.22751897562471785
Ni 6.56597498147976 2.1262618186313227 8.299098542582161 1.0818502762631175 0.4464196134528054 0.035142609339403996
Ni 4.597142961396959 3.5435699889498258 8.347066092547232 0.660517944796243 0.5456312853579764 0.03574758991325456
Ni 6.568596159073479 7.59609777581165 1.4287833113698667 -1.6650381797186293 -1.6356782384992732 0.8307763961365949
Ni 8.192237812760478 9.68225557725906 8.275189658388015 -0.6682806194607975 -1.9516981844798775 1.7605626325802002
Ni 2.4781642719367576 4.39524675724069 2.155512288307526 -0.3458961647147462 2.358856538439215 -0.9847304538899687
Ni 9.045590262441612 2.8133848021278762 11.641470683977474 0.7179111380037313 0.10725408259367335 -0.617953074850839
Ni 2.95011665903456 4.574282548240303 11.500580516045321 -0.6967743560251161 -2.4401039125564816 -0.06986072954687969
Ni 1.6475692605782404 7.937777636501577 5.635350216335764 -1.1515222868379589 -0.15359153220763228 -0.71664872635154
Ni 7.497138960300178 8.145215758998855 10.42516658129852 0.4325629100753711 1.3524295734124192 -0.9313216992515252
Ni 3.2631507931645505 2.405941467881228 2.5167742178922508 1.03253677473997 -0.7770084583865199 -0.4119442053837551
Ni 2.0090483734493016 6.614307624038244 3.1624470222835446 0.9535946517171124 0.5590866395319339 0.42705509288326454
Ni 3.5799669121083353 6.4508023102814205 5.30098437726717 0.557327490748982 0.5923423162612702 -0.2793220763389383
Ni 5.100146941631793 2.946110001855589 4.271866991769444 -1.7832778147895287 0.32462465693047965 -2.2878228716301567
Ni 5.7156930541226965 0.08490930360913401 13.938586474976583 -2.7473240008572684 2.979189683486456 -0.3593276076293037
Ni 6.050829332176874 0.11088704583260724 6.39533257558918 2.000840193422167 -0.2683676342099636 -0.6007145994853654
Ni 5.50759963722699 6.992449937326524 7.001449937821532 -0.8684353441399496 -0.668379864042823 -0.6659334593848596
Ni 9.234577166948812 2.098814344685657 9.16140231374585 0.9634869711301601 2.241557927125346 0.28935992019091455
Ni 1.0525057787125471 5.9182071072832 11.456599028292413 -0.4882373208195398 -0.8118980711748534 -0.9171276671393302
Ni 4.429181645730813 7.860050359499236 2.4159599830983667 -0.44500756359662713 -0.16272306219525526 0.6487860010712956
Ni 3.1129854010900515 7.68272769528409 7.921709817852075 1.5312009473197887 -1.7685453936753608 -0.1432461844175662
Ni 6.242437414277792 0.6725436192663415 11.429196488819782 -0.6100659587932783 -0.3317975205298351 -0.1421192699019746
P 8.397813026896504 0.5951102886084384 12.141772979021065 -0.45406041782751483 -0.2251602455845542 -1.509973662509896
P 0.715461657824084 8.540685928451332 3.454339486850474 0.0032095080762331823 0.644273972133555 2.5700271546128963
P 8.199942202616304 6.364078777323491 1.6822427594688794 0.10084380819195535 -2.197103553466713 -0.09732268241257433
P 2.587598436474561 6.904649849285458 0.9890339632806218 -1.3459403661436498 -0.522876508159964 0.8851143474575272
P 2.2794883716813445 2.0409612106528408 8.242142225740338 -0.16330618839223487 0.1875995137219608 0.8653160817846776
P 0.96697113702034 7.054843325405605 7.615144375569444 -0.08162378362007879 -0.4418767312771293 -0.09234117003758291
P 7.146060305667054 7.386469097753907 8.244745616771816 0.3286134663748986 -0.2913689802011434 1.8621993689870961
P 4.633268405447548 4.905440253161155 10.194080756231614 0.6919162566018664 -0.1729452541438957 0.3404932485316201
Ni 0.8951050003445268 1.069908525665137 5.110152350960963 0.015442816917631467 -0.4907917118102773 -0.5616883388208391
Ni 6.639704962651679 4.425661778676389 5.893632631207223 -0.15299915003927197 0.6639951047115662 -0.8315189307295744
Ni 1.6593458370528817 9.292935813803274 7.651822139184423 -1.792571067165997 1.9855891808003676 0.6229322732329853
Ni 3.323007255786852 9.52882307454096 9.594855218801035 -1.316007068919327 0.5516252981578823 -0.051961737779271794
Ni 8.358879178281216 7.719892249023617 6.485459894879527 0.6937954759024503 -0.2898481726812428 1.3655643110221642
Ni 7.7097632698936005 9.039243268125391 3.4070010195078937 1.0379687443888188 -1.1087414442270065 0.35792044286913194
Ni 2.8188331069833934 0.5455428841763417 12.118508155607092 1.0212869128577635 -1.2309819729271831 -0.6088544549836805
Ni 1.4910475128389713 5.486948502327897 6.107591869103731 -0.3233074807809529 2.4418676893251234 -1.5296276892953977
Ni 7.974595820344791 4.3789392880683335 13.350609533962484 -0.05806733645637741 1.3054148952257776 0.11622466152339983
Ni 8.462181659519423 6.808995589811783 12.48386661131686 -0.21451639271746278 -0.16437962396207173 0.06302905133702694
Ni 6.378570144877342 7.672945086050385 12.426088368072435 -1.4721103118052197 -0.008301577887159897 0.4209106705484235
Ni 7.763235292805484 3.065645061477762 1.752736522447409 -0.95802851911875 0.3775122489581305 -0.34564831036999827
Ni 2.064046296174673 2.3752736900347062 10.937882024518084 0.10126006979376755 1.0780722972779242 -0.795573880093533
Ni 7.413130218421457 5.138565916076886 7.842352730067352 0.7321743327909648 0.5967342746813787 1.755919991601866
Ni 3.4199627427088384 0.02109954349458966 5.964879982743946 0.793451948654524 -0.16982779156083655 -1.3571881711433271
Ni 0.7889987952158936 0.5033334997037584 10.583909777048465 -0.6353172771608995 -0.28560996623017915 1.2122854249589445
Ni 3.2584888415871487 0.6001710336340275 0.7278710614606375 0.8566015847298151 0.5337548456353647 0.10943514940539217
Ni 8.9315877598119 1.0379301590217551 2.0098000897377863 -1.0208133156554549 0.2739279019065605 0.18978829384316348
Ni 7.067752625054675 7.123312228692987 4.718008268647945 -3.701977947076831 1.8449948321833514 1.1092237831800638
Ni 7.146228809940936 1.8979572502183266 4.544564011136649 1.1873269552413939 -0.6431586275821892 0.7098072779496744
Ni 0.4495085539515768 7.691452472131757 1.5525197442208305 0.04057766431204624 1.3830745519917858 -0.5124504277306337
Ni 5.4040256768808606 5.601372265642317 3.701976176152009 -4.117733041566244 0.8536453303149685 0.31410421701513
Ni 5.592347925641081 3.110148912479705 0.5883289277195433 -1.3335116534619937 -0.7439823811694865 0.9746512152770956
Ni 0.6289262879719888 4.5316977736909045 7.920613603936986 -3.0040658779028457 0.047921763381943275 0.6272635536184874
P 5.793045877183078 2.563886140599945 6.176659898698249 -0.19664182642988715 -2.1648436649917424 2.5686732116881634
P 8.592894169309101 0.43512952258031384 6.334649505890002 0.0037707798963418936 0.9000753396427338 -2.532774955129657
P 1.4904764705774822 0.7179564572123923 1.7568190065496279 1.8592557129777396 1.0349315002243917 -0.9633581588617796
P 2.9378158470411755 4.48963723466025 4.164682359287966 0.17637330598883819 0.8430618983721675 1.4381115862622715
P 5.608880067178615 0.33771158504000687 9.367058035479396 -0.2050336500380082 -0.04691903314904177 0.19300165857413856
P 2.887601573424343 1.7794706616336415 4.570815104737753 0.7851380294721898 2.478806728443318 2.4524526639298214
P 0.8850761876439838 4.031558366112065 13.014187942752528 1.2068760810179149 -3.818340933950308 -3.123849460422097
P 6.725885537393767 1.0335022411580785 1.9620506591939053 -0.5296781044628297 0.14666112363638614 0.010973982513000455
