# total energy = -340869.9476468835 ev
CRYSTAL
PRIMVEC
9.21293679528058 0.00000000000000 0.00000000000000
0.00000000000000 9.21293679528058 0.00000000000000
0.00000000000000 0.00000000000000 13.48406425781564
PRIMCOORD
 96 1
Ni 4.952948402179972 0.39631012844313185 9.55105870987541 -0.42548286330013824 0.7917059124976946 0.8987399086607618
Ni 7.633783962210221 7.882551675405828 1.895899813534935 0.152265357197041 0.8391543357876451 -0.36511747483820345
Ni 1.4329156631528135 4.625207396727765 2.276797620394298 -0.8806557974655413 1.367717095699109 -1.3675260627342254
Ni 3.066894453954724 3.061210072092577 1.4027340829576869 -1.233472600559521 -0.16442101872296844 1.4696546511758752
Ni 0.23474101727158936 6.331019453946465 0.5296664639640223 0.8875023880737296 0.901033589790945 -1.2738574321344707
Ni 4.140947811930318 0.2865075865507092 12.824814913754814 0.8043171735038018 -1.5949967016195112 -1.1056129259003538
Ni 5.240382810149372 6.970977666734644 13.354495197123688 -0.08821403524308678 -0.7845417906490876 -0.32445367857025414
Ni 4.492163379756513 8.138717376665134 7.77542364899895 -1.407928634920988 -0.741890017416832 -2.5383038553676864
Ni 7.958917706613826 0.9558237430048806 0.49824942897519414 -0.24259900988629188 -0.006324399556131044 1.666633292119891
Ni 7.291661562776148 3.0040898653740835 13.248321630945203 -1.0012659896511467 1.2361776581955097 -0.2481461649567662
Ni 4.8240317807909605 1.9441599391564648 0.8936668238649353 2.6645038829362435 -0.6179767289999228 -0.8606623850627501
Ni 5.83157694968578 5.4306944408241975 7.967611954852575 1.5294729088850885 0.6831266833346945 -0.6949159626601387
Ni 3.903244835552278 6.1060579688412755 3.9397335921215144 0.5218902329872948 0.08002892832913314 1.0954323858229265
Ni 7.964030886408787 6.333580650312229 4.582883166136675 -0.47515194839049135 -0.1436048533085656 0.9169826569210338
Ni 8.039346642848091 6.57393695242171 7.928023045128374 -1.0160120376120698 1.2408002445691857 -0.12816332194251479
Ni 5.149792004881155 4.271412206662671 12.972397865923236 -0.8345214650013241 0.9259313814738893 -2.176217196936007
Ni 1.7948735150167119 0.7293881880488915 10.827002517203862 -1.1809439345331856 -1.403297306796564 0.3042340090892696
Ni 2.64060266603998 7.775681611222839 11.332276810311775 -0.26743252399020395 -1.0561143049495938 0.32683323454602425
Ni 5.092524391177581 8.206939171947464 1.8469395047342754 -0.3615624104970935 0.5537875959165237 -1.0475890410874023
Ni 2.1932040404490962 4.624608555850878 13.17171882726742 1.1512682618456236 0.3148583215723352 0.5962493646251603
Ni 0.9924728046703913 0.6639450144353194 8.007767460175675 -0.887221109387885 0.5341567090594737 0.5606293014287054
Ni 2.7011224463518806 7.261562899010128 0.45224186634441793 0.6243890602841697 -0.44559711755151005 0.2788970729863778
Ni 0.9661145931507769 2.460158090428946 2.789461609923001 -0.27156274410849357 0.3895761221012 -0.8721025085788916
Ni 8.82367157164898 2.44555558596946 7.33275494504182 -2.4409541763719185 -0.7493685851820642 -1.25976007350114
P 0.22079263130839596 3.217185088180334 0.5861482141783881 0.9534974640176158 -1.115151975739041 1.746245958847212
P 8.981406258621128 0.6430860047528452 5.791040950082441 0.24854417172613325 0.5197870706013629 1.001202483403063
P 8.805208846767712 0.805873066138611 9.823086324022983 -0.5153699153702738 -1.6486869920541154 -0.06500442989584289
P 8.666904243016418 0.8550139484959935 2.567850869847411 -0.9563935546184883 -0.20083298169309927 0.631971243506802
P 5.02239551802578 1.8923003192180132 11.742623768909148 -1.3767138998810806 1.337169047708923 -0.05153390621323382
P 5.235831619485027 2.024874476424323 7.37297862609552 -2.452261116744306 -1.4858307467151055 1.3546672044936863
P 1.9002418705391972 9.100778277726212 13.079366508527498 -0.6290895510836327 -0.34192663854403693 -1.4501824013838767
P 4.111613821899401 8.371491431979564 5.4500830658305 0.15767341558648973 -0.1521763970276605 1.8391987943268646
Ni 7.697859936037176 2.4366651021818235 4.455417582257043 -0.5650675397057172 -2.1275153608549298 1.269251557931343
Ni 8.338997404705994 4.4885795474317565 5.987382447740695 0.5134917245109544 -0.24206190643589925 0.35656341462060526
Ni 6.310152152621079 1.0568251665943713 2.77166313776825 1.4954075917702634 0.5790373716222479 -2.3946061852349985
Ni 5.864715882519073 5.417123785260272 10.529152884444906 -0.16864379855506442 -1.1766972434416896 -0.6349059006550937
Ni 1.7034443325208524 3.133780373434766 7.305948984805025 0.993844757486411 -0.6209854339192595 -0.34184564879445645
Ni 7.677840224876 2.9378027867709284 2.1322623076424043 -0.5022614030127738 -0.15083042452272735 -1.1918724085202312
Ni 6.841296371610529 0.9473846931090516 11.435753749956952 -1.8408795244633973 -1.385506558472046 -0.08736145743480438
Ni 1.5218112880926107 8.491324097913022 5.966725201369048 -0.2893869167741081 1.4833270064566453 -0.4874873300273927
Ni 7.457494420991129 8.024338769179636 10.63171221560796 0.2812534890336963 -0.5368003173299077 -1.1296632819813384
Ni 5.735108290887498 8.610963292178564 3.998348137151256 -1.5953792817699106 -1.4637825086658147 1.457270675689226
Ni 7.345944185031851 5.481273462579767 1.1429937623101891 -1.0161439352042436 -1.1577356147375222 0.05877464693604716
Ni 8.773028059337438 1.7394300627535033 11.857818642574529 3.6780191222683882 1.5133898872802967 -0.15785159303556687
Ni 6.176518507709507 6.292408036792076 3.0424497693601786 -0.7761196280236634 -0.328054508547635 0.03247071893419569
Ni 3.832240733426564 3.6468580238153496 11.07370653260835 -0.3872472168577073 0.09693727404869758 -0.3720954488179333
Ni 3.015900850053617 3.8429369527814297 3.9240246139802717 -0.18474738898514634 0.29712593728957865 -0.7252238696150607
Ni 6.17669355350429 3.3795354563728006 6.232657536683563 0.6953993300544605 2.184391762326999 -1.4997743533793912
Ni 9.170842660322041 4.47464037440513 12.494037324409959 -0.6596586821197413 0.00545202425350674 -1.620216138307932
Ni 2.2654242502017206 1.9991795963375685 13.0575898903629 -0.621308107366001 0.6670048380721675 -1.1214696904269525
Ni 1.2784976333449636 7.0896587155971655 9.352223270288334 0.3255623382534006 0.49211043062170085 -0.00923565966565506
Ni 3.202545731974578 8.448760330971178 3.593813620234318 -0.0185358540206584 -0.17983066840981934 -0.9798620700540738
Ni 5.406501269397945 3.897357769085646 3.6461983775571167 0.9104553973254771 0.7957314887173199 -0.11465783125691222
Ni 7.216032566493548 5.792375904591071 12.255139430159115 0.40308572655186065 1.2045952554035384 1.2808629169180266
Ni 6.487049747653627 7.754860374580292 6.050569373188886 -0.4494784548837872 -1.1204417633830703 1.4578671716226441
Ni 3.9769851798385396 5.398679486252139 6.4874799917913295 1.7748484530752529 -2.4965005461786554 -0.9515210570175355
P 2.402439042833565 6.507456402150638 2.4910057659379023 -0.11190597954338792 1.597919788803577 0.16294340573617747
P 7.378336870003177 3.7478410215317055 11.242931594067484 -0.30357786356250943 0.8422324604923366 -0.5801874260662911
P 5.691789063147119 3.888789738077872 1.3543799853831684 1.5113000946308037 -0.12627561800149867 3.0451708754732714
P 1.740517189268468 2.81417439097166 10.998424864034344 -0.008273809973018008 0.11829131424444145 0.17914778341018178
P 5.843028629839181 5.670488753803061 5.220153044034458 0.010239675450137204 -0.5639149141585127 -0.10485010113787104
P 0.2802114657004804 6.7030286196055044 6.260354387886434 -1.0601949027768707 0.7836635018091923 0.313562228468731
P 6.207280502908387 7.897550336137715 8.687067675988045 3.1098009527488313 -1.1039203686892796 1.6527665614401277
P 3.9535198304011194 5.93261522502154 11.752090061232252 -0.2571722797147764 -0.8255809679785846 0.21979512461789888
Ni 5.067308583792337 3.529144333292416 8.983946265232788 -0.42843371839834604 -0.8155328397139632 -0.0850358946254213
Ni 7.973925580282281 8.705340614376022 4.267072913539379 -0.2552704347063733 1.8610742542437173 -0.2495258189131122
Ni 0.7552995721449822 8.687145064655212 1.3936188035178034 0.13886836706484468 -0.3945337232167915 0.7727604817434434
Ni 0.6772153282671449 7.52412237824728 3.9475673520848584 1.9145200327676832 -1.689562647222555 -0.8302331220386154
Ni 0.6077728188896216 5.211131736547563 7.909469112175089 0.7687978975512695 -0.5291880522002885 0.2172525607017033
Ni 7.951390737438179 9.000504676125553 7.772160426866741 1.1512137544586043 -0.830750427994666 0.725828335968279
Ni 6.7300409496214115 0.9280651651270062 6.198408444993885 -0.28803065985652976 0.4382051959628131 -1.0857316135953947
Ni 1.3261008765892308 0.5177799332046352 3.824997522697196 -0.8995258948971669 0.13602549829941088 0.7616003513615657
Ni 8.450252826695113 5.709026467464908 10.204375680686463 -0.30114997084730716 -1.2795989626039381 -1.4491102513656204
Ni 8.81604326017109 2.9337951593640663 9.712072280971933 0.4275526013449733 1.7611673560437344 0.1834538669847034
Ni 5.100779182342061 1.7385548337795906 4.477059691547755 -1.2784054565164693 -0.34169369659762444 0.8083787451676852
Ni 1.630394958477153 5.403774240173966 5.378226767072292 0.6216768035593294 -0.5988086407119042 -0.8684134897630786
Ni 1.7380112705221085 4.911757362786685 10.866955337922478 0.27040189103117307 1.5658553041688645 -1.9125284562589513
Ni 4.017402332560157 6.149146873167468 9.277076110588217 -1.8063215839828697 -0.37586442894206235 0.0370915055356587
Ni 3.620766987456193 2.916244515202981 5.960603205019946 0.6752845615824563 0.40948571654093346 0.4296441937666794
Ni 6.875457940402815 1.5644763973366982 8.79723228628757 -0.21046459124559236 1.0062701277339574 0.7398362202115968
Ni 3.0491871898719904 0.5181033072781545 1.3798648105161844 -0.3311861121980812 -0.38840755571439556 1.740497486399209
Ni 3.0075170777771927 1.9895797164342346 9.255447820702356 0.29128490512776933 0.9301407915695465 -0.5951880132401814
Ni 3.8262154729114193 5.143342949283906 1.5445994866923194 1.1865116584289501 1.3260629104934323 0.13439104801978147
Ni 8.71157777243222 4.135291068877874 3.6406162592908693 1.5868393626196995 3.1625607609493662 0.6788972186343791
Ni 2.6172386589048027 6.8770609913655605 7.006238338859434 -1.5399038744104252 0.9921683982252526 1.950163493002906
Ni 5.048919562403609 7.6632377204165145 10.972858965059537 0.6732145664273051 0.7676699545944135 -0.048732175098380584
Ni 3.2399594673751917 0.8704548301831219 7.080387737529291 1.1192289740218917 0.6893310123731935 -1.4387355929995156
Ni 8.861048455303322 8.661910831396833 12.565003653495747 0.7691529668978431 -1.8921851167159094 -0.5449612558741452
P 7.8130308560674795 4.275972610263583 8.165221152582516 -0.9175441858514586 0.175231221964595 0.00795859272544436
P 1.3119129542752823 3.283112862257356 5.1402731988196155 -1.0040435523962836 -0.30172512662448675 -0.1891321483164033
P 3.072818372167626 1.7589522753400335 3.2566302760940804 1.0634056964046847 -0.8242329385911223 0.006634731707698251
P 2.554102404607732 4.611461695369057 8.536410366887049 1.8766615671590132 0.5793664728268926 0.8458733996790336
P 2.6244063235543167 8.781540812725806 8.592368822304381 0.12894185197975214 -1.6102942512085299 2.8334107053447073
P 8.89156170121488 6.135539365857272 2.5859736373693383 -0.569829736981051 -0.572307251987266 0.20064194872821575
P 6.593440739135104 8.6600774570199 13.435197757574008 -0.6980560509510172 -0.8736397711590244 -0.23719429393095282
P 0.4126898083664882 6.585969047578863 11.669796426636726 0.2273659949866213 1.4006616689459297 0.6200246126678871
