# total energy = -340870.46651736065 ev
CRYSTAL
PRIMVEC
9.27246968947454 0.00000000000000 0.00000000000000
0.00000000000000 9.27246968947454 0.00000000000000
0.00000000000000 0.00000000000000 13.57119666614918
PRIMCOORD
 96 1
Ni 5.440389686524081 4.154789603235479 3.4539911919116197 0.23606583675346443 -0.20097413525665386 -1.6085505290445459
Ni 3.748367991151391 6.232703663147046 7.155047334519791 -2.008805985236463 -1.3557750928458845 0.2453076670667065
Ni 6.49537418006699 7.932588412683393 13.34013315762904 0.004615387284824309 -0.6187087220699409 0.7009796523557154
Ni 1.9127806500052091 7.499814442187611 5.0157105819302705 -0.962529235202581 0.4519999357540602 -0.24873957556639092
Ni 4.39660633617657 7.802987106026021 5.187399627796187 -2.7020805556384366 1.1407066842796936 -0.05565898412520092
Ni 1.129748415384392 4.997963075244844 13.228972011131182 -1.7321581132955781 -1.3016615988309324 0.28607096502699764
Ni 2.5847657895034177 3.2706967231786814 2.0280253920852327 -0.24682796036597493 1.6091354550137382 -1.925688390679677
Ni 0.8419402335615263 0.33677980241242356 2.2652772882754166 -0.1614295401948123 -0.673240534569234 -0.21272844757910458
Ni 7.769847299916451 7.061124636130018 11.308144712065568 0.9062310748314844 0.13039118283176898 1.7723678527452444
Ni 5.551677865854536 7.520501321714876 7.097219578279632 -0.4558424494286021 -0.7513622185733253 1.885316928841166
Ni 7.646226736107616 8.919457345039707 9.880970709459081 -1.2787877795565523 0.38300206842810813 -0.0480289783837689
Ni 6.863036869504744 3.9424315059995094 5.4079184254678125 0.3067696310269297 -0.11631259325151583 0.4874091684912896
Ni 0.3378340821982819 5.928529572599112 9.609614670327936 0.5137107825002958 -1.7596694313419694 1.2163799067432923
Ni 3.6974250435391993 8.96288959233048 11.827908355481588 -0.28043973488314927 0.11119326974707947 0.16301771061753859
Ni 4.132609856113462 6.89669593390814 13.136334477018629 1.1672479251033314 1.78193621315997 -0.2744133261834113
Ni 8.57202718412212 8.010551336513627 4.7447347140499625 3.6467344532224937 -0.7042153856841936 -1.9695910055998984
Ni 0.44884501468971316 8.82319983882162 6.881451993996519 1.0684679414189404 0.4559355233630406 -0.36294206445343946
Ni 7.989771732291036 1.6802827489443977 6.943418053389085 0.44713900811733315 -0.9110233540138053 -0.5842747087617872
Ni 3.253728103933994 1.1745993505136554 2.060515198080566 0.3171905692499376 -1.1494011267298978 -1.0069589262708658
Ni 0.37170826789483447 4.158906579707961 2.0047913651773572 -1.1174268878161464 0.31194757568344345 -0.33308975697869736
Ni 6.220260009034275 4.986567210189259 7.802759003275518 -1.3558730518763293 0.08852591005655078 -0.7388818267181274
Ni 8.161256783827236 6.045622317856988 0.42457896192285727 0.4850576375399775 -0.46524523079974067 -0.3972786329517803
Ni 4.588611362788448 3.9467339318626435 1.0780441980235724 0.4942547306582133 0.5360822082169606 -1.6598322100376575
Ni 6.286428351619023 4.731667022737646 12.948808053191005 0.36046223545437917 -0.8711447726513125 1.9900623860803726
P 2.2401359143846817 1.1553218863553467 10.845652476717751 0.7640117890165358 0.9348338261698417 0.6067237817939228
P 3.027016223861535 5.394268423068849 0.34515933312904856 1.2241232981341368 -2.767758871672853 -0.375149919373541
P 2.0178191848706826 5.612959616995595 5.8766130156859955 0.6242057406287701 -0.7214572034837768 2.2145616010421603
P 3.506532713271235 3.2285533491529423 3.935606041176551 -0.5413244304525064 0.15410472439862494 -0.012698164292958777
P 0.35338957708619845 0.763372744717765 4.837086656100911 -0.4710142720730339 -0.34343716165129246 -0.3352489694135452
P 7.298073322566486 4.0539978594159445 1.817291831511377 -0.8678457901850667 -0.22577448212978535 -0.3223870258492125
P 0.041631533707539 7.599187498168655 12.7977196528857 0.5601449055931192 -0.39920721743306087 0.14326726746348875
P 6.718349254917805 0.2857663840317837 1.333003729280193 -0.08373954441150094 -0.3411637922360834 0.5450083070619969
Ni 4.303955820606672 1.40512221556402 7.721671257212791 0.4860932778933435 -0.6433329483765242 0.8062997511514693
Ni 6.419089573222158 7.6948886562147845 4.2937635220964205 -0.06531861870215201 -1.2870255940853126 -0.5555197481162819
Ni 9.30863216379313 3.1686624684417755 9.712796856792979 -0.8874378533843812 0.8956903232011607 -0.022886417679870263
Ni 4.714225507546796 0.7843053446876455 3.899982140479194 0.661903255179544 -0.6851447422059879 0.3248156898953632
Ni 8.363359529760132 3.985947205516076 7.330088378121748 -0.5661602585492637 -0.16410297326191736 0.4942922687643681
Ni 8.391380932687696 2.584431980600244 12.962989368094188 0.41932378567727785 0.2615560106047689 -0.18874339751841687
Ni 6.163299228695415 0.5004982334681034 11.933953880538303 1.2750851338939846 -0.06159077622860361 -2.6751060839321217
Ni 6.857408480498446 6.902203780810514 9.250032938087857 -0.087960524471384 -0.16309278682984815 -2.6037379166017804
Ni 7.756838025162191 5.371421058140482 3.5169076794312786 0.5659602267233156 0.7233335945708833 -0.11325375182053399
Ni 2.603978346374998 0.6091187233140262 5.097490981467083 0.006468638443479182 -0.052498069898716034 0.28216983020037856
Ni 1.6780851736651674 3.5328572542743313 11.42500657283208 0.21733072223780633 -0.20159454244947217 -0.26997688767861244
Ni 1.2726278984124708 4.482636308500181 7.798457504659337 1.2562690296287462 1.8050483736974012 -0.03994980092006023
Ni 6.968047586961619 1.9505381459420212 9.145466371921595 -0.39697395722716794 -0.4136269924028167 -1.15803129160107
Ni 6.219546028880264 5.387249163632658 10.83330247454726 -0.30621787228851777 0.3234573760952558 -0.025843700535981295
Ni 3.078190983212042 8.305972215822772 2.9572177094547683 -0.08705292505545008 -0.7102209684483252 -0.2400307349384834
Ni 3.218344360197532 5.532873297642391 2.4889032904874218 0.5388489723288203 0.2982605651146541 0.970257199974458
Ni 4.900815411951626 5.39519567002211 5.1997496299666786 -0.0008494924844888596 1.0957051798683386 0.930859414903126
Ni 8.334633419148087 2.7946574098437122 3.8901969033814243 -0.7231785570502577 0.12020138678296073 -0.30592708052097634
Ni 6.025028163025047 6.095944010010493 1.7506978825750827 0.06298277148012378 -0.40255299397684213 -0.7348901890602311
Ni 9.097433125248736 5.604864751093621 5.650055058607778 0.8052240015887875 0.26984087632138043 -0.42767704273797963
Ni 4.479891657518526 2.040128746566156 10.665196310908746 -0.9360730978935815 -1.837243727483023 0.47129092277318835
Ni 4.644997250016286 8.847113537746237 9.456654158423998 -0.1470125934385339 0.13812480403060085 -0.49280437136493194
Ni 7.3323072800809035 8.480405912670342 6.4140731672050135 0.9575520937029638 1.420910906113269 1.1390493511819286
Ni 7.3293215448914015 0.48588018524993437 3.654723466847596 0.22340032547065397 0.4509550394293137 -1.0862954565186644
P 8.142721117231535 1.2359552814109747 11.255231364677696 0.5952515194882652 0.3596862765203031 -0.3445283378329421
P 4.724898119978837 6.876111051545733 3.221679667488414 0.0408453161511361 -0.008468442482327351 0.7985319342805924
P 0.450772761105544 6.482782166441697 2.7399025500066623 -0.2616688820335494 -0.6012884697109645 0.8811291375575341
P 6.6380403962958185 1.7378091499247466 5.211746351047977 0.33382149293839924 -0.12472035769923683 -0.1972748320281957
P 2.6322408335104117 5.0391142950305925 9.848739605363708 -0.35927567134544575 0.43273491687686116 0.7282122628194232
P 4.278308169879456 3.6562552788143843 7.413333827844714 1.705412469770618 1.4656954094178112 0.9772624276476977
P 7.740462843967592 4.650245467771747 9.323819541640601 -0.5041287952388157 0.10783026681211752 1.0104805662708791
P 5.383623628045405 2.5415375365423625 12.536121033443727 -0.6217482802272132 2.5974762519627848 0.21583074065351213
Ni 1.8050994613229405 6.918161700876146 1.0509231518876239 -1.270146816052103 1.8177503946451015 0.12099765743201095
Ni 2.691260102085512 2.943916351910231 9.150894475585988 -0.2596425956321399 -0.20081009887496384 1.2426756072150276
Ni 5.561627225663034 2.1949048080045817 2.1761280572010344 1.245126125638049 -1.0844095523498614 -0.01917991536256052
Ni 2.218846324337796 0.5219259833110256 8.812375157889244 2.728218390376069 0.32215382679248394 -1.055637879533808
Ni 1.4061421872126076 0.5778102299371485 12.833289773259768 -0.0011724230415463678 -0.12590692180817026 -0.4343151168797875
Ni 4.406704055497589 6.308737913314497 9.512526350839726 -0.6041619346040176 0.5446236700290685 0.20110860395198912
Ni 4.699751182606383 2.5011930216059506 5.579525873601843 -0.5695975663655868 0.7138161419987513 0.07588225315061126
Ni 4.043213977349512 4.701800398373091 11.977178424511546 -0.6467031504003379 -0.6445984453525091 -0.16965964141408846
Ni 1.4745173775461173 2.1717792689902375 3.587219888650152 -0.5342736942533122 -0.17884979255378877 1.0912921384023075
Ni 2.0811501517784494 7.562004895342865 8.581270908999185 1.2462563825877506 -1.7115324666254266 -0.2782105884423144
Ni 4.899684170668648 3.951611250836799 9.674756550535424 -0.35687991741975955 0.20213138878954864 -1.7468985048295462
Ni 4.994291177309927 0.9185475223460925 0.15427998431843012 -1.8766260859353872 -1.4595355604640026 2.607577344952529
Ni 8.085593432441089 1.9030167395873647 1.7107446658529473 0.7425271367801987 1.3982877693971145 0.2807580374545165
Ni 2.5106973028768818 2.717454828515152 6.874503205328776 0.45300215176632946 -0.9662897306862779 -3.0188525492937166
Ni 0.7562181072263985 8.194637674144651 10.734626708275067 0.05744152994692043 0.6540079115918671 0.4917630745846111
Ni 1.5426607561413117 4.744481575631721 4.071942869702416 0.14137776375025976 -0.021893971859613906 -1.423678184445761
Ni 2.023929742292676 6.548700152349064 11.773555920822252 0.5315822634640781 -0.3795033112462303 -0.5033865177561525
Ni 8.020083435193158 7.779546303047567 2.1361331143660016 -0.23370659249266848 0.43423566979210376 0.3125083332829198
Ni 0.5924913309481392 3.2243436479851346 5.554555113150507 -0.37469869076873535 -0.6859186442575348 1.5797073795606085
Ni 8.6334572947757 0.19125581107364265 0.21825446061176043 -0.8806403708465737 -1.0347723489387084 -0.545452593688267
Ni 0.23849069811974144 0.8639159863538259 9.41927868823193 -1.9455877007067652 0.49591746307261686 0.8900292682606414
Ni 8.438281083583668 4.78169199586611 11.650424016157785 0.9212550590441424 -0.10466883836500038 -0.026274360315496684
Ni 3.0566881263659056 2.28358670661452 13.057716916839393 0.6538114793103449 0.47717154992368144 0.07430411003021396
Ni 6.929993371999763 3.0322088067998 11.080148594962841 -0.576930095471258 0.755144311323577 1.017294760979235
P 3.026747322245089 8.81501224822432 6.952374331710639 0.656244771342186 -0.9541446106833116 -0.1975118877396663
P 7.111066157032688 6.0554604080310925 6.0324507748859055 -1.5055410806598395 1.2188399382480106 0.07216752330318539
P 2.856931315224761 8.794251188940793 0.4935763349620056 1.1688258111134129 0.5446560659289007 0.6339782466345016
P 5.558150049588302 7.698977815278667 11.026759569887945 0.14456464611867362 -0.43724206071859534 1.3008694419469402
P 0.7739674684057319 2.204548176318502 7.826590177221294 -1.4418294014334911 0.4826320588176204 -0.1653342745658572
P 1.0063503908443392 2.6255924728555264 0.3851681846683797 0.5225044695325259 0.3022984826294536 0.066338318215918
P 6.171588816457574 0.24014768842521989 8.007888283263862 0.7690025573629079 0.09093940459404984 -0.18990527903700197
P 9.249575805339898 7.726517049790536 8.712368792239122 -1.9646246627335586 1.7132065118937398 -0.6172897302352272
