# total energy = -381167.07668574614 ev
CRYSTAL
PRIMVEC
9.25725321078911 0.00000000000000 0.00000000000000
0.00000000000000 9.25725321078911 0.00000000000000
0.00000000000000 0.00000000000000 13.54892581149289
PRIMCOORD
 96 1
Ni 7.410394031100603 5.51982227134721 8.856566729946758 -1.4960652799589202 -0.6489636642997404 1.087425970578682
Ni 1.0852370313654969 4.309815983481776 -0.003918595212674248 1.8936964111541128 0.10279578971200361 1.1849376290736109
Ni 6.35969581083477 7.967773236758804 0.2303639647740016 -2.4960048374891595 -1.7075336298786787 0.13134660476650284
Ni 9.261974241041136 7.952850544855117 10.256550364739907 1.5129859669736587 0.5243695477657228 -0.3610155368546879
Ni 9.20611597618577 1.1609243322368048 10.52979114842849 0.37617373265236503 -1.305313850871539 -2.128733806643063
Ni 3.826411486882115 4.393834812090875 0.30483763977150474 -0.48314293701576794 -2.452930117786872 -0.4219028592583637
Ni 0.9920442649917863 0.22077437634780445 12.33425101465999 0.7325327445716481 -0.5714500461932932 0.2218538069191405
Ni 6.522780837675503 1.63369224509122 4.285714725186956 -1.1322390131283144 -2.2879367715002012 -0.2568141250444093
Ni 3.396967518264212 0.38400103916007977 11.40104122137657 -0.86894005169051 0.6809728702164853 -0.6381984553634363
Ni 6.717035035508616 4.415802273559517 1.0320939188273466 -0.7291684560851055 -0.4193099017202069 -0.4837682293045926
Ni 7.541041643282204 1.8934137364372834 1.257978298854329 -1.7825198535775817 0.8031946298635845 0.18459826500179174
Ni 3.328167613656144 2.070218012286245 13.415088999379934 -0.030844753294998487 -0.5481018583856561 -0.9998238578879813
Ni 0.15102467757762872 4.884302592761574 4.45946595898267 0.355369137202188 0.7425304792143083 -0.7340160139853938
Ni 7.860231728170009 9.31899891977979 8.663304909639749 -0.19688299590641575 0.1224449314014988 -0.5787887459465516
Ni 5.346239519556861 0.6656455571601835 12.76513356040062 1.3308855286930563 0.8997994602735279 0.0299752062058516
Ni 1.983199833691542 7.471538187442945 7.987484705661113 -1.29015179841912 -0.8381631755189695 -1.7090775773270308
Ni 6.027073451783037 7.695378565998257 9.157095118427216 0.6653778439917056 -0.26737930215476535 0.8906915844349887
Ni 5.9341769175066705 0.08927972551286147 2.2130676097024926 0.2856683302719403 0.4693355988190304 -1.0801695461265848
Ni 5.171046005737206 3.4369866231647337 5.090981875627645 -0.3117480580781276 0.3572409003036041 -1.6246839442712988
Ni 2.329717329559301 6.426505406038809 0.7724566684839651 -0.45072646835827535 -0.23800624830928688 -0.23189319343301354
Ni 8.08769169266474 -0.02518250545012464 13.798631804514438 1.3521567793670068 -1.0787693233449487 -0.4751424353087945
Ni 5.360995580905793 8.558182321270824 4.2693886337221025 -0.9399621485353425 -0.5675201150112678 0.9789611555063592
Ni 2.2863656135636634 3.975897609004165 4.523851079615012 1.372773170065778 -0.4315432105616052 0.08062182471812566
Ni 8.797463797900175 3.6864140491281043 2.01746185292525 0.9912119478492541 0.7902912915383551 -1.378680279578832
P 1.9747572189172473 8.997577836908867 9.860853712086575 -1.803018744861882 0.5557712020054557 0.8387964382275941
Ni 5.324188742810842 5.673048323698224 4.427978338485646 1.2765761166172143 1.2175227620984839 0.1266769672049754
P 6.0002366752143095 7.104571419605431 2.603398758492685 0.9109379933888505 0.8846093827966507 0.6823173000595216
Ni 4.8847376836545475 5.696172941797115 8.29607523581584 -0.41614127418423813 -0.08758051542414594 0.17456299225297678
P 3.8614687041521303 0.9017564246226524 1.9568981263486405 -0.1814286090245585 -1.6681736400238174 -2.3074252192421163
P 9.008677283306213 0.6180827167557446 2.1639393678086534 -0.7383596356660703 -1.1408851188390867 2.152809359535028
P 4.07990284693092 4.515697291135628 6.4735683547789815 -1.1176585442109785 1.5153043306941902 1.3700316027648984
Ni 2.9578034339522197 0.9414256053581865 8.320733780743788 0.18487260170910094 -0.7592598761538472 -0.2396928919830904
Ni 7.942380591664627 5.785662806954029 11.187645801428536 0.44052535945555743 0.8476240638215532 -0.9218785515607542
Ni 0.2981520516245797 7.186238905941864 12.503436571255396 0.2593662020423017 -0.24257201330309833 0.44956098729526445
Ni 8.904246211739526 3.9084492633402284 7.790347799230726 0.44064337309066043 -0.29855187110282777 -0.29233031567314816
Ni 3.8126459516086766 4.556947610690734 2.898318177355002 -1.040760191091027 -1.4449813167989114 0.41586539481503215
Ni 4.962470837448135 7.841606135049526 11.420050990498297 0.5429162004196585 -0.029234985605717394 0.9063125788016972
Ni 0.7794255285739748 1.4657193886443165 7.8189092020411755 -1.6239807475566872 1.2609147559308735 1.4996676525981978
Ni 5.481099181872568 7.039270756647236 6.625830727088323 -1.2240117122569372 0.3472087128785827 -1.8571288964427242
Ni 2.3754203878276043 7.078169733929676 11.642889734274465 1.367922526841696 0.23560946594233617 -0.34239200821622967
Ni 1.4000669500705254 2.522508881411779 11.672006572267435 -0.540227597843902 0.11144420941562097 2.7958378892972564
Ni 1.6684995165291014 2.8680913947222972 9.584848712639653 0.6185434001366702 0.7095959332698166 -1.2095705971309427
Ni 0.3025233265110073 8.779125179623994 7.256140423661929 -0.7198464073532312 -2.305280147874656 -1.6852871597756527
Ni 8.034777234276726 1.7972308773310104 6.625871459001709 0.45931600979949927 -2.0062179127943125 1.2538264816255245
Ni 2.644278787926112 5.250463979584437 9.083186135865276 -0.9401583237065486 -0.074342162357001 -0.05763153447053945
Ni 7.608193756848798 8.274530830811218 11.656871889269086 -1.7429762869570045 0.5350905337276526 0.3976077341564249
Ni 1.820031491573431 5.15659543373866 6.6452876215319785 -0.12398913596016713 0.9679043834715653 0.18573829214350593
Ni 1.6879860341824897 0.5474470988694503 3.1501524891092902 1.8556258295346366 0.09629526958932448 -1.9914780354809767
Ni 5.267849100797292 2.633160827022682 1.7615904531193498 -1.2883574255228587 -0.32958662892144525 -0.3765899942541772
Ni 0.960902865758533 8.393792021751171 1.0816766918455476 0.1143716674750611 0.5463097994822398 -1.6818588508203935
Ni 0.15638184991302814 6.353002816885412 8.777345935589322 0.9453074720076557 -1.3940475060635218 -0.8123097047909753
Ni 3.7080112204750666 1.9735537760217885 3.7233532659415562 -0.22658206563274527 1.2707196578364375 -0.7141984650388346
Ni 6.75367524304881 1.0416446267907673 10.402323402666815 1.7299652194093174 0.07517648533283827 1.7584121618961006
Ni 0.8972361079622486 5.127860920296324 11.055529988914476 0.14918568983045274 -0.27520316907455833 -0.26063555567302854
Ni 3.3399058105133874 8.882787899188195 13.626289524631714 -0.3573581426077588 -0.9063765992704134 1.1217980203006488
Ni 7.829506905323647 1.7716716016820766 12.278998174153571 0.037742251745780164 -0.40199275059799805 0.6483779669995995
P 1.362334386671375 4.660832504327942 2.441638444562261 1.7758848647595675 1.1274966133473228 -0.15537973445630657
Ni 4.781445254212026 3.4521129746353445 8.71122785718752 -1.6224607113677347 -0.059977408994896717 1.0921390597836353
P 6.953381962923655 3.237316932302057 2.9883644034197405 -0.3474930768882209 0.7211622979511774 0.3395748504824087
Ni 8.369241786683816 3.940636732167226 12.719026885899686 -0.894641570221672 0.7353583869459013 -0.5099901391155991
P 2.0850388744064707 8.573262386476225 4.7177766449651335 0.5085878594514338 -2.050937110078558 1.2938724418038168
P 5.382814926325763 8.987339315044427 7.576803337508715 0.5951982976528266 0.5348925587842337 0.5876045444659687
P 0.6697391144553513 3.235085934318938 5.801921320471676 -1.092814231473789 -0.29698221262286273 1.2366335147860057
Ni 7.584078612674415 3.3450713577108178 5.234803484613302 1.3513679649171242 2.0868757329566967 -2.0152867078648002
Ni 1.3440883409256135 7.213668146705279 2.8860699058551456 2.166557562359056 -2.252897520507881 1.844045323785889
Ni 2.280376170845496 2.9362062626052574 7.302193406095219 2.236183293076994 3.6912718735132364 1.3943424115961214
Ni 8.048764943623173 6.404898977438806 0.35514988432941463 0.36027968712992786 -0.652535955032031 1.1736561426225207
Ni 8.633462303008285 3.3464321739079903 10.163496457161825 -0.5316408846161553 0.7390918858464046 -0.02312990114924404
Ni 7.25121556504359 8.873725048460086 5.448172058527514 0.09958473897387367 -0.4581356163381529 1.6925914067465493
Ni 6.206821534099352 5.599832709389128 12.628208604931245 -1.513032503940878 0.08147877340178225 -0.30377686694719297
Ni 0.4399824254809042 7.200633934422158 5.206648475211394 -0.6155820035155012 -0.5168135897953358 0.8052296580157422
Ni 5.6678735192477525 2.2752106236480656 7.021445915914884 0.4278493066497857 -1.9441445405023354 -0.45995852847950464
Ni 4.603631937781488 5.976306676100766 1.5304868338272932 1.9821341323722317 2.919297120895882 -0.09464976356610151
Ni 2.4173742586139015 2.591040325681629 1.890955935754635 -0.9013418650599831 1.9226269781455338 0.21022984952696697
Ni 0.5165723085238062 1.80104486558431 0.657911122243601 1.4244104346260953 0.9706585491779347 -1.920663169550944
Ni 7.4995321206419225 5.457983821026719 2.9740027010503973 -0.8655850191753479 0.5664785611206309 1.3470400269657317
Ni 3.6197247982136105 8.59002727173527 6.38704451349672 -0.7570572120755736 0.4038400882193819 -0.8178506892138624
Ni 8.521384740428916 7.554335058650501 2.7498355414627036 -2.443097705077483 1.6223334417612514 -0.35410209756430633
Ni 3.586935607938883 7.854825492393488 9.261286427140115 3.1508005350896444 -0.5492495988368541 1.2893768679263085
Ni 0.06755665552452839 0.2711690104577881 4.842928226015705 -0.29609055404652873 0.6230168625269915 -0.11333011358442417
Ni 4.914092433050698 0.8896368289400793 9.486808848573157 -1.889991708609016 -0.4254977756984737 -1.5390245571292656
Ni 6.558374975621954 4.6209892872352185 6.848860170277157 -0.9561824670489468 0.42208283647965367 0.8490302001404604
Ni 4.388076800698758 5.640536851014756 10.603822326730588 0.8785112403187129 0.24013100796177353 0.3254972893434201
Ni 0.48524854140562557 2.433333762858292 3.692190575026306 -0.3382479041408691 0.06061864212332141 0.7286251819871258
Ni 4.6463541605702705 2.607453435325077 11.255065449608042 -0.47753433257973893 -0.621194207495956 0.4138648194452357
Ni 6.321592957313941 4.001753116750442 10.505253873515393 0.5955942475396645 0.6384571083414617 0.2817337711042245
Ni 7.577718879834568 7.146645634681275 7.206660406152493 2.3176237570416727 0.0036463385033356555 -0.3398787548760727
Ni 3.5999975919811305 7.9792985167960815 2.6335181569901027 0.10718363436705412 0.3746714370752257 -0.1933688121055702
P 4.09163178653512 6.309614071877606 12.964221895772258 -0.09404349744067031 1.177769650570262 -1.783456506459238
Ni 2.9694305437729587 4.210180168990841 11.684634391142012 -0.2619619877939359 0.2472884449421612 -0.15295544128553012
P 4.340744465895064 1.4477788322489404 5.52275867201213 1.0007823651465086 -1.887166580455395 1.9404953737855226
Ni 2.1772226001986046 1.5577549983877783 5.699748092921931 -0.5863755571548741 -2.8260131273290554 -2.1844341855291605
P 7.665746099010848 5.667253283293938 5.405113797453308 -0.4346694148954127 1.5902396465505 -0.42944930414705396
P 6.179262691793348 3.1715996929569723 12.77574237238674 -0.5397110632187996 -0.11466451612513157 0.006094542933512084
P 6.8406656498843885 2.5254249161200057 8.82020146282191 1.2375603974756493 0.47155060419247824 0.498453085010277
Ni 3.1204255981408533 6.357029721958677 4.766837308911767 -0.6659375731499176 0.7410050437087174 0.32505865914410464
