# total energy = -340890.5193586623 ev
CRYSTAL
PRIMVEC
9.09428284975731 0.00000000000000 0.00000000000000
0.00000000000000 9.09428284975731 0.00000000000000
0.00000000000000 0.00000000000000 13.31040221481986
PRIMCOORD
 96 1
Ni 6.539571489203601 1.9829083418874291 11.297390169811404 0.16516483886752845 -0.3830403778652113 0.23191710469241347
Ni 4.470749457078138 0.5150583478466297 6.3281375974164655 0.34821812797970353 -0.3163485329646165 -0.9503470913140925
Ni 2.7632887546455147 1.6041314605056054 4.922546154450139 -0.4399628020838681 -0.42322774871737434 -0.3720751371029592
Ni 3.5289455234430447 4.213908720367803 4.928429246036356 -1.8779075237509724 1.2008571285173448 0.42089421548819134
Ni 5.107267409174061 4.171629399322327 3.1973852492748174 1.0890833036764471 0.6761808481444807 -0.9982431436644229
Ni 6.930998518052462 5.960092879245176 2.6686154511506515 0.9605643981667262 -1.0299037079924973 -0.9544562283864595
Ni 5.072245325855901 4.517939690871422 11.617452542151753 0.9226380554345981 0.862851679404585 -0.31817787286387134
Ni 5.753598092482734 7.7910903201337565 12.54240567906386 -0.31891295125768304 0.8959088669698699 0.33744726261644464
Ni 1.9271512936340809 6.119597506437391 0.44066074800220517 0.8936599230346931 1.8520877344743907 0.6729119475852217
Ni 2.9586794220281916 1.6625986050531145 0.020759519498926494 -0.7323753930581774 -0.05932383457129783 0.7129314254009528
Ni 0.5726833618007182 0.2777012027490777 4.860413104479221 -0.19698635425349945 -0.7658961505234422 0.2202358116997433
Ni 8.886460314249366 2.2642308880738717 1.5896615470370192 -1.0459401926300695 2.132293241859547 -2.6213677138684015
Ni 6.940138272333104 0.8331436230918449 4.873630735197117 -0.982925539470746 -0.7610645334627538 -0.4689692166185471
Ni 0.9232697851535532 7.331829035385088 2.436042808269065 -1.120906875944947 0.01932158314674737 0.35333308060876567
Ni 7.596454478228985 3.7283376752868977 3.9173577975217238 -1.182628264214144 1.2315216474807371 -0.15727000950048398
Ni 7.504120224287336 3.550589916664863 12.799708405343804 1.187013280655717 -0.1692734617192633 -0.6636603470799667
Ni 7.98718124729714 8.894090417574201 6.996799292303363 -0.5700961032685601 0.4749696571763562 -0.8086510249924652
Ni 6.759907774488567 0.7017848919425725 0.6583606006842274 0.6547774427680401 0.06650055482539516 -2.2353803375597243
Ni 1.891638119041139 6.451511548209118 9.397516268206534 1.3635035718383937 0.024717557351338074 -1.8267194309129313
Ni 0.20825998706679225 5.090124685971067 1.3245722957669406 -1.9823009969673988 -1.76971627405501 0.6417095538404884
Ni 6.393253572167534 2.0208496900056754 7.066426031356121 0.8479613925563138 0.4041892440286845 0.3060944593367761
Ni 3.8136875199872198 4.606745363060941 1.0889230569916817 -0.34024796529003337 -0.42809716099453377 0.03531667302342305
Ni 6.146280132367146 5.76839449070622 4.85554129714774 -0.5702195162203019 -0.27324038892123265 1.2008067348953837
Ni 5.646276460377406 3.2335450273795536 9.163613131741606 -0.3848560909177114 -0.8782572153263777 0.16574230863755327
P 0.1289742101817259 5.769203881881322 12.336506567829161 0.2143793529189663 -1.3215303127304017 1.1963432998073913
P 4.068918568630218 6.048216480219722 12.815388767861895 0.9676806974965335 0.265869036157826 0.9494202086244488
P 2.4660239305944307 8.494178422811071 1.561043657713314 1.3344866157807533 0.3559661473562386 -1.6132368787766218
P 6.337032715488004 7.907197029487941 5.8123062355262 -0.4020703979134689 0.3362995221652466 -0.7261988319338204
P 4.892251279365887 1.0146127622627736 12.589949680460643 0.37358411754831794 -0.9943108984895521 0.3043065141984178
P 3.9733831271196287 6.268943819667939 8.077936733733196 0.12716676235720034 -0.11416443656026146 0.7076799471940264
P 4.610082964872878 0.9236335564682056 3.911900318373651 0.5325130028084636 -0.14458058695827358 -0.7702433717485444
P 0.013858777659970248 5.609335483374453 3.613281355603773 0.18953581151272517 -0.6242952150187829 -0.3186473563011222
Ni 1.3653337810020298 1.0729343982844215 2.710570106297801 1.8537273269603431 -0.7929811796656924 0.01330314486680935
Ni 1.8233855261294805 6.441271385701653 4.803497444588705 -0.8566720329564342 0.3403384681213107 0.63625830091793
Ni 6.027126838252749 5.62746038912701 9.114164787512616 -0.45885706788520975 0.8789910081686086 0.30346267814088385
Ni 8.665623843406753 2.4178333256858524 10.00536267470984 -0.1528759941978464 -0.15698590260116188 0.6734968735544143
Ni 2.2836108048619788 5.204630801540779 7.0409502167627265 -0.5096265851285933 0.09878075501533955 0.058229830176170685
Ni 0.35947426599807997 8.833313325178649 9.087437599596816 1.697446935066638 1.7373594549908598 0.029272266601556036
Ni 1.2184883955597177 0.9668223058003131 11.352908038425367 0.6409654765856122 -0.12855824338808827 0.4754226855533748
Ni 4.430307181171656 7.009591310583115 1.6302847991725407 -0.5309117197596146 -1.0449418332725424 -1.0018588860401392
Ni 5.50158641997441 7.938326759739321 7.880090609976617 0.25432118341922655 -0.1605574220025041 0.5595692355953072
Ni 5.086368747147281 2.6640337514426045 5.080447459573026 1.4837931474597863 -0.388186440842525 0.43711273422958263
Ni 0.8362029398480717 7.676238621815124 6.915019863056354 0.09293098110278189 -0.5294073672999463 -0.1215033934238359
Ni 4.946216753894572 4.56432962777247 7.084088947539069 1.4128075602798444 0.6385622664607583 -1.0361062372587835
Ni 8.046448688736884 7.133319028979267 9.20852251939202 -0.8086345699322333 -0.033595833677574405 0.9355935871540015
Ni 4.822770958267276 0.5494156390872634 10.290111946680307 -0.672898577848783 -1.8773544794609798 0.6223704871922442
Ni 8.04507545202407 7.318178516802756 4.432763546973846 0.585807857576862 0.9053741261478279 0.34726784825129225
Ni 7.4490361529660944 6.513871045823407 7.007434146687226 -0.27660004942208494 -1.565630075531936 -0.3939930202219731
Ni 2.186511146698384 5.247346648163839 2.8683913817314632 0.3356510899479703 -1.1282648589719149 -1.2533341153701383
Ni 2.388122303561617 5.458152125004911 11.640559296058473 -0.6300945953093793 -1.5701603593021216 -1.6407481968230129
Ni 0.8927075381530307 3.2890110585811803 3.7460396968861707 1.2256862717458827 0.7484895250112206 0.12830036174101128
Ni 3.439094008723899 2.5745823851695766 2.644790248897492 0.34345953024879555 -0.42104128258901674 0.19153921509599917
Ni 1.2338759221695148 3.534947750134809 8.645266291210518 0.6878181752730929 0.19410569027159472 -1.0969228543255238
Ni 3.5044364311183385 2.9244849184508652 7.529322300966456 -1.0685697571041273 -0.5290988349205921 -0.5378125606445061
Ni 3.9885705795063666 6.770748159665208 5.840005602280407 1.1380777312972787 0.3816193291479686 0.19122682606190292
Ni 0.7538569367784919 7.440960429780811 11.198733570421096 0.1372511431763959 0.8009426006046141 0.5824924200503839
P 0.25641239598733195 5.926162109870972 7.986268181297363 0.6097150032117629 -1.8774403543065667 0.048355508485252205
P 8.637622546461385 1.6296045468141407 7.965077592790573 -0.5554742395903273 0.5769316381331548 0.545030418549184
P 1.8921746817302514 2.98254282026939 10.609055722228103 0.4828290053197749 0.8894577120278875 0.736111720172158
P 4.054076698992399 6.041950519324834 3.654636697510033 0.41491331531440795 0.03740723700386461 0.27840059296593345
P 7.133564574616657 4.028103427126218 10.559381839784029 -0.2597343840149978 0.24896968929932606 -0.7566324658333292
P 6.213304997091853 7.832687569964261 10.234741405448778 0.26575796450125844 -0.32473881391084075 0.36208665843167964
P 2.4662512876660885 8.348779028344502 5.7685418180886545 -0.17405777048178409 1.867014273877236 -0.4688231779589861
P 6.846903684387691 3.8500009914723967 1.481141288449912 -0.02241693424261946 0.3892202814236781 2.4294340915474613
Ni 5.299493266119263 2.915399729867421 0.27361968859867764 -0.6861765259046118 -0.3093839287213252 -0.20579006858805846
Ni 1.4754018865329834 1.2698074337743068 7.092341099811959 0.09856863900453347 -0.1519380557646093 -0.5401574067275988
Ni 6.985009463995478 0.4834238848961694 9.077614864672915 -0.24692283407262633 0.7931472729299115 0.4419119553904389
Ni 2.4781738925038215 1.363660432954629 9.253631071837203 0.8704983973165653 -0.4512751417728938 0.3783586561188258
Ni 6.05181781623478 1.9988051483377396 2.5033141280594493 0.7924818714317706 0.359961898779193 1.1217864503364228
Ni 4.201276761466498 6.825850419552182 10.762924622328066 0.8193319017450793 0.326604920585302 -1.9143174298385741
Ni 8.331054271038065 7.311403276067355 0.3207935526828024 -0.2961581740596706 -0.23672095383896008 -0.36557076032553815
Ni 7.932297250198958 4.0613612195683135 8.100084950225808 -0.11486197684791831 -0.16964447190543688 0.15986862346559566
Ni 3.0437200611110593 7.963908977442252 12.472605239208356 -0.5039945836537966 1.660442847038463 0.8322450102623214
Ni 0.09870025194806556 5.1116508535156235 10.205710635682943 -0.592221988633322 -0.9788084319785788 0.3642173316214372
Ni 8.657411705978475 2.3905050056725896 5.745382317341309 0.06691321688278154 0.4335491852480404 1.0448263907406006
Ni 4.058996706023073 2.5945989017583253 11.25248078216099 -1.8173773275763991 -0.3695099474789443 -0.7332662803035629
Ni 0.8318749706319947 3.441585842229268 12.584785946649152 0.8324452991985857 0.03831149398568886 -0.14081109261351232
Ni 3.097412707153755 8.407164324346216 7.93500916534969 -0.2884795744684903 -0.47626137940458624 0.38803500286632525
Ni 5.5925383429203785 7.936780731652048 3.5183252199117674 0.39047343710448884 0.5568605784148926 1.2852705590674187
Ni 3.0871725446462897 8.143411932657484 3.559973397726322 0.5258116795288881 0.6141056760802908 0.9992481878901693
Ni 3.64475212146264 4.6249066459449635 9.501511211639365 -0.5702367426114825 -0.5162271211642464 -0.01985380150113355
Ni 7.120968992846818 6.081783478279274 11.373499313691267 0.7603855051178582 0.11285908748527661 0.0318323140192484
Ni 0.8248087128448716 -0.0058867292993626495 0.4054003944729469 0.08440700279217075 -0.2032742441447402 -0.5565985830027576
Ni 4.60554491772259 0.2746446142777108 1.592137010833229 -1.020913588678745 0.44042225821878994 0.13095142621061318
Ni 6.284540514783661 5.5019683798547945 0.2507321069090346 -0.7988744052216757 1.1530196973190918 0.6985286197120614
Ni 8.078742487195152 9.022428937383571 11.293942527176785 -0.9729144350916471 -0.21492854055421692 0.4346365047749482
Ni 0.013266739845373448 5.003401604557932 5.797346140211119 -0.06379061209339981 -0.6252748053232328 0.34796873097305875
Ni 8.275788314059497 9.099830378858739 2.3578847224594215 -0.45530971685358357 -0.995052661751583 0.7679363208819225
P 8.410047212014835 1.7978669684066138 3.556126516073873 -0.27790308450422463 -1.7713147288903817 1.4867941390696393
P 1.8682294349432564 3.262974126734934 1.4034088150784114 -0.410802378469828 0.6705233927483871 -0.24481324392879122
P 4.666512990058333 1.3359592473438477 8.349469284414056 0.39395676766739895 -0.29835543882130555 -0.49811215673109055
P 8.655374586616421 1.4757292807161706 12.761387825630033 -0.9168841836699564 0.6112491804681022 -0.8496392944793689
P 6.629104704022425 7.778176438463596 1.5341300369987554 -0.8943124690170274 0.13475177379330985 -0.4372263769893115
P 1.7058146372338208 3.2684488850204527 5.975917840860842 0.2360213566687742 0.3433921673459699 0.2241163777010721
P 6.977779509116762 4.098102122348208 6.146517493149957 -0.8052628252465228 -0.03172381346584214 -0.7179142233275249
P 2.589906251799309 8.374706828796354 10.149381557037303 -0.8470265394468703 1.0026078483910217 1.1554882134642424
