# total energy = -340862.1623924071 ev
CRYSTAL
PRIMVEC
9.40223462517478 0.00000000000000 0.00000000000000
0.00000000000000 9.40223462517478 0.00000000000000
0.00000000000000 0.00000000000000 13.76112076638558
PRIMCOORD
 96 1
Ni 7.157591945887846 7.935796080029368 11.124737807153117 -0.6044720096452686 -0.18481963698397846 0.016787503870983992
Ni 1.608863333820153 2.2546652035964496 9.768413787330816 0.29137515084873045 -0.6782189616204319 -1.2809331080343296
Ni 3.4949515479704187 2.369485289694172 7.279343359161398 -2.3812498185327504 -0.4250257211580616 1.0199440256766241
Ni 5.123587780665736 9.566961513769582 10.365729274696587 2.053896449817198 0.11527721000846598 1.4908621384914258
Ni 8.553494671280763 4.573077556205556 9.367208223958581 -3.1111991186479386 0.4893112706100089 -0.3466330428807708
Ni 6.517271578747888 5.814783637969039 4.334793909955932 0.24300884373020085 -0.011608273662889685 -0.18785919514125066
Ni 0.396837285285025 8.955506006138306 8.56515532234352 -0.839815880631044 1.6439803306070655 0.40580158282112694
Ni 8.270318176595929 5.975608856827665 11.671797411600371 -1.4050837092730253 -0.3086442223418233 -0.7154205103713938
Ni 2.4553558961739044 4.3099936363643865 6.502652044529632 0.02437920017531285 0.09753762663685783 -1.6598640917168572
Ni 0.9649983243235918 4.52564328382077 8.31475783733462 2.1599207737688286 0.18596094967727328 -0.9584350105285495
Ni 8.757156469918394 2.033440031160051 13.281669605168172 -0.8355306229921288 -0.2862350014086877 0.7009017479299283
Ni 7.949824213705899 6.5125140481578585 0.48660323746327444 -0.3753553505161278 0.3744156123106777 -0.7098545862478419
Ni 3.053356806425077 9.179373206432013 0.8054179612952428 -1.166930650973229 -1.7627043615135511 -1.5510395793122707
Ni 1.9800635466549112 1.557790396735087 5.467224403228297 -0.23251642883930923 0.8496323525008336 -1.2720813140706544
Ni 0.8203092200867244 7.667860607254492 11.054211647161388 1.3795683386107402 -2.204192856213326 -2.1214249316864753
Ni 6.310337802550315 3.9984694050610923 2.0988325711870455 0.7302802010920455 1.1319171110125215 0.495453893172637
Ni 2.8526285049101516 6.794825537280869 6.8744643428217245 -0.6654454640048475 0.2540715293022656 0.6333226153283739
Ni 4.524204741962519 5.559371941371871 5.898841493662689 1.0410813218758714 -1.5191275610950223 -0.13950342954568232
Ni 1.6135456465352418 8.280820472384592 4.950012191781142 1.0215347672025117 0.8606960665141629 0.25304154537585455
Ni 6.598882973059076 4.448902246912024 13.16065344662217 0.5283457588046513 -0.20528561814781418 0.7658372722610488
Ni 4.5318957696752555 4.971572455409597 0.6209169760754418 -0.008068635940747394 -0.29370097076842966 0.8691046022928323
Ni 2.3771951218756433 7.743849465413826 9.125287793455552 0.18195902760673177 -0.4740484309136675 -0.13730693611499578
Ni 7.288245394660688 0.48043725216497063 7.510034701159145 0.31303155277624156 -0.11984271789196134 -0.264323546047577
Ni 0.10636559695433262 3.0406919967318546 1.9445973783967048 -0.2817805651817599 -1.7225072204693754 -1.1808575454669663
P 7.884055584304199 5.774457454766195 2.400270085460726 0.2446975442865334 -1.5021364258536647 1.3482137355588586
P 1.394548803643976 7.7241611866479705 2.9894244333953783 -0.1113526781430792 -0.4202776649501149 -1.3226019485280254
P 0.5669199441020372 6.592103962080002 12.7417651010747 0.2984300008129829 -2.360119721422355 2.3503071062073073
P 3.264145498713386 0.9182795619741838 10.901504317455789 -1.1617804742308573 0.49169211213735964 -0.9808190346507043
P 0.04036567258718803 1.7864715410250311 3.737396623151163 1.3354479512527582 -1.0856475385220208 -0.2307181992883059
P 0.18813212813258678 5.282485541478994 5.812738651994076 -1.0925805181964279 -1.2633002254439147 0.952591664373895
P 1.1578945646102659 1.7726314520358526 7.591996798812247 0.3297655777014708 -0.8217317694358236 0.6820005401500513
P 4.02187156640217 3.5938912602211825 9.716341392732469 -1.6917007766114802 -0.09195679011497065 0.4670349757103118
Ni 4.150005216364482 2.2653179351349957 2.918829637092764 0.1726781165254381 0.8478243527578172 -0.5267930696055507
Ni 2.1460882011188462 5.2140842864543515 13.448041202080274 1.0508954797528158 -0.12918096457375172 -0.37927602572677266
Ni 7.576903391981861 1.663791186995955 2.7284447336056883 -0.11125677599516323 -0.32620999913972853 0.7979444372082386
Ni 2.249343538944361 1.769387681179014 13.908364254262535 -1.8815255801195339 1.4799580899844125 -0.5274918954447883
Ni 3.661295878402854 8.379910620385239 12.119693530618912 -0.17994251139733528 0.17703073706717898 0.0018391100912678003
Ni 4.748147160131168 7.404908318694469 9.663264839503658 -0.2773518399864449 0.6138745339060911 1.7176048980717515
Ni 2.830617874255487 6.231876156752289 1.8843102516313432 0.5196263766537824 1.1671116566357833 1.334325921833173
Ni 8.524375951444156 1.944372664995318 9.509223332741291 0.16032216606324648 0.09856941033548186 -0.5530602308321959
Ni 8.51185217526645 8.835232624107347 3.3288704801002775 0.6696415043640661 0.1709829882112023 -0.04288008719297777
Ni 5.00266564446341 4.031555867800847 7.739914630330965 0.7820323939636725 1.1018143780898702 -0.08189683477580734
Ni 6.049388189910602 8.073454193406109 3.353365181074875 1.3820507387129617 2.2077296657219914 0.15383784389048344
Ni 1.283066510746769 3.4563929848286925 4.270461001742172 0.7581252483287717 1.5105976692471403 -0.6223170082464895
Ni 0.02975995222048066 0.006218637810762641 6.000798382922032 -1.8735345914942572 1.2400996189577354 0.4320474038915334
Ni 7.829118328894029 1.8492878688352898 5.051748128532845 -1.405830871851695 -0.43305244811728 1.5472885969102708
Ni 6.447394172927525 2.003042607449444 0.9517863045901722 -1.7147170350009953 -0.6068217408243678 -2.8882849887850837
Ni 4.46990683848935 4.314328066407872 12.10805168402489 0.7810430334672097 0.4824050304084788 -0.20980098951966453
Ni 9.376914150496306 3.1163987878601596 6.361820677053811 0.115179250978021 0.11793521645660335 0.5045489134953697
Ni 5.67652378159277 4.889425133739453 10.054012297588757 0.8618291516773415 0.9346345656748419 -0.3728040448491838
Ni 5.9316816178620115 3.5098540894431416 4.445199647018044 -1.3319108846337773 -1.004602253113231 0.4647243252992642
Ni 8.362083984024178 7.085157132319483 5.079999962360755 1.3893182189086526 0.17648463475572188 -0.8438044329651467
Ni 4.789516991348822 8.344548816928514 7.084829934563489 0.645989669273081 0.4984260884270835 -1.1261390708781638
Ni 3.4266161085863502 8.95168869898504 3.2164413822022486 0.03141039599048139 0.9683988066094805 -0.39792192296273404
Ni 0.8367659509004194 4.661176492230421 11.065165250199698 0.5081206900070281 1.030418957066019 -0.3866404365116438
Ni 8.292159567031977 4.14709052371051 3.986817216009266 0.5888798116339664 0.2587954171404962 -0.6207355226919825
P 6.6815380153850725 8.417764015949391 5.37023565460882 0.1544022010343857 1.089447371884085 0.9692842945382275
P 5.0465364700228585 6.38892167739512 7.999407836867129 -0.3900003541228122 -2.6821023127442967 -1.958868734086388
P 7.601932139868541 9.280390812478027 9.550479396923096 0.5842631387975615 0.8362335625964243 -1.8018131545895548
P 2.4186401709682377 3.627814521819658 1.3802950163426209 -0.11011212086775873 0.17454268053800265 -0.07943963148456641
P 5.682588222759903 6.592978369876193 11.492902038510563 -1.3473457311316086 -1.7202647042921018 0.96389474809154
P 4.750253260629521 0.532583924414822 1.6424443540876459 1.8647797281197624 0.6058241527977889 0.5044938918877182
P 3.773069640565458 0.3774649215939223 5.372740409844361 0.9251891039912261 -0.7402447685039252 0.011263488728961246
P 0.3871811905894501 6.524248036648683 9.155974805984684 1.7835166702732121 -0.7301881555988715 0.27803986719240503
Ni 7.875443137623432 7.307595192989308 8.908935799091907 -0.7594061719237244 -0.8723174528031751 -0.6080628123203206
Ni 8.68388485749131 8.335701314388556 12.85112530967513 -0.2590844091358248 1.0358694386576288 1.2149606577982626
Ni 5.68875608850508 0.8799428915635342 4.1725226274515625 -0.07438509977979448 0.234593365972996 0.45458158043830743
Ni 5.606401917678848 2.3150557549398556 9.295926124323692 1.6296088923767418 -0.9129737928719567 -0.3693119725355253
Ni 9.332084297031358 4.559152847107069 13.391991662344413 -1.1145511089302484 -0.9842481149369114 0.619442772022488
Ni 5.991489230674623 9.192226060812589 13.079531908721538 -0.04716225950809942 0.001480698310584547 0.9129717359894276
Ni 2.6243798634011197 3.154007725330753 11.66622376706723 -0.36295389152798135 -0.5377701374423447 0.1780859178045707
Ni 3.777404070608944 0.3438820208795558 8.621314868221484 -0.3931278440082004 0.9979114713566167 0.9538484195991316
Ni 0.87939192062959 5.042907207556946 2.227925249054858 -0.29277485940973447 1.725450105147783 0.4246845357685589
Ni 5.410337124410277 1.6082615908206237 6.6083378599391835 1.2369487320335792 -0.1985202743995226 -0.8404704834959074
Ni 4.219478326107035 1.495970705767799 12.699628987756084 0.8727481125826906 0.0053836329094165344 0.4101524035906549
Ni 7.29863486363694 4.540263758262463 6.260401595600298 0.4355903840477853 -1.033252569860072 0.3668609398918714
Ni 0.27021927550277774 0.3043324622354796 10.996359699097246 -0.9546554888814591 3.631846480367068 -0.5970302086552428
Ni 3.9290527087247447 7.42745487670809 4.738696974368245 0.7965753247748538 -0.5651235897546331 0.2908190212349443
Ni 4.962715550635273 7.585995352615377 1.2616595035385072 1.2789896111547137 1.8411402343239516 -0.4074290911222209
Ni 1.9526654357075839 1.256458187486324 2.433020888433556 -0.26255025619723815 1.048266269660085 1.5493447081083511
Ni 7.770692844533462 3.6269119073203635 11.262004787580164 -0.3247298150497762 -1.2617526784511366 0.7853360044156088
Ni 6.793650257984913 6.68667163534981 6.826423626320225 -0.5399853999261087 1.0030436503768598 -0.11380268234546852
Ni 7.253466529734757 0.764035907172912 11.342286705951766 0.4901129405756978 2.4695980653608567 1.5054811739561815
Ni 1.7024249680126222 6.065766882179045 4.701693540790929 1.1880720609375346 -0.9422010651681901 -1.3613957814667716
Ni 2.9614217587782115 6.259048614074794 11.148227409273815 0.01760999977227935 -0.5883113407250061 0.312202629117043
Ni 0.12444327297301018 0.5317433646623543 1.3048984989484484 -0.9047650318089193 -0.7654274384171399 -1.0259668348319364
Ni 0.39122039047379187 7.211053050502295 7.02865722555741 0.159365458576932 -1.0746144206363106 -0.1559050108321573
Ni 2.294634101893323 9.283681594506705 6.995038596352447 0.08753372134661054 -1.0691212587322232 0.8554121924074042
P 3.625539181102687 6.836261184139095 13.717112464766764 -1.4098389645698237 -0.5261541504699713 -2.438562536211291
P 7.51157666759544 8.910610337032784 0.9372024988625128 0.5035225291133845 -0.24133274157935858 0.6892492512926646
P 1.3425826542939832 -0.29332714690814715 12.745233585332926 1.3527303924822895 0.96311904626778 1.5517162936643212
P 5.138659562357077 6.359802957558513 2.906266371530712 -2.967645173181966 -3.2570868544534095 -0.22534896455659253
P 6.179994627511606 2.3433940893239473 12.249585398407973 -0.20084635142953797 1.4800455074918963 1.287186288032893
P 0.3691636888707255 2.6538746726124325 11.614261378610985 0.4561265563279241 -0.16375613144545992 -0.8591778300974235
P 7.555071403780182 2.9565702058445047 7.80090410400359 -1.0255510874507563 -0.04702856214371256 -0.3088190573567907
P 3.552107730691353 3.5703292608958557 4.577058462236818 0.07085420380840056 0.43341111700827933 1.2962483982351614
