# total energy = -381168.1242471528 ev
CRYSTAL
PRIMVEC
9.24098381901300 0.00000000000000 0.00000000000000

0.00000000000000 9.24098381901300 0.00000000000000

0.00000000000000 0.00000000000000 13.52511391208425

PRIMCOORD
 96 1
Ni 4.273622432852301 7.317648773267366 5.570061334986186 0.963473344283405 0.5581895816389613 -2.741630292906601
Ni 5.330726317611489 8.16015852716297 9.981330997080255 0.8022145253385022 -0.003458905082877914 -0.1073263305925055
Ni 8.12239062548183 7.20268169110072 2.5021599882624854 0.6139364974922782 0.355347282825317 -1.1013106989805743
Ni 0.7182231393469116 3.272999442410494 1.6970910052137878 0.5547730997582446 -1.0638849500339482 -0.3703941498561105
Ni 6.933889188972176 4.530300004933383 11.1977124823719 0.37173626570630175 1.3726741825940683 0.6685449288657777
Ni 3.9831598232017913 4.672657363729073 6.545763239728531 0.563483740158365 -0.38392020936700333 0.09280936792325306
Ni 5.45282743943995 1.0316542147739025 8.610614913607325 -0.982107928665457 0.6475580422014654 0.5484769823368877
Ni 1.9706675647683967 2.9765671570844225 7.977274832956797 -0.8115705126321056 1.582645893363642 1.5779186630913018
Ni 1.1777634130808579 1.446962518506189 13.33803527272485 1.0648979646794952 2.2369052588446836 -0.13111186304787745
Ni 4.158405844117173 5.284539879490045 4.27673572036793 -0.6295731755882706 -0.14665289610627 -0.4862855964098077
Ni 8.45808785189994 2.7359596562104618 7.526265835668172 -1.5394379905176003 1.6687467389184683 0.39944890113022175
Ni 1.018984825685367 1.5411004226964964 11.05444119025684 -0.014001713595730726 0.7802444488253143 -1.00984293268688
Ni 6.777882896782054 9.110575251435549 12.72467050312741 -0.48589864538403416 0.5685935505811045 -0.10506504536215454
Ni 8.348452817511621 5.0900726118174395 13.15164554918229 -1.8147324337543844 0.9602494380294688 1.6492215244013468
Ni 4.834929043083328 2.897501297827304 5.00080285800776 -0.5236488675496143 1.2517215194673796 -0.09990406998650536
Ni 5.07434445701898 3.881333420308594 2.5739106845710378 0.09031874029091543 -0.8911772658221556 0.2307919899490348
Ni 6.180656581673465 1.4392925017713352 3.807603305223408 -0.19618057052275245 -1.24198475179559 -0.7617430475870172
Ni 6.693771460251164 3.4930365128606176 9.188339980142947 0.6009861079791972 -1.984902439145988 0.5505276942183293
Ni 9.11549145493307 9.310661037391036 0.9049880468406007 -0.41484003887431137 -2.374547981032543 1.430540201672917
Ni 7.639031715441756 0.4432391779263774 8.175674139329018 -2.221454985727884 -1.4751539837275498 -0.5367193275803274
Ni 8.564488541881996 5.816552570384341 5.967699953177853 -0.8122503123079495 -0.6371476455014189 -0.9116357907868236
Ni 2.5829566838261564 1.6679883742462278 6.422305541446243 0.6568219840018946 -1.376730612051629 -1.3862025560978062
Ni 2.88429593166573 4.749098783525109 1.9363909068492164 0.8718546542341437 0.8789760957702732 0.6571600840676037
Ni 0.18581216204144402 4.350544383817268 4.316215976387588 0.9236844944212413 1.6392181333317317 -1.3531104015295277
P 4.039760850311405 9.250317411754173 6.99263320027554 0.7441572161844539 0.029880589609516277 -0.018410384186387647
Ni 7.594915257740319 7.24998628828833 11.394706235074999 -0.1961911120457137 0.20629451902830281 0.47257570302288293
P 1.5303161943476118 1.0660583982725298 2.0133350361758264 -1.192931703022681 0.3067405775612072 0.17527004562233042
Ni 1.6784399271704684 4.742713263568742 10.00291793574606 -0.11122797963975684 -0.4251416779106355 0.23978905124132255
P 6.5368133467071985 6.225299775463921 9.746359572358807 -0.8033239563525971 -0.12774294657564453 -0.05576234247228462
P 1.542560498171324 6.777845932845982 8.486359718404293 0.08200250711573619 -0.7320311223448812 0.7444017280950921
P 8.275929574939173 0.7870915727402823 4.452453955566627 -0.33183248753282846 -2.4857178537408546 3.758427031203495
Ni 8.739836213621574 5.866370715224819 10.010315343452385 0.7909633779047152 -1.6143067148020327 -1.255911132068695
Ni 3.8307205508425772 7.74957236626383 11.814891006073529 0.3367774902429297 1.0657389725235515 0.3384224820455204
Ni 5.985699541847912 8.193721781115968 7.3169788019260675 -0.26510259030544664 0.06990546674188605 0.4079757076543103
Ni 9.170059465558746 7.678010186029241 7.199486158827331 0.05641745955778026 -0.8786925030915835 0.39457306109515916
Ni 7.358595573450663 7.7843831530592436 5.123827154139608 2.3225152808060194 3.801377309512776 -0.662537289219117
Ni 8.460185555272002 1.6463275077082795 2.7216989696740446 1.1393028619536316 1.298229176110616 -2.08599153057953
Ni 1.7102011892399773 4.651153593919429 13.488460934666566 -1.6541266750124481 -1.0805343856651715 -1.131140123637181
Ni 5.6726704492256985 6.332920275336339 12.302606115979637 -0.16747806038173738 -0.2377193131964874 0.22678415434122234
Ni 1.9402554863655006 8.544546498371377 12.857650111341737 -0.1207973684957468 -0.1396990904962562 0.7869869097554705
Ni 3.9622289944012565 7.027786827578018 2.3785803089911606 -0.12323760250612326 -0.5458750259376663 0.42631075851807226
Ni 6.165288825251704 5.640234595322883 1.502802088532728 -0.17138433741467904 1.243320182777562 -1.1360342185046886
Ni 2.0000816168973596 8.886398220145406 8.144647535488932 -0.024489757611248143 -0.2952343766938205 -1.0345491771843085
Ni 4.492328801603848 1.0846420171325188 11.215714843337164 0.7067620633654473 -0.014345470088394648 -0.2699529764192125
Ni 4.636146235874365 4.426052464227498 -0.11674874388529573 -0.32393868660704855 -0.9845198805410593 0.678906731716076
Ni 6.256460373572267 6.529697789013418 3.583695186568187 -0.882732477488912 -1.0601859039158066 0.13647209891852627
Ni 0.1683097383115488 1.2579197084520883 8.784155972971405 4.416907376744419 0.7508503119339133 2.158999804616456
Ni 3.269072024202888 6.628613281940979 9.9353460124104 -0.3843570397941058 -0.4496836289160578 -0.7960451633029968
Ni 2.61728693945264 3.0993336297621723 3.758440346149799 0.06275934261540804 -0.38959900491933547 0.2278403635198786
Ni 7.498688891161967 2.790943511116944 4.932257859055015 0.7162237229989794 1.6901064355411668 0.8204744999899548
Ni 0.4897971036053415 2.7479082485456017 5.760346133292291 0.7076781474218136 -1.538167608445609 -0.3181994701304262
Ni 5.184663324224624 1.6189279900952176 1.7743188327497474 -1.0902382432164965 0.524637970935761 1.0049735204097208
Ni 1.8454984362459939 5.879677732210589 5.6775995901008445 1.2365293851079737 2.15167755992343 0.06549808170280978
Ni 6.347687367796937 6.271458490633312 6.126186525478378 -2.3367512218997435 -3.2069372301822123 1.1265393916403759
Ni 5.201842313513893 7.953363786810492 0.5986531230409522 -0.13902443302673476 -0.2245910033446455 0.288749026079793
Ni 1.3137167699521453 0.6305326697058902 4.274977161109325 0.04822438222402663 0.22840780598757437 -1.157649225671303
P 4.052457962351994 2.81401824820963 8.714610175449522 1.601886743871125 2.0141777910713374 -0.23314197823845006
Ni 5.961811598161649 1.1705831684989525 6.243503589880774 0.3490496227420634 -0.5659681971431155 0.06307764518677525
P 6.315464056526533 4.6899195218745025 4.569662900456013 -0.20655805710233457 -1.694225857026179 0.2965700647861086
Ni 2.287282159189553 8.373597535024317 5.928233558634222 -1.5828199570476613 0.42009511662566357 0.2770353371872906
P 2.5995534911222973 7.706472416804362 3.9926272113281254 0.5518626109796689 -0.5656138991274904 -0.5156450234085314
P 3.5588877649721455 5.345668988768428 11.74365410847637 -1.0082637611252183 0.12447121780290821 -0.12472267169208197
P 2.201442658647316 3.9349218866283735 5.738030080987474 0.7053980931383852 -2.2454752599018812 -0.27166738800715795
Ni 7.95134925229459 1.8563750744350578 0.31212440028686045 -0.12585215731083485 1.8406789784168172 -0.5682729340168923
Ni 2.77220279552865 2.933023640392096 12.017036607366604 0.19338989515149274 0.11022242119337791 0.331725529641319
Ni 9.092767875233061 8.237163646984099 9.638172600166094 -0.7189174677810586 0.08191534671856861 -0.36546971597129957
Ni 0.39651029404308225 6.949737476562867 4.349433617538318 0.15698538838052964 1.362144486707338 -1.5918905518903617
Ni 4.818175139058882 4.8317778675332255 8.704195586461353 0.4861398148605628 1.4774720903377652 -0.7708907755245562
Ni 9.072807349754408 8.9315773910089 12.037919383050244 -0.14058046465994498 1.2059911073098004 -0.1734209082287336
Ni 7.2504668194572615 2.2988703531479944 11.56041556048391 -0.25412783646149784 -1.8030565400783525 -0.8700641379926242
Ni 0.27525379815385675 0.5189893721178753 6.490662024325022 -0.7028377886103766 0.862641877386624 -0.735819642853036
Ni 6.2734822661332315 3.5018339296456547 6.915012630918819 -1.0169774868491324 0.3503943096954159 -0.7231165934640708
Ni 2.9711981453700247 6.432297817464794 0.06358074233833053 1.0423331920051018 1.220630711599846 0.6075910148902246
Ni 7.9479485701760035 4.07184554682154 2.5428702192549246 -1.1810825169935788 0.7909512937198571 0.40467235431269016
Ni 3.453993355385007 0.21613275470256288 2.224718849191593 0.33780130352175375 -0.9598848556011984 0.6520096502149157
Ni 7.50755099483513 5.241310556254327 7.979060191069055 -0.0291046306754402 0.8300857978274737 0.15716716537403255
Ni 1.5040995226888405 7.911770117745941 2.136954451678428 0.4063767385983066 -0.10486938441158067 0.4127348196058505
Ni 3.0186505983019214 1.2389849321994193 9.382209356149597 -0.6194615410755654 -0.27321133545551013 1.0104957357795308
Ni 0.9191877428824998 6.80706592431057 11.59367386196432 0.6867056589352044 -0.606342230084788 0.027080401156559814
Ni 3.813107235304467 0.5436193668207737 13.316205296179376 0.057988917809958185 0.40742214914368546 0.609623471939221
Ni 6.806298922637085 0.2309414315912414 1.792483835033726 1.0065542346332794 -2.247702606570503 -0.24064060060834042
Ni 3.921356122090102 6.7573032253742 7.5580363387217 -1.2237764563176796 0.49870993821608955 2.79581037849343
Ni 4.7182801018254255 3.834416944449736 10.721344376741364 -0.36583481262020223 -1.363248261294478 1.25685318426699
Ni 3.9373707473931154 0.7565214735106802 4.696744912670121 -0.743479730501455 -0.07164841757492177 0.25894017024847665
Ni 5.646592392327196 2.0934894833502535 13.283839673755095 -0.35145771796292374 0.8604615819058535 -1.785165775840861
Ni 5.346020146161107 8.51804335620805 3.8087399462576093 0.5127468759251298 0.2884736609312193 -1.2809709032508003
Ni 3.0729321384230435 2.48424449254699 1.372555963390893 0.06354352907960024 0.17640081679266392 -1.1281818123398053
Ni -0.08683845091457143 3.561613855257425 11.975068678449329 1.8961674984024244 -1.729264079577235 -1.7486345136840464
P 7.354280033914305 7.015256053249751 0.31986649669705375 -0.3860963910827157 1.4655018053497664 -0.5574524463626206
Ni 0.7222207890330534 4.985289094038515 7.483134466863045 0.038534408629772345 -0.5730826967007098 1.8729332104648324
P 6.748320988908805 3.717666352367636 0.8125514078079877 -0.3966474271256846 -0.8123647263986267 -0.9390782032684923
Ni 0.3096542852588767 6.944377705832489 0.3903391649159312 0.42543478367102217 -0.3062196720607307 0.044834382705871166
P 9.002354087601967 3.447570871492569 9.67601535381778 0.2280869323130459 -0.1888624395947844 0.22272335400828738
P 0.8682366534014279 5.298595416181264 2.3084532535745526 -1.1951767903031159 1.6370314100930579 0.16542477739713446
P 7.2707045744564525 0.33345536369537 10.486075392334543 -0.2903541657833838 -0.7977942847836196 -0.360089939716625
Ni 1.908642080040278 8.749899645217063 10.363226674899034 1.1118825609591496 -0.9749900866737533 2.256088259531037
