# total energy = -340884.5220936062 ev
CRYSTAL
PRIMVEC
9.14045719707050 0.00000000000000 0.00000000000000

0.00000000000000 9.14045719707050 0.00000000000000

0.00000000000000 0.00000000000000 13.37798303948815

PRIMCOORD
 96 1
Ni 6.038789350656329 2.405247350551956 11.318763531043103 0.24047990666076002 0.31543116335666965 1.4584785799543978
Ni 4.736941441355822 0.5298467153559675 5.899128647662051 0.7425402494063211 -0.005322954874810187 0.20832697607729928
Ni 3.1216489709416706 1.930949022190035 4.747364304794464 -1.185393742774423 0.24881799421281023 0.71321784629312
Ni 4.058436156857195 4.2791324979305925 4.820381933745829 -2.1207831843374185 1.5945153911077186 0.152149400444467
Ni 3.7211441426948664 3.320188843563549 2.6571080807282628 0.6215112245157426 -1.5108578648870625 -0.2534485510062861
Ni 5.375265275642867 5.071994043484066 2.6543120148457056 -0.30864936454814584 -0.446916607693882 -0.04244942741346237
Ni 5.569984437120878 2.9896424868753213 0.7631632857985939 -0.9452107985287915 0.8947696111591041 -0.611222955215857
Ni 5.49158673501334 8.667968764159504 12.461069328715299 1.279824962571815 -0.2467919649217169 0.7385856356339474
Ni 2.3746176782000425 6.4584551658438585 11.779260682954964 0.5468728710745614 -1.361796873559932 -2.96059855074783
Ni 0.6247593956805871 0.21959674406237512 0.1168104738350582 -0.20023545731841647 -1.2664799087234768 0.3347730582183912
Ni 7.899859576925631 0.3012338242306477 7.172498548254823 0.14224371129498084 0.5308746958740922 0.049444884894689047
Ni 8.829032761925268 2.6557050205354793 1.4142801040974975 0.8095234002950897 0.16381783792133078 0.7072857970794012
Ni 0.9853412949974002 0.18406687256159224 4.823311450304704 -1.2508175195958717 -0.27103798195327516 0.20282532953277974
Ni 1.9863401933188314 6.67630882470256 0.5511055909023956 -0.5237236866516076 0.6463161993745643 1.2365175580334316
Ni 7.96463799768302 4.303875715792911 3.7488854305456742 0.472491885059825 0.07577041016309531 -0.25776414766250444
Ni 7.629777345157698 3.717689049842278 12.794810275223579 -0.5276698157835493 0.6797037736960746 0.1591101480330163
Ni 8.407566276653188 7.666394017029308 8.794900466342899 -2.2198431611560734 -1.6835151554768941 1.0116352487006126
Ni 7.2098373162517095 1.0688119508964378 0.22151532604586263 -0.09964207457437033 -0.10702679707421568 -0.108035183734072
Ni 1.7439809684871423 7.0962122917794215 9.197778003640614 1.6890805653798135 -0.3766270181396998 -0.23459233753173148
Ni 0.13687194947754702 5.34706696492796 1.7757797053254212 -0.2031027515638825 -1.6124897161979521 -0.5728117024275102
Ni 6.306293973470744 2.434003229161064 6.939895847525919 1.183326318722433 0.5405615841445529 -0.29190196988647793
Ni 3.8092672913504315 4.832294691721433 0.5610220730076153 -0.3997795449967631 0.0914561963294683 -0.15329739800598116
Ni 6.328532706037801 5.814016365635169 4.796515285736852 -1.1107199081096162 0.6377734520108759 -0.34689478118258965
Ni 5.449741721576437 3.565600981127419 9.298407125949383 0.20744174525886855 0.4119195227934067 -0.5484211893982877
P 0.29724035844415075 6.102544040198138 12.548120301731688 -0.03706887982783939 0.6061159730065948 -0.3476239460391303
P 4.106131062954565 6.845407284419183 12.915974348862044 0.990905729462745 -0.8511734717357081 0.02197599005045893
P 2.653950052737339 8.820449872537488 1.4357382416126727 -0.8074639466628996 -0.11953598528481993 0.07298307722594527
P 6.912013796632968 8.196531398926842 5.5226853128238185 -1.9634674092006634 -0.8716111707647698 1.745080220673885
P 4.594651942847246 1.6167732244938324 12.77497091269304 -0.20231368000368383 -1.1887462041864236 -0.4495787279070773
P 4.213705104706182 6.584109032099232 8.387165690045537 -0.05086464806035111 -0.671852910193088 0.28842943795684517
P 4.928077543579298 1.448058663983053 3.767668156214414 0.02677983919700549 0.605174435028932 0.5147453944123973
P 0.5997163708194194 5.74836046097871 3.821046598649718 -0.5270879751381503 -0.5057074525798452 -0.3011340300077072
Ni 1.3252109181132474 7.557979053207748 2.6560916618785066 0.034205699347431416 0.46769754899497523 0.6487559191643085
Ni 1.9405739237079593 6.813232874786615 5.067740988710762 1.7430493062867853 0.5478758584177791 0.1715591724296465
Ni 6.456819023990385 6.055351859251277 9.234192671406293 -0.7908317374228574 0.4463093131271862 0.3871474580550494
Ni 8.804792269213458 2.7642845125881146 10.705383090632852 -0.6203717115946606 0.8597308743874161 -1.7697530408302165
Ni 2.682541403115371 5.462364693082851 7.141702519580377 -1.2156522845486484 0.17601335154625813 -0.11482469585207966
Ni 0.4008145360891744 0.3291725459587465 9.160707965087818 1.1487429243206086 2.109210391898155 0.4417456050159037
Ni 1.6352735100325593 1.4585336280282015 11.315780085786265 -0.2867764757344545 -0.30825727131604974 1.3202766428289585
Ni 4.155361565875307 7.139044474602778 1.8004625961696787 0.9905848557882165 0.8546416327899669 -0.1293182614825644
Ni 5.7505450302691035 8.165152209077807 7.8899330403174 1.920931335610666 0.7820159389034403 1.5370453219157079
Ni 7.0693576282849655 1.0693603783333565 4.9445961779792915 -0.14050101757226124 -0.18068890264505655 -0.5351355280329751
Ni 0.6818049895774219 7.9029216301150935 6.957822112347337 0.7677306326290197 0.18593189621155076 -0.7845379339943457
Ni 4.993166739884273 4.759664618158824 6.901447428015 2.0278390906085138 0.9901773359371528 1.198607927471852
Ni 0.5518871000000048 7.873708728641887 11.265840283380442 1.2812352126557807 -0.39848782276853306 -0.2713280023898682
Ni 4.633663414526734 0.5900274861005211 10.385261425474722 -0.5360989203875091 -0.4696569867141911 -0.09066686765895353
Ni 8.580110688765116 7.509525489155974 4.535256337383214 0.8084749044259173 -0.5731783417383097 0.20740652114555894
Ni 7.0788911252300695 6.437742889642893 6.9107048831501885 1.162903532091707 -0.17524870546609173 0.06678954682072369
Ni 2.518077155240712 5.54944582960827 2.6709677561049285 0.09795774489341193 -1.508539501166531 0.6513334500834976
Ni 3.2054578237601414 4.150745634947907 9.251209460728155 3.287525373448925 1.7180478991464412 0.2558574175580948
Ni 1.210223965505944 3.40496658485391 3.761714976386661 -0.6790283448956048 0.10200517548990819 0.13493226523523214
Ni 1.8177627396672815 1.1422006824134519 2.889524316128614 -0.7011285192287539 0.7732343360560683 -1.9198368169949065
Ni 1.2744356779118506 3.7525781752875944 8.454149703145069 -2.7130951615813856 0.053726542989178436 -1.141863423591956
Ni 5.982292184196414 3.1934655438061843 4.617972905556488 0.33153192557327416 0.016302079594133215 -0.44959132631256765
Ni 4.495733914141663 7.174180392394707 6.243679098952 -0.8122590540586978 -0.4033616059210666 -1.8239716929644654
Ni 8.343793306196815 7.147773611307068 0.6508919630497668 -0.15000767151111585 1.5068975946877339 -0.2958632685270711
P 0.4358965251831402 5.9487467059715495 7.956582512680411 -0.5763546825837622 -0.2976031340363133 1.231733506381227
P 8.938590282907073 2.214549990278016 8.047592217745626 -1.0544687989263712 -1.2473992379429422 0.25699564492759613
P 1.8707225491590715 3.6908618077196675 10.712072077271806 -2.417757169430165 -0.23106041311907302 -1.49214229075543
P 4.103306661654433 6.387488655506569 3.981649003322741 0.4368016307470671 0.2871485143618926 0.8356193260511932
P 7.042758897594404 4.433725051940713 10.686319752925556 0.34280004228792577 -0.04220851504724989 -0.13874186878930944
P 6.595242109068683 8.357220637944044 10.19798351026997 -0.3805986011929381 -0.23530350466614314 0.01070324535011705
P 2.6744429579635374 8.877678275579962 5.9002520098620055 1.0528495181553932 -0.7052664526565273 1.3019909571458932
P 7.124273495635098 4.254636072414887 1.6761944232382535 0.8197062543653625 0.20443535433237695 -0.321330302449924
Ni 2.460309465218601 1.6992110087200065 0.45430997637768816 0.5284282912161286 1.6733680397405633 0.22675458665486756
Ni 1.7478291010028557 1.3238946922646422 7.118264559017925 -1.241874965690603 0.6070053175900836 -0.7779826493743311
Ni 6.764249164212486 1.4141201460950628 9.340401128839984 2.1082117754303114 -1.0028019666796988 -0.4498258109208769
Ni 2.6303219706634215 1.7380488117111377 9.271624672067457 0.5626396469905148 1.027692045053159 -0.28286094273013224
Ni 6.691280893730443 1.859699157677004 2.520010361955851 1.457019478910368 0.09409517661421214 0.7421131891712316
Ni 4.792369174313746 6.9533012421756695 10.762854629839028 -0.4888194185752549 1.6038394967221217 -0.9595313289165216
Ni 7.492213463063904 6.749807241706959 11.658711762091576 -0.7141740395588023 -0.45102651609719746 -0.46170482174665
Ni 7.739791889003604 4.243155658068721 8.464209690429614 1.1492278343768272 -1.0092438656503004 -0.8229563858715441
Ni 3.1007630260523475 8.903107027738429 12.585885929083643 -0.45878687676890667 -0.5263243574992484 -0.6317442150976604
Ni 0.13703556366289446 5.39910358823427 10.172417651252273 -0.13059815663625252 -0.3671594449688967 0.7857445527079371
Ni 8.577971821761134 2.586831674915763 5.731329046925198 2.026961315989251 0.2889485436851088 0.601493386632919
Ni 3.3556720987321937 3.2819360298384646 11.991154763665813 1.6795967942590944 -0.10433305229213644 1.0556571628075175
Ni 0.9348768303435907 4.072503320614162 12.673311660848592 1.2367307024855023 -0.3369235289024907 0.81873746269419
Ni 3.6192646058299216 9.085258060453718 8.108529818353128 -1.2512862317021742 -1.200077827149159 -0.18837778664888202
Ni 5.864051228796726 8.659422436600853 3.5497002416396874 0.42698772998043877 -1.0846298958907838 -0.44970419774134807
Ni 3.4538314694833727 8.658151913038658 3.7294610447757397 -0.25507863041054135 -0.45254449540362063 0.44569507658195506
Ni 3.6546198945966184 2.8928633251737215 6.958798313185052 -0.23996620024913515 -0.17195100855142645 0.6151176622845729
Ni 5.118866308426058 4.902438560903344 11.630082935838688 0.4260726743653372 -0.7026084462083899 0.40734193072505326
Ni 8.684220497206864 8.87231282715544 2.487060841545771 -1.720174972791773 1.505246432237556 -0.3913316713397261
Ni 4.6196419530561785 0.8408251810949335 1.6874317014207194 -0.2877267554628658 -0.8442250654423331 -0.9985300787772221
Ni 6.1492700578236175 5.930676021925075 0.3823882882544317 -0.17100972768407968 0.3240451302779258 0.09171742041065495
Ni 8.167263654709943 0.22871252210969337 11.353359247809669 -1.7290439931466286 1.8065064463001663 0.190751171977065
Ni 0.10376155701930415 5.29087143355835 6.014072640120129 0.4532055260263872 -0.7586880628107773 -1.079093796563903
Ni 7.177461816558937 6.787200852447537 2.709228796241567 -0.03409128525675419 -0.5331375237663399 -1.002502947382041
P 8.827963328423275 1.542616694565132 3.730959165724256 -0.023877063727913716 1.039894500656622 -1.266216627759761
P 1.8729253993640285 3.4994514917777333 1.6959268424185912 -0.12925655500669353 0.40803998523334245 -1.3762559864080555
P 4.984135968089678 1.622358043893122 8.281466356082454 -2.3214811831145505 -0.697565998688476 0.527777545006007
P 9.08249764235456 2.0306348493073045 12.636923500409031 -0.8572351045487558 -1.1193459592157302 1.0966749999807759
P 6.419425413249805 8.399714623847967 1.2700336336848492 0.6459757853160101 -0.45193385840281525 0.4962203390250163
P 1.811848863805841 3.711446117518686 5.830178522201167 1.498262544720555 -0.7699016721384097 0.9487915739015143
P 7.327429299184377 4.275275224957597 6.080426875712932 -2.350660118671352 0.9691061170891504 0.3343182300691597
P 2.411124664584269 8.791639151184688 10.249768771001026 0.7566957149710969 0.9859645834073859 0.238328407535396
