# total energy = -381168.39113953506 ev
CRYSTAL
PRIMVEC
9.25167139203355 0.00000000000000 0.00000000000000

0.00000000000000 9.25167139203355 0.00000000000000

0.00000000000000 0.00000000000000 13.54075625552165

PRIMCOORD
 96 1
Ni 5.785033045196619 8.775894833509792 12.86068533606982 0.6413804526358439 -0.4720769090095935 1.0081843140375346
Ni 4.495932923944347 7.24249508041682 10.674448800384502 0.19340686443235722 -0.2135162335877226 -0.4307155724539872
Ni 1.4588312825697567 1.325718236181664 9.822437412623538 -0.43994274747921003 0.7749523471884396 -0.9029161515256385
Ni 5.546127137712625 6.599957258294255 8.37517441982329 1.082341099856607 -0.6098268461992787 -0.4463712767133732
Ni 5.127849827436557 8.293244394461945 3.734147535182219 -0.12194125229220291 -0.44093750729231157 0.2647025266535506
Ni 3.4181132197316115 2.9064495395471885 1.1562923800164464 0.0680792121664247 0.08813073150066113 -1.7888794772470225
Ni 3.5649835013142486 7.904507670585458 12.856704341917693 -0.19437899853763943 -1.069128972041707 0.2271155695387121
Ni 2.203692589057924 2.022378335296884 4.57934784254626 0.18255295243698885 -0.6051019299197836 1.220966240562394
Ni 7.036747162803197 3.9151592592923774 11.471458077214004 -0.10898443502121877 0.03505879137634607 0.45396297301770205
Ni 8.100911400205476 1.096489576857381 8.096762950803168 0.6405073060022711 -0.22220604805223665 0.8861908683511577
Ni 6.281764527933839 8.530077927579041 10.322281157579617 1.9464515913689575 0.7100188797398481 -0.18991144968458903
Ni 8.59759662458629 3.9536092051353657 1.8397688475565324 0.028980960613382345 -0.16872890206970295 0.6012571022523967
Ni 0.2941957453922884 6.008941993534445 1.2787243719108603 -1.6019625914143831 0.6558562776545156 -2.3326688243002534
Ni 3.297924758122791 7.693736095466364 2.2612389095916035 0.20758135616052636 0.48712146204754164 -1.2183154332031083
Ni 8.68150928310311 5.797661576494907 3.5310233915438305 0.06237933356816999 -1.4443082019912867 0.3299123876919802
Ni 1.4286523308518002 2.698259180715436 2.3353605243919566 -0.9466099928691634 -1.6330731967762582 -0.20357609165587523
Ni 0.9128142965854819 6.7148352605879 12.161454197505666 0.7099808274130612 0.6971877894134509 3.2220262633048504
Ni 2.3547446260594804 3.965118284208676 10.59918923001661 -0.07969777024195952 -1.271442652045391 -1.0572000818146052
Ni 6.285048871238521 4.28560542904673 4.659712485126894 -3.849209084284074 0.7812386944177835 0.6011858826948291
Ni 1.613528478055947 1.968219051619104 12.064894504347999 0.26759270371715205 -1.4730716472772245 -0.7598985381791107
Ni 8.027471633578518 8.344702190125732 6.524085227287575 0.27499490971849416 -0.4617680708844177 0.8940018797551442
Ni 3.7207446389977306 7.801212760735371 8.137669215371208 -1.8800250843146076 -0.8235266565527172 -0.5676820945104288
Ni 1.9938184260530667 4.803439973975444 2.0500029005742126 1.0328658759446145 1.3434227419281186 -0.10699748649817702
Ni 8.719681678807675 0.025203402903144483 10.523171947770821 -0.1048390453942775 0.1785047505095442 -2.3774661831206023
P 7.699592403387108 7.441008191088859 8.505423148782848 0.2291724520677408 0.5458320885148729 1.1324727264056753
Ni 0.10127156934097734 4.593427035901375 9.166495769149359 0.3200599203779327 0.20865684861289224 -0.05886437843637605
P 4.336572886132635 -0.08916575747005576 9.592555585306831 -0.03444969703743744 1.1948224922874906 0.3480029266451039
Ni 0.76465063135779 7.591079550934651 2.835285684055306 0.3887124885493241 1.2514248141625675 0.951886153666438
P 5.169306566445803 3.1369549295082213 8.450162916222654 -1.5480216184215532 -1.2607826012283836 0.09294435083922056
P 2.298124397821009 6.039861078954865 0.23219381996977775 1.404993206441748 0.8882629203888379 0.096538238838066
P 3.6475084091389487 2.8717650239154846 12.294343353448765 0.2029410291750376 -0.9109948147687149 -1.1713575763963309
Ni 1.5601555864370347 8.203299646270045 0.5560402466498893 0.5993336599774388 0.0028546958399757287 1.1590792732496102
Ni 7.29899503692864 1.1381220976209632 12.031774446329877 -0.12000264050859331 -0.44897940376018153 0.8315688101309033
Ni 4.797713189452631 1.481497877207707 4.23816193355168 1.381923211996162 0.6238912947121449 0.6576061704660867
Ni 8.982900978417602 2.726754328260288 13.216360287457254 0.4309947942573029 1.5715225297569708 -1.4279819540274374
Ni 5.612221077342631 4.672806375490604 6.922453866134498 -0.46788163998132326 0.6642640421022367 -0.3897681835073481
Ni 1.0911976208847658 4.360636483133986 4.403060946959204 0.3853363729882396 -1.0360571291884029 -0.46764895514522686
Ni 3.433211947261871 0.8311007603321072 7.76380917891424 -1.5672323870220493 1.3310611350389723 1.8195139143034278
Ni 6.061361963011435 0.05273360113340916 7.934706975980232 -0.9984105224802223 -0.8386290594117943 -0.7435396372051131
Ni 3.723020550132806 2.0786007416702814 10.070287835901807 1.0474460877516347 1.065969857587435 -1.4149904268637759
Ni 7.048691070426704 3.912781579773213 8.803739588563603 0.6165276552582222 0.043462184948692896 0.8352539722919744
Ni 6.69311233642059 2.1373396026320552 6.071986582310301 0.18649779601734978 -0.5063247744488699 -0.2045052883383639
Ni 6.979590337630439 2.637364680345237 3.3708630841663307 2.6541773041992545 -0.6797307702792681 0.560724432245673
Ni 1.8099137043334037 7.811491367528335 6.545479717124416 0.7369105619243697 0.11909838352676907 -0.5044861785782344
Ni 5.028653407963862 4.574636891530078 10.353980158889009 -1.07413362434515 -0.20873603859025988 -1.188528945969295
Ni 4.150947353554744 0.784468636408383 11.654162857168547 -0.09855449793714639 -2.8439360303560637 2.092502335114854
Ni 1.5112327487041852 4.208270708810557 6.774629737242812 0.5045702536516085 1.0290503588532665 -0.478422134501331
Ni 4.559094083778341 5.9662455305735715 1.0380347422039278 0.23991863484065135 0.2148285246412429 0.7326042212395318
Ni 3.767595102363681 0.01981522954920889 5.79838228168768 0.01915343299999927 -0.4620634906376494 -1.5096324771203935
Ni 0.2193719287417226 6.937800538455083 10.209201680182959 -1.1852590169687716 -0.20205476991534232 -3.2375804089893663
Ni 0.2671142532191423 9.15582396632696 12.567013235272025 1.0009739123320243 1.104593226386588 -2.3150624240724
Ni 4.701329278049299 7.112647873990848 5.906735080226979 0.02113343954450554 -0.7610303377907086 0.3335420140247675
Ni 0.27451003924101064 6.304468129256912 5.54809496819405 0.07924859851968287 0.512029281032815 0.8413685698301446
Ni 9.20068532036754 1.0088484948144005 3.1148480609827596 -0.5010167319723952 -0.4003899248872524 -1.1713565479550665
Ni 7.549336010115699 1.7825472606848092 1.0855596524062487 -0.15082605364735313 -0.5643370892975959 0.01724001802737031
Ni 6.098313138106935 6.394736685943638 12.446040231938593 0.2933965521541334 0.11757166246959751 0.09348016873803254
P 6.017462782784058 4.443411186083267 2.528275448771987 -0.21704687244880036 0.10519308629958657 -1.5542825117296006
Ni 5.3750174773743025 2.131807103206139 1.9589275981518006 -0.8937619958301961 0.7924862423071448 -0.2576085959212467
P 3.3698194956458565 4.645162381703586 5.423370412156254 0.11767553503731347 -0.3309523989207203 -0.30891701638723573
Ni -0.078754851777776 2.099518770436161 5.179759104658846 -0.23820036659796395 0.765001920843947 0.6661615162352656
P 2.286550557048733 8.620429749307295 4.155888671185817 0.7145121396245114 0.3733118377235377 0.006035407560802508
P 1.1052786645741375 1.5985592739236187 7.423191322536302 0.40172818408270167 -0.23177389424632985 0.19365780410089872
P 8.023262123145756 3.9408511504391477 5.355937755691917 4.312078872873102 -0.042916082637235765 1.9183286078804962
Ni 7.961692250772058 7.551685934621021 11.82965133352407 -0.8036188618851966 -0.13229662738459796 0.9013912302406798
Ni 6.332722733348462 1.9225157954919716 9.924913549565277 -0.7210221728288874 -0.731081099726786 -0.17077267197260912
Ni 3.164191849758885 0.9351404297202988 2.7327281324062977 -0.8904892386161954 -0.21926573447699013 0.769272780305159
Ni 7.023258226075796 6.485171772713419 5.240597169834233 -0.6533147421795845 -0.012058730936746974 0.059505354454484606
Ni 4.724856278116364 5.763809711278474 3.7788867671618926 1.6173658133433308 0.18632218967143396 -0.9004563771312363
Ni 6.927207374838572 5.950508437724937 10.131681001354043 1.5482756434138885 0.9111683642321017 0.40087174961967736
Ni 4.016594583215024 0.6328707508012597 0.7346724409066266 0.2391817566746268 -1.665603565303796 -1.1218597267765196
Ni 0.406407416022807 9.08178284106675 5.124647824006273 0.8408422650130293 -0.1298219405918603 -0.5801421746506525
Ni 7.898299799156044 5.57431698010521 7.318399492272982 0.577435831463083 0.22431923774049756 -0.04401574345931775
Ni 1.6565580011829288 6.35966360011814 8.426276951309895 -0.06567471648999013 -0.40186882342562397 -0.23203897498225845
Ni 5.445774259329831 2.080756381078707 13.077865543885123 0.960293918114159 0.8247124493307022 0.32231554918132876
Ni 7.126442115870514 6.657761700456669 2.193264105190211 -1.3560964807410452 -1.3080595319374764 -1.302758174329221
Ni 8.53935735387368 2.3685296162678666 10.670304976817834 1.9978392018123141 0.9021718171604463 -1.3244035205131384
Ni 4.793790480829574 4.621626129965241 12.687891871558394 -1.4601770507027432 -1.4675838846897757 0.2769695169463617
Ni 8.361456966815254 8.168633633980903 0.6047993298010684 -1.498376187480284 -0.26054222462827387 1.79367329909124
Ni 0.7400541380906658 8.753117218816472 8.488361216606805 -0.28428687654338136 -0.3517369397662394 -0.6888000795703879
Ni 0.34459052402591234 4.630387462668155 11.443333921687511 -1.3209785539919896 -0.8182936902885519 0.6487626040325278
Ni 2.699498904667063 6.430337117032142 4.097716937673557 -2.354986513960848 -0.1481212531216804 1.7467192989392049
Ni 2.0632522190154408 3.9175461904828226 13.060546415247472 -1.3190124314045542 2.5762037157372535 1.4393868534302694
Ni 2.789619434613297 3.1850266134832372 8.410975612178586 -0.277811810341999 1.033997932666529 -1.3799671167110557
Ni 6.759872396382814 4.053138684774169 0.31922984271099425 -1.4679173567697945 -0.6717233265937593 1.8318189569230259
Ni 4.371081620010004 2.6193331730189655 6.477342083308481 -0.8429446560680127 0.2760254078655375 -0.8551316850525078
Ni 7.8579995190568965 8.100855890177792 3.770816534303654 0.7413716830195167 0.45109824987539726 1.5493601347273187
Ni 2.185337273236825 8.389147218958676 10.59073967863586 0.4022467755903331 0.12880995438757817 0.19071337676059413
Ni 8.800652305857202 3.1482604718133542 7.440943429389893 -0.2647547200477247 0.5399198367954959 -1.072093711096986
P 6.224876001228224 8.870419158985683 5.58228544457936 -1.1146691225653513 0.3662731857092014 -0.4695202040260107
Ni 3.5050326714146904 3.605089496316499 3.2994762633965804 0.9765422616522215 0.06210448264022852 1.849852417385969
P 3.5485617847908353 5.504605637004412 8.828546094768802 0.27278556077200117 0.0022049780711187834 0.6786280241333925
Ni 6.771992085760657 0.4152473879316076 2.689315590088291 -0.566452850089018 -0.3279796894456416 -0.13950214399410168
P 5.717662374929863 8.113891495012433 1.5090364019421243 -1.3008298469582564 0.28544515851754065 -0.7544603978826749
P 0.3390237934162573 0.9787898148230944 0.7873366545054299 0.3917638737811382 0.32676150076782434 1.953585117089945
P 8.13035946989225 5.252192289450455 12.980195650173759 1.4128337855320892 1.8166263083429877 -0.8093413661912706
Ni 2.9861989459876503 5.887393536247347 11.435249811322352 -0.6214873132563425 0.09359149750491624 1.1295522103247706
