# total energy = -340864.91092177265 ev
CRYSTAL
PRIMVEC
9.32697977500044 0.00000000000000 0.00000000000000

0.00000000000000 9.32697977500044 0.00000000000000

0.00000000000000 0.00000000000000 13.65097768627698

PRIMCOORD
 96 1
Ni 0.4969377395081034 3.085635316776521 12.835808840162178 0.19504491425641246 0.26056253634324805 -3.0507177734334303
Ni 1.62646667446155 0.1614406889906411 4.70003194700543 0.7259862017023819 -1.6831785980730818 -0.012464193905281758
Ni 1.344791892121879 3.878521848124051 7.904093788494642 0.7893811210192598 -0.26100348053540856 0.1737471812199008
Ni 4.218285059086618 9.04160195445112 4.674067501340622 0.635942569449724 1.3214439236641824 -1.3572611904731076
Ni 5.970759227237205 5.1219201455831955 7.53278673270185 1.4473549592374106 -0.20275359575457982 -0.021782900203046355
Ni 8.179294714330274 2.260971766110075 2.815172496551106 0.31733403680633737 0.6756026070435075 1.3196228112950434
Ni 5.4148992271346446 8.581725900873645 8.872398420382952 1.9852760204353228 -2.8989496675877815 1.4510401213984816
Ni 2.9181880529571793 4.009183504607377 11.773380994168544 0.45130933744493884 -0.030739338065385768 -1.4153840627577687
Ni 5.982772376894607 8.662488216776929 13.449830019328108 -0.17521116735993697 -0.2202134431022401 -0.1502616965034509
Ni 0.8480267017354076 3.8038687038244907 1.2961917997928285 0.20583094912832295 -0.02368320254955276 1.6960914494800081
Ni 2.1254227723437693 2.4856680303930223 5.092551352383489 1.0375283144172907 0.14113556583246661 -0.124088894762825
Ni 5.233881208073441 0.3354625406931359 10.886026150472425 0.3794480325282626 -0.2075942116763328 1.42141689921541
Ni 3.7696946507618234 2.6404306020275308 3.147369661704602 -1.0609297240603663 -1.7187909479600527 -0.005147862749526618
Ni 3.8526394798792634 4.755742928541624 3.9182948870091856 0.525287688704618 1.2112729245340301 1.1277907475489737
Ni 2.845064533303437 2.2441832029242668 9.83311275631537 -1.3223584650586515 -0.1710441804664409 2.5549975139732837
Ni 1.6157313210021802 4.275897811752583 3.5849243878285924 -1.214144075434238 0.35353645486882335 -0.4181295082588605
Ni 4.5045300614046475 0.17247077500371708 7.206159639734223 -0.4197888982391544 1.0540119138946107 -4.279133271185017
Ni 5.3725547399882165 3.783274732983233 2.0648878769855186 1.073199799676971 1.2393588841369687 -1.7727257503052956
Ni 6.602205069594095 6.453616958420145 9.52177538092024 0.8086217144164267 -0.08497444525986655 -0.6922484431303045
Ni 2.2259303039494744 7.421281759511486 1.9796644667645824 0.0055507546149001176 0.003487187217652059 0.6519047492059353
Ni 2.6423239788757082 0.4902251123276444 2.465338945770918 -0.5482944340124363 0.33899223850606136 0.3071223863806582
Ni 6.768896848070074 2.0748052543385573 9.804705574707025 -0.0378324974667413 -0.39547628963571896 -0.6112406958276698
Ni 5.486530430060759 4.83530206408326 11.11769713006112 -0.5204820397858585 0.8339478518860411 0.07225031282497879
Ni 5.309075317186767 7.2067425759559525 11.281508737252778 -0.5480481223295851 0.7805190426429397 0.9664223996094
P 1.0961346173809643 7.032076229966714 3.88076778479913 0.5235187697296533 0.9766132240994728 0.3038881957140766
P 3.226388765130427 7.128367966816872 12.381559753345812 0.9647216148682094 -2.0423282853636247 2.4372844408298153
P 6.104200323625738 2.220744503320969 0.08867719074743885 -0.39494612816386176 0.26492132753257597 -1.143614601955108
P 7.1754319056144205 8.605509698720205 10.440144297008274 -1.3588727579346018 -0.6082713287867009 0.23245369392217388
P 7.331043232387767 3.8325678198926747 5.864214341770293 -0.6048322211981648 0.4492000044114199 0.8314356269871487
P 2.2198397863048447 4.566619764253495 5.736209009062144 1.2059273439514004 1.4024537278493459 0.6834760962543133
P 4.443671519856093 1.0665214573171082 1.1375109640503434 -0.47147655642143316 0.9935205413777727 0.16395590616109182
P 6.947751007876219 4.235409393536142 9.686405896916185 0.5608373036744535 0.3347275496924364 -0.7417671186857225
Ni 6.523989019107324 0.7252631315330496 5.575004292654058 -0.03812997410250207 -0.14031024171769385 -0.7888653577251059
Ni 0.14752297010960608 8.905959690889338 2.6909623118209036 0.617303357081982 0.18753189370881895 0.5731875977096903
Ni 0.13381324287248417 4.232741877385509 5.887666099144957 -0.5323476808751929 -0.8466210764783354 -0.28118535479992224
Ni 8.120068394202562 3.2075109585259405 8.012809994800252 0.6445308253393673 0.7734659924509002 0.039970369745350516
Ni 1.0757644940488504 1.3072414724629546 6.760851395512254 -0.7649291586244826 0.04876174278473538 2.1647873578325108
Ni 7.795247004475364 0.7415415089376002 7.955079722191986 0.44931801804652294 -0.7359499977833132 -0.47441635577604746
Ni 3.0035112618592756 9.128016419960295 8.923780750711073 -0.17719965854487546 1.5034510309000302 -1.0893697245686143
Ni 1.2786449531697948 6.415171148724644 7.1119813964495675 0.9118540774452167 0.2567166802345966 -2.0423827927506437
Ni 0.22707650946351296 5.714994794080966 8.955777886747315 -1.522601635686552 -1.96379573907436 0.23629466493481885
Ni 1.5691896930593008 1.2564467418463372 0.3553961613824188 -1.3841395029211903 -0.012538241676326793 0.9544024923303885
Ni 6.878684724325713 7.9850976731682115 6.720922596068673 -1.4532409857045423 0.13455122774672956 1.4050816523904963
Ni 9.10792610601461 0.04288638465814702 9.979438142251054 -1.291601643491769 -0.3959087491874472 0.4535225430461738
Ni 5.864077235170942 5.806473809484525 5.088428827423419 -3.304326247056348 0.43757656123987865 1.9080452236766174
Ni 1.8215124707624502 6.184822734835808 11.094135314327795 -1.5358320183338967 -0.07030373062156924 1.3292065983287364
Ni 6.059785247019727 3.2985236249521166 4.1130254314013746 -0.2635391024730687 -0.9853390340082449 2.619277406998276
Ni 5.946173309149544 2.496477999688773 7.148675599386015 0.09028043085381227 -0.5005907001785701 0.2807107291563488
Ni 6.9740251092620085 7.552185917463052 4.015080021077415 0.22909120520784415 0.9829152550581006 -0.15261477011665975
Ni 3.0204304027587514 1.1950006005862792 12.248530909453287 1.0285901313873962 2.1573681825503037 -0.611846704842785
Ni 5.796792404714042 1.2163220758322557 2.9949696139895186 -1.6780919275787938 0.7161252497479021 -0.24696885681921338
Ni 1.3319393143051879 7.701081818962075 9.210669314617892 -0.48666509123641344 0.2560502502951913 -0.2671116503156755
Ni 3.103244654162524 5.024294650657722 1.6108561087926125 -0.01751435473467951 -0.4538537011333474 -0.0005332467956506946
Ni 3.5600801124074604 6.821463704800751 9.533787597879686 0.807658579172209 -0.1618342318323987 0.22673916003589983
Ni 3.198818213587511 8.83678148358426 0.14943406821892394 0.3004948537618115 -1.0613652689358881 -0.10765903134157588
Ni 8.829609036312101 1.1555661310587255 5.001554541822545 -0.4033425797576731 1.1580495464335152 -1.0744539837990463
P 2.7359575265547793 3.4690394650426413 0.08000496516401416 -0.5202843219527555 -0.5295701181300557 1.2158230057985577
P 8.74646834062416 7.491933629585096 7.898428581117385 -0.3358297816176797 -0.03604789476249276 0.14575326711013606
P 4.478004131571071 1.6992357688924806 5.384095944480506 -0.1162621996295546 1.2153010718568167 -0.08081748566869952
P 8.218822453653305 4.504380829731885 2.231784849011547 0.9431202345483499 -1.5189838364283064 -3.314831774573362
P 0.9801349727465775 1.0982798226769288 11.700320897975725 -0.5887859663685795 2.0602051656440454 0.3167236569158481
P 4.989122610783453 7.0917409181331665 6.916854455426603 -1.1263427022485377 -0.19309267562604812 0.20700697171429508
P 9.145905566732727 5.259287900361298 12.279859301055959 0.5829133096378865 -0.23724263067038495 -0.3127788133354871
P 7.502622348146726 9.545230869086724 3.312354602923358 0.9960769892510394 -0.966944076440825 1.1500937819215482
Ni 4.272801254542757 3.929176674047453 6.347690451697242 -0.13178549207613433 -1.2056090413800333 -2.7272938216792704
Ni 0.3277855038274477 3.482078582450286 10.096917978539656 -0.02203383987158786 -0.024171969260513206 0.9698771909272199
Ni 8.830345867696368 6.945997535721256 10.68549329210363 -2.0982767757047864 -0.5919849329218514 0.7095378263383716
Ni 1.1229963184782574 6.037848191123604 0.4076561604859754 0.36864117172074573 -0.27920174871099007 -1.717691544248287
Ni 7.453459838950951 1.0066795565392497 12.0169009685746 0.08386347158387492 -1.4228490036762462 0.4905199462061293
Ni 3.1956004056435647 2.3266523560847756 7.687234052427647 0.14955284336188437 -0.9474864819368457 -2.637234248587013
Ni 4.604067587137394 6.683200559986072 0.6931279561995031 -0.9959839153166008 -0.16534867274356038 -0.651369959748388
Ni 9.063968051406436 6.475665938070839 2.2427738963146138 0.6384105713742424 0.05847537052807349 0.24284892111356887
Ni 7.496326636952048 5.1132926895016 3.922991021211438 1.5573997172023437 0.3734385931093891 0.261414342820582
Ni 0.7408559759408463 8.386558853838622 11.767224254969125 1.8151764632703382 -0.7253010027098993 2.8790544713257518
Ni 8.077229577140107 2.78065241254722 0.6548892054499607 -0.5720447423544988 2.4567273800457756 -0.8789472994148668
Ni 4.668377111118588 8.586613238156623 2.092790469000332 0.8754182032156859 -2.0546387272998614 1.3154018312351603
Ni 4.540970570497399 3.828827701094059 8.998478664512463 0.9062711840408006 -0.3793924966999788 1.050143946298772
Ni 4.960395513776626 4.3248831083369526 13.364989015268625 -0.1874395911053288 -0.7113224290426201 0.10800407338582044
Ni 8.045713713248526 6.122276009989125 6.001666039364324 0.7121657508795218 -0.6648690226760872 0.9196298647358936
Ni 3.148014155991346 8.617606791193534 11.090641427789237 -0.708396770755393 0.9107485030858637 -0.42093303914592667
Ni 7.764794416252217 0.6511481539533897 1.0140571973614576 -0.6259242659817736 -2.1924362298980307 0.14557046167536866
Ni 6.846040295908863 6.830669433614301 1.553044691462282 -0.8140719388977207 -0.492492496551468 0.5966016057582564
Ni 3.5948044572634403 5.479628465195483 7.699014960294311 -1.7579694179317273 1.4361225808567009 -0.39483711338982325
Ni 8.898964456228585 8.35817685507506 5.90393888036178 2.057660544845321 0.26671364354630844 -0.835563018891961
Ni 7.204242945437176 3.2575595307787446 11.860556541208808 0.9893273292320316 1.8526250950350998 0.45557659736172507
Ni 3.342052638501098 7.163567987629782 5.314120280424103 -1.175334301655892 -1.5095322040971035 1.1874015172330712
Ni 8.278123389617397 7.074924374008715 13.326971313934363 -0.7240889846796691 -0.8559708931243516 -1.2774785738268257
Ni 4.918302855077986 2.5274435717870416 11.485003844325915 0.0076361763890191075 0.42084587874875906 0.35359610446216516
P 2.4797827062984417 4.750184048731213 9.729420061194133 0.3004819982460051 -1.0445183725818787 -1.9736556625875754
P 2.0930674802928975 8.720940397602185 6.913701003641536 0.5195371593740858 -0.973482391779975 -0.564285410124054
P 0.5545989924677164 1.593523782699175 9.0032699339061 0.922959700440075 2.573949372485438 -2.532134236221865
P 6.27981802152884 6.067778468492082 12.995211584121654 -0.14789345338159046 0.6489150704499921 -0.13172892780658602
P 5.18190195105427 6.106662646226323 2.907125322515687 0.16718752572451206 0.49977540336612636 -0.35952069747671633
P 0.07102961274529015 8.551954182157477 0.5802733690685908 1.427347148656916 0.6105745229985807 -0.1178431709634293
P 1.0047581987524294 2.010439768480078 3.1695520171628284 1.3443827918485427 -0.11804268856874509 0.5883907878126899
P 4.764724809846032 1.3830791431650693 9.038898995778204 -0.10328532775391243 1.0856557660521367 -0.032776937320704844
