# total energy = -381163.8882440875 ev
CRYSTAL
PRIMVEC
9.24535022269736 0.00000000000000 0.00000000000000
0.00000000000000 9.24535022269736 0.00000000000000
0.00000000000000 0.00000000000000 13.53150458524729
PRIMCOORD
 96 1
Ni 4.200828287901533 4.569958142344054 9.092642959743571 0.5840620785303491 -0.1053380965178831 -0.4271674500914127
Ni 2.2123938262882863 8.177604757625438 6.3369932767689905 1.147601611627314 0.34174409021958563 0.16935470857915993
Ni 4.433126958510228 4.123546405086199 6.624821370103544 1.8397716361111993 -0.9047755733318805 -0.6228723665293273
Ni 7.510820851593054 4.212477429227927 5.863390039864267 -0.7263297010847297 -1.7352560354946116 1.0858105464624461
Ni 3.8320497567688574 4.240019327649613 11.284652637780724 0.17059783695764166 0.4770738480035526 0.9437712378687876
Ni 2.3372430361863925 1.4197807032303373 6.442957934227977 -0.8492929668835437 -1.1464996368123868 -0.8795538226506143
Ni 0.27066225150859063 8.615686434299894 4.810503665383814 0.2656461215137425 -1.2892683673729022 3.544145637314973
Ni 9.27095987925977 3.6690357410014247 3.8726488633613894 0.7403658674628216 -1.8224205464272614 0.1539532864224252
Ni 8.64014038573506 1.9826283816505688 2.2614394848774793 0.04682415944239033 0.3967196751245168 0.39521609399579677
Ni 3.053184469546104 5.57669357740142 5.545508086442645 -1.1761825085888 1.0778774076582986 -0.7011107786169409
Ni 0.472945892501305 5.229586147275938 5.517105445911842 1.3685943560977398 1.14849712685839 0.5771717791684188
Ni 7.1053382799319795 2.4944509719911463 8.803177514878142 -0.7536317313337924 -0.48931564148538303 0.4607802530498516
Ni 2.3530156037283185 5.435535569646364 12.62793823750277 0.06657331704485954 0.8206421359160705 -0.2745688779246691
Ni 7.440611661725887 0.019989371795075195 1.5584230511799084 1.48269245819644 0.3239780244854162 -0.2434207344566388
Ni 3.076177655640342 6.658233141404698 10.480542921675653 0.7714507617930842 0.9022247818855688 0.15299349361231715
Ni 0.06376887887671784 0.8263725195288416 11.951484619634453 1.9071599928581864 -0.052768292840967186 -1.0603957059337672
Ni 7.14327195204483 5.72052349138134 12.86778388752792 0.8803598634916774 -0.21596263824568615 -0.9725611655172862
Ni 9.044642950268678 8.281124944475934 10.595046584633891 -1.557908281407646 -1.7135559248133587 -1.2295187581180955
Ni 7.329954064475411 0.9601850965030893 12.879881428341879 -1.8283209710720965 -0.8598110928060482 1.5078468459748806
Ni 5.098847649262823 0.7431967259233683 12.03114533107144 -0.4368018878573832 -0.18179936210041592 0.6222234200914187
Ni 5.744006681039307 3.0959257237936564 12.182562904008956 0.8667762112699717 0.3356251218060413 -0.5022544610342382
Ni 2.5749964634479223 3.4375414158652666 7.641660123923994 0.9509736691544977 2.6350524104443456 -0.4386723654072187
Ni 4.880490966844763 8.124749090194493 5.009904606165759 -0.1489092962406145 -0.04711880786467369 -0.40913656073163085
Ni 2.8480856193995114 8.252455113322643 2.9018038780096242 0.6483820807646575 0.7163162827127857 2.2399278477210904
P 5.684078320660196 3.88588543132726 0.6982393612187237 1.3168177377460806 -0.5904379001497057 0.8852447023878045
Ni 8.185555758848214 2.7488090483179164 11.39838431399233 -0.8829492214854083 1.3640833556012637 -2.4217606341626037
P 8.482442446366578 1.0299135281567857 7.391111131903949 -0.7470214251061263 1.138798154403071 -0.45951167075007315
Ni 6.979980575769626 9.224141425547982 5.893443899951336 0.24940497706453177 -0.16186971305602443 0.6152364472506243
P 6.952734528556229 0.9824386545766038 10.831752513711074 -1.1187723461004475 -0.32098706017789236 -1.3134177109255962
P 2.1014681138802978 1.5448333108341423 4.0994779847568354 -0.781687609029744 -1.0168376188371584 -0.21609453583786012
P 4.10809742480334 6.920015233989478 6.802355208452803 1.7845425404345652 1.2099305515735228 -0.18589821476013793
Ni 3.4559304175305017 -0.039001510067769626 0.5324619102588635 -0.88717560086193 0.7980598797401803 1.0093143138769196
Ni 0.4410216980568322 3.0127915342643488 6.473228135511108 -1.8421337085854728 -0.6525356979217148 1.411753150873401
Ni 8.8812776111914 3.985032567505229 9.30503361763947 1.1592494802788873 -0.04404865357978221 -1.0634848863820523
Ni 8.805826307727356 1.1218770271834786 9.662820351849172 1.6525161359922187 1.0969148839057237 -0.7135682876540033
Ni 0.9390317351104007 4.0006941908440465 1.7841288625188805 1.9975568946852051 0.019674595610791924 0.2773055601295418
Ni 1.8935309412041788 -0.11598476806973651 10.567415006314693 1.091214748197153 1.5823386465358686 0.5720519414433503
Ni 4.346359346329117 8.818612627135613 10.111145876610648 -0.3287988429128273 -0.10838999597032947 0.21818047183261133
Ni 8.270418828875963 6.474962563219703 9.091276496975285 -0.05234971724630984 0.0029238585150143195 0.05632130029954816
Ni 4.0672884487599275 1.1135007398487864 3.3304552974198582 0.061834773918609635 -1.4935067752031246 0.3368949896574004
Ni 1.2856029349208575 2.776600571196597 10.807951284004194 0.2964685062112378 -0.9333832097662442 0.2885855039187353
Ni 6.086241811578273 2.2783501550362937 6.695212693370815 0.7193116178956838 0.09038044676678629 -0.29095323281996344
Ni 1.494575586825989 2.002801735915799 8.571910625358356 -4.301014387528825 0.17765757201790047 1.6940849605729407
Ni 6.896800159489024 3.47688962656775 3.0984848367453592 -0.5289093446176052 1.61995594266801 -0.45670171210510374
Ni 4.220363712998889 2.402200867106423 0.3301412878651129 -2.8061644680342446 2.0316373813086814 -3.454957925304708
Ni 4.153963607438449 6.703858944933072 1.6308982763955664 -1.1060739246971725 1.2732511660090393 -0.46341177713542775
Ni 1.6875537827829772 3.2104756135031893 13.122420248897487 1.1592991025699002 -1.8483082128273007 0.9017763814942404
Ni 6.799012089799134 6.9563956872588095 7.162536488379596 -0.10174266585714091 0.8669857561776165 0.6219408558539934
Ni 6.343817269795189 7.976167066181426 11.087606487709754 0.25666731505389995 -0.5490891619995898 0.2819993660607853
Ni 0.20434073142535125 9.018848423045949 2.8193834295203146 1.0221603166016524 1.4944891937210518 -2.291063232944325
Ni 6.532810719790532 1.4325577772883336 3.7502154634859712 -0.6078136724239919 -1.8987547995136267 0.7254807228208731
Ni 5.079783737028678 6.813296155949354 8.89713985863084 0.19308984741257068 -0.4553647384612351 0.28761259848250464
Ni 7.100576924548573 4.896753537950419 10.428852168377349 1.599421055939452 -1.6144229286649228 -0.11378185640986212
Ni 2.7672905034857416 0.43637221141155985 8.629595139229597 2.722679462835711 -2.061704633007707 -1.9306490771190619
Ni 0.7920103262210594 6.640371124704227 3.312174466352654 -1.9335048014003025 0.537714601614061 2.292018654879059
Ni 7.955457481601171 5.380821586813352 4.1181785547258 0.30947057489786056 0.40069151528807123 -1.0553103209910597
P 7.950853297172168 7.1640370087266385 5.376350535428079 0.02275194898453501 0.16983601909095267 -0.4174774764971585
Ni 2.4764965017880862 2.2233773023960284 1.739718822549571 -1.604022045046573 -1.5350010377921692 1.1805451564328702
P 0.09595286766346973 4.293300281192474 12.417821011235569 -0.9809311347485365 1.3762498157604686 -1.0026281601059959
Ni 1.59099534467754 7.6994814689790685 1.2609955106713906 -0.20098827632404093 -0.4498137267360188 -1.8465850594886069
P 5.536670456130026 5.866747951078351 11.025862340539767 -3.3557364832075236 1.2548109570259809 1.1307979098064138
P 2.204285654111106 0.9985902814791506 12.591741766703594 0.22860809492383857 0.21426776704176645 0.0015130942104167491
P 5.21037430943765 3.3879123756747282 4.543162343688271 0.689915938342386 0.11779869087873905 2.2399733562470456
Ni 1.8887695858207723 4.837037820627265 9.9999039732238 -0.07058938018278811 -1.4165217759066377 -1.9978461437908497
Ni 8.559927726887611 7.207961667807348 1.7061332386635484 -1.8678228858214605 0.0880847087540741 -0.3088992757754228
Ni 5.630344344954642 5.819550438005942 5.437323620386462 0.4708309524176343 -0.31377691558269827 0.017466532215879595
Ni 0.2638872588387645 6.097807744752335 0.12106231443200251 0.29034439559137093 -0.9104155452264772 -1.1634727743316156
Ni 5.759862456733565 8.010883356404129 0.37364805711411375 0.2827395866609195 -0.030634437056405305 -0.12863614781387522
Ni 6.311430807837765 5.808631679350012 1.4986814468760294 -0.676849334966415 -0.41947239544000015 -0.14568101911130396
Ni 6.5971583575934645 4.691442044747868 8.060230413411768 -0.27375820909791565 0.170128610630707 0.13699506130153177
Ni 3.7974906375005575 2.0627116055943926 10.419637327774161 -0.24762911611103158 -0.44907247769462016 -0.5861143330736873
Ni 7.081291123908211 9.083066625945255 8.858223405785452 -0.17791185412055166 -1.0231291082728249 -0.26006579921248757
Ni 8.09466472045157 2.892620471597318 0.06718873393753756 0.10837302668946497 0.7300387745052008 2.105839675653709
Ni 4.824380936122636 5.540257652030535 13.236544852495106 -0.8638847486547897 0.5209396961485674 -1.9837161321473706
Ni 1.5674474375677596 7.773925029264877 12.24825758934463 -0.640249424355194 0.39231588962986624 2.536870722465586
Ni 5.00774396781022 8.899685103557154 7.8495991456701635 -0.6375937318999019 0.5167433986790326 -1.9298854594801602
Ni 6.843278826839428 6.9010622659584415 3.2632443746416993 -2.127670398375555 3.37318398926001 1.1173173588214758
Ni 3.8750221447728856 7.777502979815127 12.461243647797213 0.865477032842574 -1.2579253342852463 -1.3315295900349584
Ni 4.4203406391019735 5.394939236658909 3.500708422440121 -0.3320186354017056 0.49458640296601913 0.17125835335977602
Ni 8.213051430518606 4.594633982185437 1.55393073548904 -1.2494828599448482 1.2517402885204572 0.28913109200956016
Ni 2.441345680103208 6.348615606579632 8.03372214514904 0.03429954461281835 -1.1376954082571955 0.384045422090958
Ni 3.1283861485531537 4.484281481493509 1.1128064140443323 0.8283808993212249 0.3871058061838365 -0.39969624125433745
Ni 0.16050945038225797 7.164730409996066 7.069777889230625 -0.16258807927928773 -0.2532251221415704 -0.10969071705962398
Ni 4.400805214004617 3.257220104412907 2.646139433691252 0.7500270447016696 -0.2962059965784705 -1.1745488296401192
Ni 5.37504324290145 1.0988745957389816 1.3084833277419352 2.613451287234802 -1.6372363270150128 1.4980748541897813
Ni 4.403883915640878 1.0909605759172414 5.727831940761114 0.5234894591536146 -0.13216550112337236 -0.66910131558988
Ni 2.1850738162728165 3.3901774864881933 5.169697541902941 1.1853112103629457 0.7668099205869632 -1.3527620170511736
Ni 8.617970035813878 1.5075930399907203 4.955291397650571 0.16443130313561358 0.526297618026371 -0.06502499872113318
P 4.670852649720981 2.4756829109652907 8.376461147277125 0.024364801997609653 0.21568033111857693 -0.01911486645257998
Ni 0.5366990542825825 6.1125448330652485 11.156698839265628 -1.9707027506068384 -0.5790330007468738 0.13876012362175458
P 0.7874514440083257 4.85697079578576 7.626288804583309 -0.3448556392653738 0.39301548680005216 0.985000933942536
Ni 8.05825653113146 7.987464884197975 12.836540150862515 1.1030922163610293 -0.3384633625857848 0.578875392123087
P 1.2555185651779341 8.011031282008274 8.776357678311687 -0.11310642760939231 0.24561542811511244 0.31359488147887926
P 5.81763665050232 8.777581762685983 2.7433774050407287 -1.7458854901839997 -0.6227453540331598 1.1601527088194472
P 2.3256586123118126 5.713681932189649 2.602730665154997 2.6696939117776153 -0.6246356290773372 -0.4602084397067816
Ni 0.39300042427634096 0.6285571563163224 0.5591014624952677 0.9626472488376839 -0.34578689283039155 1.2292737319868248
