# total energy = -381168.35683414346 ev
CRYSTAL
PRIMVEC
9.26314248396479 0.00000000000000 0.00000000000000

0.00000000000000 9.26314248396479 0.00000000000000

0.00000000000000 0.00000000000000 13.55754535806913

PRIMCOORD
 96 1
Ni 0.5478722539372453 4.354130753887 4.963688124729685 -0.3520449579249615 0.0607965624620824 -0.39919924701326087
Ni 3.246416413590416 5.905308766506229 12.939483332334433 -1.161036139865665 -0.11680238840374077 -0.5818550435767011
Ni 6.024710670175002 4.817713971187811 8.869413319900923 -0.7594537373322082 0.06762309846561257 1.0894969941750978
Ni 7.737641672853512 7.405039287040402 11.77041642193937 -1.5560257196729526 -0.8146545508740679 0.7655307967642235
Ni 3.76717174488996 4.016405850406797 9.11640481867779 -0.37612333903040385 0.11783288655078415 -1.7363443834627836
Ni 7.51602099439925 9.153383282560315 7.9891897113056825 0.8574760169149683 2.094404180123257 0.8579874093337482
Ni 5.732773478861963 0.46024385451783234 12.176844198897506 1.5903810572243706 -0.06142262608185551 -0.6911616378240291
Ni 4.132398917725679 6.57712742170262 3.0174889685253006 0.32319152402837886 0.5225389223148872 -0.36699463725625825
Ni 0.642854661993015 4.66147255077034 0.68661652494898 -0.09510202061217168 -1.5164461576081172 0.02705726122810824
Ni 5.228006331094793 1.4068119405728479 9.992439634345256 0.8981488120439822 0.9017545271173696 0.5169832826039805
Ni -0.059707436033965486 6.405842658262799 10.096900089556486 0.035253423885655416 -1.3857533843755296 -1.7421527626144446
Ni 0.9480455572447106 9.121777441185772 3.7678312806185263 -1.9754142971498945 0.6960487907130012 -0.6831405672917654
Ni 0.006850093697677129 8.630821638521018 0.2467432465644293 -0.9962209710280714 -0.48975761411880814 -0.34207859074086894
Ni 8.76704540852513 1.2227903565322071 1.6426589529025544 0.9103055020111742 -0.9484136217368052 1.1183218888265902
Ni 8.237406723802906 7.517141834612123 2.032492736824831 -0.22986279326654607 2.2414951922082107 1.9295643286953157
Ni 7.314380913789331 2.5712259746131534 9.365104440886505 1.0987794479182882 0.542161067421189 1.1593471821990162
Ni 8.715885073849982 2.3376651057920155 13.287695965475905 0.852932363408344 0.08212077786115533 -2.0035622203390204
Ni 6.645646884963901 5.683354614930783 2.559813783354819 -1.0860776840809039 -0.5015142404341041 0.5174707637633604
Ni 1.767639120837374 6.938306601372842 3.0463936776182443 -0.17267965918733486 -1.1538565913980903 -0.6222655861832638
Ni 3.884128179003377 6.8294276273059085 8.317770967065835 -0.09208791637619625 -0.9056376642218595 -0.7146491794230079
Ni 0.5774402040156569 1.6865217841091003 5.387863155934447 -0.5316149164742263 0.07374386665136978 -0.2561389533542557
Ni 3.839887411592821 1.2954597075237921 1.2991056803154157 0.3710551804788771 0.06204354749530605 0.16711142107093802
Ni 4.721469923156891 0.35600664103495067 6.788994937676441 -0.284522132482639 -0.3005832997105597 0.904996431093435
Ni 1.0221970109971183 3.4999856696826597 2.778429498461511 1.499483818722166 -0.9225069291733725 -0.4065520878339063
P 7.681405136222547 5.2561384941236575 4.642577593198302 0.24827780543862404 0.0138836999606277 0.25665420242777737
Ni 5.120174092102691 4.590980038208714 13.458575003284952 2.0838246048351983 1.5233768232896796 0.6157028453640816
P 1.823857131183828 7.268426465061575 6.785239659806207 0.043524919865828265 0.5621061430845481 -0.6935260242911476
Ni 8.947037525684784 5.9660471902731915 6.639902810451488 -0.996854233736696 0.7765484880309658 0.5335766681862875
P 5.236148633137063 6.552728305002577 1.0225536419739412 0.05438500250878376 0.12001652446566426 1.043325894935674
P 4.65588687599049 5.5057431253307 10.753844917233797 -0.5110944279233713 0.4070927908287247 -1.4011792320122967
P 4.683213145643157 1.2675869124780712 3.95609167855512 1.0900801203720774 0.12751334706334166 -0.25050078123187186
Ni 6.6410801558321175 8.488882509745485 0.26221639938741764 0.6594231690701676 -0.4148531515004339 1.4077255177712464
Ni 7.486110308057399 4.863038526242219 10.927571444972076 -1.1601647930043053 1.9526281524933147 -1.2525812963645138
Ni 2.188222831789818 8.443567217833333 1.4143095279141593 -0.21214249316864753 1.244384105265702 -0.458589673156436
Ni 9.202876251629537 8.854063366869928 6.455926615807898 0.7757679011111994 -0.45723907266581254 -0.701566892317753
Ni 4.594481505981157 2.57819185758902 5.79247443069635 -0.9503517192997826 -0.26798196873577074 -0.2058569172702519
Ni 6.360684839768984 1.312550204984528 1.960230964092472 0.164959921945574 0.2190847288144356 0.5870088198634986
Ni 0.14160195039744586 6.9951915579616655 4.6347956273897575 -0.8587769951145791 -0.012913108517242278 -0.05431661116469356
Ni 3.17430285113414 8.945546159781706 3.4736190615676246 2.2328213185832966 0.1523831137218279 -0.17631211373359956
Ni 6.11192315450716 2.511673233054849 7.545261955556056 -1.0076914335615161 -0.21981620766382143 -0.30110703342451367
Ni 6.603814534539683 0.9690636270216266 5.440262899043331 0.1269415337202717 -0.5167667957178003 -1.149221149508608
Ni 8.348268010312438 4.260656385390368 8.102910529829378 -1.07416550602435 1.061371182473159 0.05776626027619084
Ni 4.247187776551392 8.264695940886552 0.15010736761611676 -0.6480725199440387 0.7958438459254681 0.33416010722474065
Ni 1.6545454170443519 5.335292044693842 7.830254569120416 0.8304544940208021 -0.04425922692869152 0.4439050745610678
Ni 6.615949250893919 7.314519860923158 4.495478894186656 3.0376066899727685 1.623478353998972 -0.3604614641234308
Ni 0.20769261775942935 1.218214364258167 9.43404445080617 0.7341677090719098 -1.8062786465600764 0.4598083760548855
Ni 1.6351298708775754 1.2882992985605677 13.671970937730872 0.08765379186424259 -0.4856536192527636 -0.4975033195024981
Ni 4.285564974914443 8.195676267943492 11.222380210384207 2.363542631060975 1.1268479240197302 3.151029877491631
Ni 6.137026270018593 3.4667680415557216 4.313170065148991 0.8492636563075051 0.2268029233942997 0.1150607231222857
Ni 2.826444070026812 5.026931302162437 1.8759308116853313 -0.20407257167631954 -0.7273506861500763 -1.271144404078682
Ni 1.862095382413052 3.139399331116767 6.640119567980259 1.1372611489332543 0.6450833554087277 0.24993462431575664
Ni 6.77087530511116 2.870786732002174 11.727831904364033 1.0061127762204867 -0.904456499429565 -1.4022364696322174
Ni 7.407364335746442 6.226869486751211 0.3496234097069327 0.09331510391507801 -1.2328123412677026 -0.7302506334056907
Ni 2.6932586106823875 7.196248060609512 10.415936603536942 -3.2991009941016665 -2.27305445507173 -1.303684285687916
Ni 4.470105294921372 7.6426018333157595 5.331124556993254 -1.6605276934427853 1.3239368652893653 0.20278522032346363
Ni 7.606290315675604 3.4486771247314305 1.310447471692611 -0.6975166335077794 1.4598898584796276 0.9297301863946891
P 2.105317708606302 0.07303617142488857 10.910488358025143 0.3809433861268665 1.5029964598611145 -1.4242795654751859
Ni 0.822952378974378 3.203500275522346 8.852913810916066 1.973525050546982 1.5328626512929278 -0.23949748814283273
P 7.4252329371566095 6.4707031803333 8.797301610073099 0.7164751768881532 -0.25939756950086934 -0.7959811428342807
Ni 5.279240770907981 5.672535264776778 4.761287540140617 -0.8487077838040351 -2.4755902783885495 0.2897813239990493
P 3.5186138487577487 3.4100035058162153 0.34924917875982503 -0.47918189548549095 -1.2698735077860581 1.055086892126344
P 7.905471284232164 0.4928667889119896 12.572101552610167 0.0663156925080987 -0.20332669464923045 -1.0307807112808118
P 8.172138623473177 4.450272907353114 12.866205392896685 0.09272015064355645 -0.18350014684160657 0.2550763164176962
Ni 3.716326357051489 1.3315489097498234 12.143926696579634 -1.8668265833464623 -0.42990593206849836 0.7170058525806426
Ni 1.0459384445970459 8.051375037892898 8.56764978728363 0.06092100385508863 0.044631779776761846 0.5534075868692856
Ni 2.0195965901772226 3.254910715038381 12.437542369269305 -0.601129832645913 1.118765661232228 0.48824966211471393
Ni 0.03939707032534226 8.481833258489322 10.8092950130873 3.4827605493392726 1.252985730891784 0.5207941717096386
Ni -0.07500088389720408 3.3867808081825754 11.057316573282938 1.1339040595355632 -0.5722324328852725 -0.21979512461789888
Ni 5.985397894444182 8.000344387209323 9.384573713278362 0.6121441814785457 -0.5712726400751645 0.3760598327823201
Ni 3.457097321041354 4.238295159986457 3.9807659105801405 0.4271615365541418 0.45050998147209514 0.23248943225611576
Ni 2.370215787676583 9.275647497185927 5.637810523404929 0.3672728306183094 -1.1055597040649152 1.2236502151524604
Ni 2.4186805479554834 6.028730873913734 5.133713100822806 0.4214192347537259 0.05140920770991146 0.6149867931336634
Ni 5.594669290980059 2.4446266094121345 13.445681635580021 -0.8882390091294381 -1.8760812691755109 2.1130472491457417
Ni 4.176611895709469 4.764589850354575 6.620691979728551 -1.9595799012207995 0.05896182324618878 0.6912799085694481
Ni 5.2478665080898175 3.3706536775163736 2.224359276041351 -1.300071628635993 0.417658482159713 -0.704648102346238
Ni 7.620648186171074 0.46339980708415907 10.317576853814948 -3.3329004591496147 0.04160661979719286 1.3455778405979086
Ni 2.691063245967919 2.1567929901181233 4.358073147230789 -0.7873023841133603 -0.7901280264876134 -0.7555078653105827
Ni 1.8163261965303978 8.132844374026867 12.584994920315099 1.5186747898283202 -0.4669293033703829 -0.07530504049090257
Ni 4.415952965297815 3.4895831609301355 11.345875496615529 0.4088758508710764 0.0006124367730183 1.0137687501038475
Ni 7.894624144651393 2.988956637751014 5.962486438390315 -0.18701227375992308 0.953171448136765 -0.21368386951383844
Ni 0.7923617779909986 5.821884907356424 12.2139921782833 -0.9317122498217244 0.5147245684767908 0.2028461554683861
Ni 2.036242456809712 0.968109523369347 7.866196487384591 -0.4252671477449063 -0.12806459158112138 -0.4702416555730675
Ni 6.36364904529063 7.7940264197605575 6.78245979081544 -0.41683135827272727 -1.4742217017212678 0.17086111792135733
Ni 6.376450707887235 4.829413319856055 6.623999847827862 2.026759227280774 0.3873696013681845 -0.8401367543055726
Ni 2.5728655507923137 2.4408750367988024 10.363089450657135 -1.0630359717700917 -2.042691068019682 -1.4377341483181947
Ni 5.72339917889976 8.453719621744968 2.659421278338581 -0.31488403260394804 -0.1838377326866834 -0.3190713312124182
Ni 3.9243765321019666 8.921295253357744 9.295676263369996 -2.5545632546493424 1.887932254976826 -3.0875529399839086
Ni 2.0275814188011547 4.886946696402739 10.557504280308045 0.36410934528866323 -0.5762839772468269 -0.89362161359759
P 1.8218562924567172 1.3933155423071066 2.2187467381489605 -0.48389164225633435 0.04679793419014521 1.365361965203371
Ni 8.367618714483429 2.574847863234914 3.543929090226825 -0.9653952438964665 -0.40667755766817704 0.957270557906803
P 1.5760773390010483 6.558008296088008 0.6217309923943904 -0.135163921630064 0.24628108672356938 0.8400681058511661
Ni 8.973576428245764 5.473044233170051 2.578035310484908 0.245278613600984 -0.6866863756614948 1.460159052980614
P 7.9886357753988255 0.20880512114427183 3.5138850146364993 -0.8347204683860077 -0.051563988120220866 0.24874651754492647
P 3.9113988698025137 1.7446480017601131 8.343150124216473 0.756276110935175 1.1889804316844168 -0.689042020377865
P 8.922101146733942 1.863216222625924 7.410635151276732 0.15192211492500934 -0.7782086493422081 0.5375415663713066
Ni 5.405312137000457 6.6470548825866835 12.378363858658108 2.0613652473904174 0.48972470399834367 -0.7621469678936552
