# total energy = -340864.3683675954 ev
CRYSTAL
PRIMVEC
9.33673500828691 0.00000000000000 0.00000000000000

0.00000000000000 9.33673500828691 0.00000000000000

0.00000000000000 0.00000000000000 13.66525545626716

PRIMCOORD
 96 1
Ni 0.0008141632858530291 1.3471881462436663 6.168919885275866 0.9754973653274748 -1.8262314355329194 -0.5845498168000449
Ni 7.35458345091255 2.2328988318615095 11.47176330481715 1.3790821430029412 -0.3606036461282499 -0.5588300434364375
Ni 3.5451302425291007 7.670137081325106 7.703787607684543 1.5868961839995637 -0.4466016475566244 1.1078883521980922
Ni 1.2953039102403947 4.774507467432246 12.634321252523783 -0.8440065216736239 -0.7839265256625918 -0.35218534015756764
Ni 4.406303988752199 2.909709410166558 7.585063553667915 -0.8556050251445007 1.3072259802925874 -0.15874993648012015
Ni 7.497472842273729 3.96936346752112 3.557462202023994 -0.09869359461817197 0.36883786111258415 0.42032728724112767
Ni 1.5069676910923233 4.005692703131833 6.945106001803125 0.5762492673541495 1.0023473956407836 -0.3432990934115313
Ni 4.324794292817601 0.768065024485573 8.330503802072307 -0.5918653766248516 -0.7137251249468418 0.23101696147564726
Ni 6.824994508975973 5.013751963265938 5.638475698419745 0.28314916339451235 1.6530750938194823 0.6650780533630998
Ni 1.707091267571381 1.7119743799395133 3.166977539108171 0.7772228883901712 0.22192374092512748 -1.0818752159637819
Ni 9.136639363232945 6.139005920235218 9.859536065150042 0.7290488997881057 -0.34327389660055074 0.2742302636383277
Ni 9.174135690709846 0.2066985052164166 11.168325955322615 -0.4747395434434211 1.1962193726350172 -0.28155585076546347
Ni 5.035478545446901 5.772931217119099 10.92623282166193 -1.6203896877713189 1.8159557646385243 -0.3720124021858238
Ni 1.354069319886713 4.037474948831875 9.281168285247745 -0.0034838447835423866 -0.7815587967613636 1.3793996742433599
Ni 0.4777047059333071 8.740145577716492 13.359577347357565 -0.08498113012808589 0.286131643061604 0.08086427974623493
Ni 7.450415698229013 2.068124133825566 6.892672765785997 -2.5841445678508848 0.9176560288389745 0.9318382338766275
Ni 3.03623150519631 2.9410061456502663 0.49868061462593805 -0.8814299566274045 -0.03438670500998594 1.3806530870344866
Ni 4.561284451847089 7.424749013907798 5.047398754931403 -1.4671547675721572 0.09162100404210671 -1.486045433829073
Ni 3.5975279989534954 4.760296956869535 12.65857715619715 0.3648536796538555 0.38992553502081884 1.3750943619997866
Ni 6.857355632241644 7.0895135462638414 12.106241126951812 -0.49087964353839325 -1.2075363403097332 0.4245369544471011
Ni 2.2889285781734823 1.5779735602312257 9.967765629105903 -0.7456584833203287 0.6882647758922081 -1.5600266133022296
Ni 5.309409011543713 5.351424318726496 3.6863119450716724 -0.5253774202049468 -0.2528970493781903 -0.027350109878178704
Ni 8.738007465417635 4.613243381729796 7.779753150417999 0.36875070071541655 -0.23342582802745604 -0.03418950139751531
Ni 6.472579449061723 9.012124666213037 7.955173593620567 0.4299036180756532 -0.28231921129404924 -0.07875828914682564
P 2.0604960213881585 7.236352376500201 6.271341066432081 -0.8134196500257023 0.5682415665583246 -0.5609797427895887
P 0.4716591700664512 7.465615902694251 11.57523673599992 0.45186392439682826 -0.6202634681515704 -0.6765400312561122
P 8.591747512746904 3.6651259598431274 5.764947375080878 0.03881620153624928 -0.5474305433502443 0.8095133729927608
P 1.751711523799496 2.0141391324631552 7.773548890057342 0.7479089699174022 -0.5643095784937701 -0.07933807290969562
P 8.050945152159988 4.225927606649049 0.5171850895827284 -1.3079664580030377 0.7513046258625126 -0.36196915901720883
P 4.757981446607017 8.578386645062778 9.833900192054092 -0.4159291581734321 -0.3910326520420685 -0.04300298592408723
P 8.962742675170873 2.420156387607706 3.4376858979808107 0.6180034684728002 0.29872310657336937 -0.22883075245760587
P 8.797846599580845 8.843083080314308 7.790261645581159 -0.7011105215066248 -0.5780667801788625 0.18259974651452424
Ni 8.058974744199363 8.225103268800085 1.5565270800981477 -0.6690982302660864 -0.1593096656383321 0.10863116544685807
Ni 9.127480026267099 1.4865389150665616 8.643916519165526 0.23382666301030056 -0.5156936172582796 0.8865793620388278
Ni 5.581901620461381 1.1960450812048036 1.9068768542459904 0.44069093849914426 -0.8904475867449826 -0.8387018216312588
Ni 6.399239396190443 4.206161738803282 7.761673496900502 -0.5259392062456878 0.4203092895189987 0.7794178391589609
Ni 5.924513108699649 4.495581848148146 12.636876716873989 0.28787382256369126 -1.0214357797308022 0.4206682155203142
Ni 0.13161154923982665 2.812317928116868 13.429474946060335 -1.2986168984673379 -0.3823065850229803 0.2409031102411077
Ni 2.9293819106630297 4.133269849208619 3.0416804237011705 0.17576369742929732 0.26717875610818503 0.2722667121540537
Ni 0.45778571563469644 6.941946450702979 3.7095977619858633 0.9386861100363962 0.47352418297908117 -1.1225210145096023
Ni 7.535398659557387 6.588037513200009 7.668586249653314 -0.1512312595055718 0.953577168215616 0.5964892485501082
Ni 4.089349848100217 5.42522187160932 6.602941743167981 0.663237143499619 -0.6293672302250516 1.1768114004220507
Ni 1.510235548317651 9.028949462556008 4.691773725548389 2.133823305350828 -1.1421038217375363 1.0931731574751045
Ni 6.603713891146651 6.12116341978493 0.49647060946812366 -0.965534340577492 0.6230014359080238 0.4730310453927466
Ni 2.978959973138713 6.530196440311711 2.909852262210979 -0.2563731808522488 0.5008742928572599 -0.5192931616840798
Ni 2.229248168504072 9.102224158282782 11.367484113409962 -0.17482190234131828 -2.1239582396312904 -0.9799893396605573
Ni 5.727881471084227 7.5183964652507544 2.544115548899309 0.12983531032829898 0.6265220474667725 0.3947954615186104
Ni 2.498351542642329 6.7571444562432434 12.494184330619824 -0.0539366021174555 1.76366543987524 -0.03218352671108006
Ni 3.212966560676952 0.10515684449056091 6.335690777239738 0.0801597974800426 1.3430414473292998 -1.1710549575542475
Ni 7.703459888288517 2.2709366899643215 1.7447799317878299 -2.627269424064817 2.707221219299112 -1.3512689774454147
Ni 8.074044234375588 4.628294198436162 11.71691795386122 0.8077871343302734 0.3847856426910921 0.8920349858367604
Ni 1.4240761583881583 8.581645165553178 1.968726187439525 1.3353543630976874 -1.8599550530376097 1.044799137047091
Ni 2.7140114460440867 7.095526403558444 9.909797576622564 1.4117778334637492 -0.07653068536788754 1.5943012182143832
Ni 3.4682048834448906 3.6626517250868083 10.698802096534543 -0.5803959425326715 -0.09200821217819638 -1.376526466460623
Ni 1.9264952016798709 1.8370586177901214 12.368463327447024 -0.04285514749231329 0.8307745963643821 -1.352481252585961
Ni 5.63384187687423 3.1502423754205227 5.304237394066259 -1.9054558656828864 0.019615717348398475 0.6599227344144054
P 6.969956655491501 5.813956830399353 9.963678940227258 0.34538657206817935 -0.6844497730214922 -0.31644880598790665
P 7.175131405567422 8.933976194853061 3.5197595327051503 -2.3416460880981993 -1.5579969844667105 -0.6519134909566837
P 3.6257062649707477 4.872365786228411 8.806355166122106 -0.7665669513382218 0.41361773643143607 0.39965201827996333
P 7.850270708320089 6.233465667517042 4.21553955536648 -1.0698002870771188 0.3652830538817902 -1.200071913611888
P 4.4962540930630714 7.719117592765301 12.814129027469727 0.28850451416915474 -1.047692913655118 0.08114427288049895
P 4.118713879453518 2.6084036372564303 2.336922196731628 0.6725039135135257 -0.08163689624620134 -0.3727487661312161
P 5.684400296517511 6.905449153863536 6.608750125967627 1.5880027868001814 -0.09624307619515036 2.3756270730293343
P 4.349919446512905 2.6713799143559567 12.462262033895838 -2.9086195865773776 0.8786698773837642 -1.9933742240624253
Ni 8.232983473080589 5.882497801516866 2.0008118770247765 0.45066064811734646 -1.2857878650234695 3.0048834887081344
Ni 1.8592893836572781 2.316005109469053 5.445016683333369 2.008585898805857 -1.0096871238353062 -0.3752651047951666
Ni 5.888165199619078 3.922072905103166 1.6707144146125281 -0.6222190492160447 0.1044423241764911 -0.3860747938161609
Ni 6.019010202921191 2.109177757310609 13.231452134940417 1.2832471008794868 -0.8095216005228768 3.15061952942709
Ni 8.065164999457627 3.3696463095290126 9.65476279467609 1.8417688690468859 1.128026517708864 -1.0670065263820656
Ni 7.647047335844435 7.953815098688324 10.195209425662192 0.1708066105343381 0.18240768510837618 -2.003187096387789
Ni 0.8426095161627587 4.000296070342578 1.8609485214542516 -0.5288630647607021 0.04079723652202006 -1.2076371275536557
Ni 9.22140757965794 0.8773645782643563 1.6147005407499353 1.1134938713103275 -0.3920860330072473 -1.616512978424732
Ni 5.86177958670829 3.7822086158591475 10.108557989801914 -0.633653002084599 -0.8020571738250316 -0.12636406395024688
Ni 2.2753903125256967 5.460617433727083 5.065040515580707 0.1859889747017313 2.4725856872342704 -0.5681096689661507
Ni 8.935395378562346 6.480450316607296 0.012669015625848339 1.4382493973917165 0.05353756690682392 -2.5627321636133797
Ni 4.333337405278099 1.1640761008061709 3.909780159894977 -1.5513897635628378 -0.6041182258502756 1.691642669680035
Ni 1.5687675395907317 6.186305819388101 8.204947125434266 -0.39613937714101455 -0.44647026418508273 -1.6013817792102485
Ni 9.289276305860529 5.860295045854498 5.746199211342427 0.6159501854881972 0.02441596695051924 1.8725197770764976
Ni 8.636741238372199 8.22217153403222 5.764961380183272 -0.2571617381918152 -0.17893721006127247 -0.6336635436075603
Ni 4.307829445450686 6.2975903630128975 0.9075297014746083 -0.08873159830945364 -0.22110792989205144 -0.7727154874381208
Ni 6.051137907813626 8.814811446947761 0.2036687347317915 -0.6408688031067479 -1.031502934158817 1.6684045250877009
Ni 0.7516631822349077 4.130870308331736 4.17789197278372 -1.1498924645440196 -0.8167224891466902 0.20521696969340786
Ni 6.495118327181553 9.364184930199965 11.689272815408444 -0.9489504680768818 -0.006164734049815189 -1.6858450891616517
Ni 8.996448288266395 0.3861057342338836 3.8257934281835806 -0.20787446192091297 0.039073054742061734 0.7973368855312268
Ni 4.655025270539341 1.3898476881365849 10.620690972114287 0.3005547604654695 0.13615405345747522 0.4764318435441795
Ni 1.4064857497809666 8.768361190673462 8.763596654838935 -0.0710884313063937 0.27135757007622296 0.05625727983083214
Ni 6.604815625868333 1.5893457033753655 4.041922969352292 1.9258945931532119 -0.6019209610886409 0.09160532031282288
Ni 3.638292183655724 0.449362113381295 12.965908857830781 1.8624341107057216 -0.15110476123003655 1.2845614488155361
P 1.220115183853073 6.170396023068221 1.558262779121543 0.15728852144324523 0.4568660055971099 0.4285527604747135
P 0.3425059831335638 2.8029905299222904 11.157298337697375 0.18836287425054657 0.5902859479528737 -0.6414023070127147
P 5.42961013702619 1.129324773398545 6.368091114792114 -0.6853738274976584 0.06519340597819741 -0.4697644588263329
P 3.45722488316779 3.7748325952648374 5.205027116052301 1.2584958620767357 -1.1453531819127696 0.25088027605847757
P 6.74147741503153 1.6846457568008457 9.175003073384797 -0.6763551689388158 0.5234832885060274 0.44570253278112276
P 3.4099343207498363 8.49179776532653 3.582469712859186 -0.6043036023882045 1.4221553200433315 -0.7924767292254481
P 1.7381265744770629 0.9940168108001266 0.682900930499566 1.5793757072528025 0.5318131485279615 -0.30608777446855673
P 7.684524989851477 0.7613397743158491 13.277872513662942 2.666242205783589 -0.3404420835787105 0.7869876810864188
