# total energy = -381171.6677000901 ev
CRYSTAL
PRIMVEC
9.23803319860101 0.00000000000000 0.00000000000000

0.00000000000000 9.23803319860101 0.00000000000000

0.00000000000000 0.00000000000000 13.52079538085680

PRIMCOORD
 96 1
Ni 8.072313614501827 6.922076847075344 0.36322653712310476 -0.021752304075427054 -0.8744113592177264 -0.6237565689064936
Ni 7.128251274840154 1.3395887365050427 6.502974989184577 -0.6538112222000289 0.7303115685506132 -0.8769822052686962
Ni 5.507927943597911 6.8686810144523225 3.4146367059456 0.1860511953982344 1.3281043664034933 -0.07300981669882264
Ni 6.825160639454562 3.1287556028426073 10.925465426316375 0.5201012594076719 -0.5905775110513635 1.977879470860936
Ni 9.107342868322478 5.794196120297254 6.274960926834286 0.830980284617285 0.37979487434472015 0.7871018380667799
Ni 4.293357512090681 6.755524344244814 5.6462028264182225 -0.4502706117677793 0.3768028815959317 0.2023231930853806
Ni 5.66199986340531 6.285613303062245 12.804910049526814 1.6037705911573992 -0.8730121648773547 1.279418985382648
Ni 4.369635953261667 6.231977281572753 11.053493482571726 -1.7889638094307123 0.5049001261872015 -1.9072646367568509
Ni 1.3390344545054957 1.4048462039183691 2.608486194394534 -0.4325947917545711 0.2829349905011772 -1.901269338405364
Ni 7.037598453814252 -0.28209997606274956 8.069440586137508 -0.15888363384450702 -0.4451505169323946 1.1284047269838888
Ni 7.277565607484774 2.6203496767915038 0.42123122457235934 0.23340911585690768 0.3656561209504928 1.471581178774627
Ni 0.43344575223570875 5.568852773381447 3.6902986965836115 1.2274292225789183 0.09498477830801706 0.09798756969008286
Ni 4.1132343383045775 7.089876484404853 1.5097320628893038 -0.5224255366654745 0.8380819286590727 -1.3805906092276676
Ni 4.0356625724679835 1.157211482587448 10.75398073749321 -1.0800232503567075 0.3098366999880277 -0.6290409572338844
Ni 0.17356232251813308 2.6094026073004515 12.939239368313684 0.14691334885650828 1.3500448752303267 0.04852314441136805
Ni 2.8813056421782024 8.936282205228967 6.536804667223593 1.00605544061999 0.6657002603281309 0.24012817974829614
Ni -0.11699230164437247 4.482062818836437 10.706617340631924 0.6710077885839735 -1.000976997655818 -1.1445646245732028
Ni 1.9775765560168956 7.112999281819287 10.184174222942293 -0.8722830000208138 1.4939819150673304 0.3071617242590258
Ni 1.311227974194891 5.876340712630111 12.67822058430037 -0.24744296824215448 0.3515955290923687 -1.3538508792399782
Ni 6.804365826438225 3.6869545285196788 6.714535190378319 0.13624275651653955 0.36059284749497256 0.2059438205571034
Ni 4.372850788859039 9.011525986667463 4.475004961375539 -0.6181173683428451 0.6140984769914393 -1.612189925569346
Ni 4.618693331724757 3.5779180211754698 10.929629931739639 -1.105791103349431 0.4786653608603885 0.9833726543104935
Ni 7.968062408420373 0.9204286790043238 12.133724433455432 -0.8958934403509022 -0.33520526065980333 -0.7312317663720375
Ni 3.873978513200141 0.22777387348382147 0.2957713415815748 0.6362179345982979 0.46243270105161005 0.7381400634560965
P 3.5192103193901234 6.021682690944644 13.111440004719597 -0.7893726363788276 -0.47321847881320445 0.5205812843678841
Ni 2.390867690945745 0.6651596469329764 8.93190522503921 0.22524637754045723 -0.3331146966793618 -1.2708379285818567
P 2.110973757241192 3.6183344169757676 2.3621096932025845 0.7273463152747022 0.5302532602400094 0.06641956507581465
Ni 5.403408834550011 3.77187053085027 13.09751366948098 0.352374059129606 1.9794082488006361 0.5218737779270625
P 5.791018236833185 2.4199674959219593 4.860469292320467 -0.31634390497892617 0.11999698408163849 1.8692534476204004
P 4.082296164696533 4.96861155803874 8.990558422427934 0.0737189269507053 1.1262650549330668 -0.11745827682018482
P 3.2850354126148673 0.05936544975814234 2.483188900790283 0.6733855447875307 0.04046633554516257 0.898032598181092
Ni 0.8487396927895877 3.0015201698466076 8.694533958733233 -0.2554401275150181 0.4407670431527183 1.4588516470231003
Ni 9.298542444066195 4.906023882256565 0.870911896574798 -0.9553818255245224 -0.6204799550377508 0.3770921307015764
Ni 8.712980463678155 8.897621035760567 10.135999726755005 0.36636651675395615 1.0946070617081536 0.09572397046688676
Ni 3.050869743872937 6.856994902295207 8.043061381975736 2.5604312833943452 -1.185489902032655 0.4282259732629142
Ni 3.168608478610033 2.9830533412283686 9.282999452995565 -0.20676451668618584 -0.45963662636371166 -2.0209194806705457
Ni 2.778744996195367 7.251163308239687 3.5725590380431833 -0.2723685278392406 0.6138639923831298 1.1207279271649213
Ni 1.8750436241340376 6.1055547955094225 1.7691286482506106 -0.1482886319374801 -0.6390842004024994 -0.7897657580521883
Ni 0.4005361823159418 7.974030177948828 12.544539775452971 -0.009907231811382937 2.3276464313849976 -0.40302761962041556
Ni 8.282820679896428 7.156981558483337 8.69790029807715 0.15951278278807368 -1.3619652808169964 -0.673270359365905
Ni 4.289736203026975 2.5721179047975937 1.42475416573543 -0.04420497665198839 1.1673075746966735 0.5720190313228858
Ni 1.1506524789261428 7.882629076223538 7.782583022911981 -1.7127676245841084 1.129864856469183 0.7386270303948441
Ni 6.076076231166851 4.9361213948319635 1.8294991960345979 1.7400400871468162 0.3176024599763756 -0.8225190412238094
Ni 4.658389160925644 1.2596982243036772 7.80701577345201 0.31723890598936977 -0.44366801884959717 1.310414148212582
Ni 1.7154565984311478 9.56062544951864 11.03682252763202 -1.2326218225234515 -0.7192936201735547 0.9220379599567541
Ni 0.28762154858156963 8.010381839085781 3.2098101072430216 0.8745237164258745 0.6896482865032961 -0.005485191484287328
Ni 3.987061279141043 5.105029596160568 2.585892736289668 -1.8568499317497245 -1.3453878360742895 -0.7412040470934008
Ni 6.415703288355912 7.646892941816224 10.162378930916775 -0.5475251599465796 1.2007676541273322 -0.2092068075790913
Ni 5.483336298884679 8.844197489037567 6.379828309738569 -0.15711162954574878 -0.663826954564818 0.49268661484014503
Ni 6.110330858738852 5.934133849116205 8.227633592611538 -0.05870702692290535 0.4221075190700021 -1.3548716071950084
Ni 3.6065836385853722 2.3479015979475313 12.825380607573415 -1.8459957626440402 -0.9093287399202016 -1.3580147808096807
Ni 1.2431713826838526 3.278448694853584 4.516243542141832 0.8157380137462338 -0.3806610789997573 0.5443992127230882
Ni 7.5838710784677374 2.5077565266168684 8.915287850692794 2.4043432100171045 0.5931907803044946 -2.856558089995448
Ni 8.636775926773778 8.372568173656402 6.073568105118901 -0.5843603264970582 -0.6028786970162198 1.1722412645528648
Ni 5.040529647479955 8.739493619323152 11.907480378290359 0.32373042725098444 -1.565972032252387 -0.6853074930360972
Ni 2.0568204058854564 4.0666192221426805 6.695619393340446 -0.40219175398268153 1.0029834865628855 0.7953131702329787
P 4.52502891183465 8.688675197998021 9.29015246219972 0.08447102326088678 0.35870797176743385 0.06991163738947315
Ni 8.59452116234165 0.46150720226610514 0.7554595750858334 0.7810299208410871 0.02157258396445317 1.1993905712741473
P 8.816677387760063 2.213044787457761 10.644557156552652 1.622381007169735 -0.39124888181793266 -0.11941874298066531
Ni 1.88062339626281 8.507120129046424 1.0231011051904009 -1.2377056648042621 -0.36086821264354624 0.6668351452635225
P 1.589579156334038 1.147585451861983 13.47865090561611 0.5622853489748897 -0.6416445049305077 -0.7622834934715194
P 6.371148253625663 6.872025182516255 6.110209840502284 -0.013748459934344063 -0.20302099048335356 0.6470625906222855
P 8.09206452975235 4.842327642475296 8.364153249099948 0.26961899011856144 -0.21300381272767832 -0.10094819498030357
Ni 9.020108119627116 2.8796058440462584 6.492375269746574 0.7495511335065155 0.8817379747861267 -0.16579630180394025
Ni 9.165209909075179 3.368574947979917 2.676481814885622 -1.53259551367447 -0.6852627558410908 -0.6181813888115611
Ni 4.661391521756523 4.52277483170316 6.760113799201063 -1.5836362823013692 0.769524491304649 0.22258425732726184
Ni 9.139278749529707 0.8460745201750995 7.788951723086774 0.719694198046083 -0.3614657370182291 0.061123349673881826
Ni 3.097808191201237 4.960482088712052 4.693216546563844 -1.5456240647236543 -0.1508885314541724 0.4628548761906932
Ni 5.517332261523559 0.7844965614354323 2.1804982722476973 -0.4820111374041699 -0.6832899483854361 0.20462304486315083
Ni 2.0105563349899382 0.41398583503494824 4.427195367504618 1.182414348431125 -0.968149666713152 1.1398926730188306
Ni 7.202996202479059 8.391081192441272 2.403794470978512 1.1123021649950715 -1.3135123275219314 -0.7543914923179524
Ni 2.4196811168888597 4.920675403111256 10.460566018213044 -0.7020857409357005 -0.969505409410098 0.5034320262821071
Ni 7.695872994509523 4.610471482064812 12.551868307290315 -0.20593327903414213 0.6704138637537164 1.2420713979721254
Ni 5.51693502609055 3.336315735606285 8.78869261340627 -0.2647621762468924 0.06986072954687969 -0.41048793255320276
Ni 5.695238307311475 1.5443127930377047 12.70131382000816 0.48897368476493214 -0.6424091510106743 -0.1424468284447224
Ni 2.7334139666657533 7.967923837920486 12.29160611820638 1.1731928298328569 -0.9860635708790954 0.46374164967102066
Ni 6.821807233357302 -0.1305879152899263 4.411863003593817 -0.2570882046414024 1.7096025965925654 1.549478662583054
Ni 7.761952646888844 6.947352106254685 4.5010728438142324 -0.5362465017089668 -1.4583145435727076 -0.2516240962030376
Ni -0.1283513874217544 1.0178372738013701 5.02354367560384 -0.42409035382798577 1.1506805076629538 -1.46606076317703
Ni 1.8893625757890002 2.5504177645153314 11.169907483329904 -0.7971525374345626 1.1909067021728523 -0.012651627325739503
Ni 5.982892189009685 8.134162247617938 0.6198618743233353 -0.7859885503979431 1.4079618021517688 -0.311468836274812
Ni 3.7339391660146073 2.6383361276768014 3.809484107339525 -0.03346110787192302 -0.1912556224173093 -1.0796247293667083
Ni 0.9180018476496408 5.689409108282906 8.585542717752322 0.08830556651562856 -1.5894264066205852 0.00020311714974158567
Ni 8.42152975028305 6.6099052249305075 11.162201115929538 -0.4278943009551083 0.4101228359043001 0.25484028914749013
Ni 6.204096896995542 1.072979094722965 9.894761419698856 -0.552044645083488 -1.5211440773044191 0.756844067623503
Ni 3.674778800596297 2.4630998735200365 6.081815821272159 0.36310532950418106 -0.6756481155694622 -0.3968839686165229
Ni 6.43864132510383 5.349883669460429 10.429103124312093 0.6521945125322123 -1.01080658215173 0.39159469519312556
Ni 8.028183529304565 4.40765046039726 4.826816060717975 -1.0012631614376692 -1.0997880916884608 -0.9896654292977407
P 8.066133370206877 1.0666048517281752 2.8842424129724686 0.7869488574286834 1.046607136790107 0.04195063340017292
Ni 6.548851062680413 2.788297122654226 2.9571471243728773 0.46867456819626385 0.44475353860429206 -0.6145646179945803
P 7.111013104654244 8.13624080511624 12.309508502988415 0.8935789332851126 -0.054316354054377416 -0.9446824368291472
Ni 2.3578694359060504 4.03266944967043 0.05650812605047787 0.056533416310354245 0.4844449436566431 1.2558144585898308
P 1.8713022206370955 1.9129565129030481 7.092495466852713 -0.43233691010749414 -0.777368669939416 0.20164493607143338
P 8.139455640713612 6.3901139360434955 2.386217264969546 -0.07495305646812253 -1.159270306214494 0.271689499494345
P 1.3929938071613903 7.557071543789643 5.688671913223509 0.1465446526631799 -0.40701771461641517 -1.5232981475329441
Ni 5.342788859866228 4.844840387539909 4.392067745783331 2.121102258239734 -2.0641340683848064 1.2266059553466746
