# total energy = -381175.3236707392 ev
CRYSTAL
PRIMVEC
9.19810037410482 0.00000000000000 0.00000000000000
0.00000000000000 9.19810037410482 0.00000000000000
0.00000000000000 0.00000000000000 13.46234965573166
PRIMCOORD
 96 1
Ni 2.8599470094538235 7.345584707249925 12.293292665681017 1.3274410217878816 -0.2933389594433206 -0.403642370386279
Ni 6.8792778014991685 8.98487938631347 11.988168675010808 -0.26254665665281235 -0.26545688832107184 -0.1020177738953985
Ni 7.80687864819805 4.703706265760811 3.5784943465422305 0.057015498153095354 -0.9458067802415774 0.5620431510570966
Ni 8.44065537075889 1.1640564176736068 10.633654547619347 -0.061745299528596885 -0.2527474111742034 -0.8485267781414806
Ni 0.8465619015665935 5.106601466283428 4.030587427504904 0.5501587409146848 -0.12717730388016163 0.8522242815977259
Ni 6.833839184756059 5.496702108933643 1.6126680175761041 -0.7180278660872538 1.7565486263248007 -0.35844186259024075
Ni 2.2113521468984185 0.9467144996527647 7.491312973777481 -0.0021317016310221353 -0.48038851419908235 -0.12268352977486612
Ni 8.672024392126543 4.394328153583781 6.994444459121732 -0.18139852711757146 2.900942015427462 -0.020707664860996594
Ni 4.462513673000113 2.822593523098809 12.345001627572668 -1.2731691478181943 -1.519164584980545 0.23964635501587114
Ni 5.339147844522158 7.710114630356446 8.530458266100254 -2.101461344080355 -0.014861490492864728 0.20207353896841973
Ni 2.6630984594701577 7.878982558450934 8.453897876128334 0.4860007181795372 -0.3975185168767283 0.5898082369855069
Ni 0.45021022977900627 1.9621112161518464 0.8111197805069672 1.0656204446678164 -1.0093811625591131 -0.12829547664500487
Ni 5.366889315796899 4.232358800905758 3.38816357061204 -1.2915581918483434 -0.5280773356346131 -1.2512258107778838
Ni 3.0214288628024164 5.019247105309882 2.696064451860301 1.0266972852400575 -0.7451555755419812 0.001573258024390839
Ni 8.830746815308549 4.972824291807355 13.281227533162237 0.6255581408916064 -0.4180922272630219 1.4096641295548562
Ni 7.21608464953206 7.017865582565657 9.676804660964715 1.1777225993824103 0.6555500592680065 -0.04469682868674237
Ni 1.9236631558307526 5.678143840487206 6.770969247650626 -0.23303990544294706 -1.655996124121019 0.7389414763114692
Ni 0.20895508993453277 6.6866327834692685 8.142621275996694 -0.2676443828906939 0.08134044805170508 0.3456087153813145
Ni 7.405501134267055 8.389385158263728 7.827750977978104 -0.27237161316303415 0.32017407735829373 -0.33877472317861657
Ni 4.028915212823953 8.893017956067833 1.8399668794480433 -0.33016461291210236 -0.043737292986950484 -0.9718186309243071
Ni 0.6816224822192686 4.023285975284118 1.864979274288031 0.819453514924608 -0.23425500879697078 0.15118060877329445
Ni 4.368877009347306 0.1560531344008635 12.936321757590418 0.05205815414782002 0.19091700813096796 -0.38024404606699674
Ni 0.19337166797376798 0.0837652621368744 8.270689189458102 0.7677584005431616 0.1193431525477235 0.4966941933376414
Ni 1.664681436596133 8.744670990312187 10.704897515660257 -1.0851412883095635 -0.18176413798710633 -1.041985578857696
P 6.016753516228933 9.188359766797497 0.8569070052611232 0.42672984833336186 -0.7782083922318921 -0.5990171571782845
Ni 4.0929339926887405 3.6347214154266356 8.42648845628364 2.2427758586928475 -0.5636405774512036 -1.024888257055777
P 3.9324639304012288 7.993958815392003 10.522482625067944 0.30292506046985895 -0.7575881448783792 -1.4694916432354497
Ni 6.700071208380541 2.4381037217873183 3.724695395438328 0.5989153414930976 -1.3784049144302584 1.0303078854094514
P 1.251171628032716 1.8149140129656116 9.485181551906505 0.8174133445661277 -1.2682223453358805 0.3718486229144499
P 8.607343349021775 2.91491485837221 12.689853134351209 -0.4751851156212719 -0.4810688280955587 -0.16214919196965621
P 3.8795012674038944 1.9672069638594747 6.651504317638578 0.20633308557572208 0.5044077599318152 -0.07846878293086486
Ni 7.117618983087728 6.190137711696066 6.709648270678704 -1.6914647493412738 -0.6331644924839547 3.4265426073868084
Ni 7.761706776371042 5.7600161335298035 11.558975185190574 0.7152924694339616 0.8839606934690581 -1.2883828794441552
Ni 6.072981504923393 4.766566084955632 12.810018039815516 0.10742351829200207 -0.7283505881695004 1.1075751918330474
Ni 5.859925901761314 1.418190737915591 10.619249402339715 -0.3109859831011225 -0.09427181140139247 -0.1170625840436629
Ni 7.009771254077005 3.4015403682495915 11.085679562637912 0.18862152722857192 0.22912951464494732 -0.5027283153468632
Ni 4.02074729953086 8.63265652174992 6.443606089457846 -0.2738633672172123 -0.48043453694566934 0.6565373628819403
Ni 5.875065975275314 5.502487714182918 5.024647310145889 0.5301876971093966 1.7886997571360486 -0.1475599813015717
Ni 8.12675179310866 0.17398759086355925 4.083507779239683 -0.14218123348816158 0.8056785726277028 -0.9297309577256374
Ni 5.505283936751725 6.5149318404037535 11.212468020312079 -1.2383440697192092 0.5909780889238919 -0.05306499814577958
Ni 1.784321130518732 1.1146258252895023 4.896633665477759 -0.14400363140888103 -0.2443126501432889 0.7136150817315388
Ni 5.573184315050843 9.083473826165577 3.63581690920277 2.4532463634757105 0.26874995725004686 -1.9902279651239596
Ni 1.9207473579547274 8.737689631990726 0.48532857769908644 1.7705549679062216 0.6881117952541116 2.0674978426507167
Ni 8.857734042337757 6.612772036010326 5.615549846398433 1.1422143791734716 -0.336980093172039 -0.9210252024215235
Ni 5.577213083094057 5.330023328771315 8.880452430899258 0.8801436337158133 0.4093754162153143 0.31494522485918663
Ni 9.032295594675967 2.2683067855367467 3.4336665740590377 0.8853017808779851 0.34991608450741674 -0.3492432268101082
Ni 7.580991694761348 1.4871672939796772 6.334412678335886 0.1909460615966905 0.32533479562362677 0.9273025507898031
Ni 3.5206925628427608 0.8267979429034515 10.833812574182804 0.9632409165576251 1.1307251475869493 -0.6171040965869824
Ni 8.128462639811943 4.916081209481799 9.301635294945893 0.19982690902608813 0.01968590846470158 -0.3246691370151699
Ni 4.4232745760312655 0.845838930862948 8.606452972888023 0.7581890116871717 0.08256892114216748 -0.5904191310966284
Ni 5.507822612504984 1.0351266421901693 5.51114956547583 -0.8629128716598237 1.4377637160045498 0.8388108364052974
Ni 1.3590653475462156 5.620388967100568 11.517808166345336 -0.010545636726330226 -1.3223597506102323 -1.1574034282090842
Ni 3.2057771941314495 5.606545825764863 9.759167212766906 0.10038640893956259 0.7164052428821662 -0.17717806127832067
Ni 0.136371958642719 3.397208062888052 10.670864543605699 1.7963691007558482 0.650600171461899 0.24371846820271573
Ni 3.1596119274444714 2.617935785743706 1.3853158067209448 0.0859216396644843 0.9669893278564637 -0.33003631486435414
Ni 5.264459268013239 3.6974248669120167 6.256276653738846 0.5718105148565055 -1.4019518485122628 0.3190044825302248
P 5.0449006077585725 4.130204696138757 1.3026938684830927 -0.653393675046636 0.5511195621660573 -1.3020035555513834
Ni 9.09731696750128 6.176966031700897 2.0045576907843228 0.5915007941965813 0.4273191451779286 -0.3440331433640785
P 1.9563899976064587 3.1810159074366204 3.531376156637725 -0.4395732799549333 -0.45566452908984106 0.3688239771555132
Ni 8.841821328377113 2.6124813121144213 8.237625697202072 0.9652708025034602 -1.5914202971221623 0.9782641294393345
P 2.5035114148359536 7.064601131487062 2.116133409950103 0.07943603194014061 1.7179980197451121 1.1529585050638531
P 7.455456018382811 3.519147281949473 5.503879386796934 -0.4148397817639952 0.6167639396387442 -0.6892435948657097
P 4.831063166049295 7.373896460759094 4.81242689451423 0.3284275756163376 -0.14437284182284169 0.5139900043036116
Ni 2.7183790438074236 6.565052290329504 4.659077081866566 0.6796780626644617 0.4361549983020037 -0.31397257653327215
Ni 7.712009439070836 1.149992521924575 1.5987485320057906 -0.794552123697238 -1.5043336906152995 1.2642217088169196
Ni 1.4614402067265437 7.83087649254679 6.351321546586667 0.534763232295221 2.231379701040763 0.07079866798011679
Ni 0.7310705509944282 7.868588704823462 3.9405509004094355 1.0562364323497553 0.08765327764361033 -0.9557854887208443
Ni 0.6301995812548893 2.994138098454884 5.756514416648406 0.11281537873153473 -0.6542902187189764 -1.2849206319271678
Ni 6.83516371123602 8.249380869711727 5.6177178386993125 -0.8940347898756086 -0.5425035383622722 -0.1854423581696419
Ni 3.408153802548842 8.873462794287295 4.058104465126096 -1.6389257989022934 -0.5065492317548502 0.5606673537554926
Ni 6.661880694874995 3.23043730172017 8.348339554345822 -1.227902048450279 -0.0899191908596516 -0.1961494601745009
Ni 9.062115836676202 8.430252319030862 1.7223995175805498 0.18724752969918074 0.8036438015858611 -0.14366218890906227
Ni 6.45749890053655 2.041895540368393 13.119880891891807 1.1957154364154052 -1.0420794241230826 -1.0353968698965845
Ni 3.8777904207006113 2.227154483652399 3.968216027449568 0.8037900973557383 -0.8863279081496541 -0.23684256701848885
Ni 2.0978291898450845 0.9967797609751838 2.5894428296535974 -1.4658453047321143 -0.2717622617138094 -0.43793548724119413
Ni 4.301694082891501 5.9330783954775 6.844272590215919 -0.003325721939123305 0.5935383934519003 0.05330539629135981
Ni 2.070207293877562 3.3055673870557425 7.679530026200067 -1.5804391155203104 -0.142757931927238 -0.7087690664931471
Ni 2.889969609666276 3.180031710677205 10.261002701722509 -1.5499792563685564 -0.4336890532600144 1.603282338667071
Ni 7.524322197240234 7.054823550596793 3.550384951245278 -0.28607996388806217 0.28321986873144767 -0.17924522821999453
Ni 0.6460727433831456 7.182989883734142 12.95772757720268 -1.0943170412715606 -1.6853707206283943 0.395806419281628
Ni 7.486242060941351 3.4121733724915018 1.285245071729716 0.6151713983406438 -0.2298244838294429 0.22695718958397687
Ni 0.1921805139518585 0.045674088117325894 12.60753105419146 -2.4114096299455823 1.9409072645119605 -0.2232128920501962
Ni 2.18015218981489 5.67329644149457 0.5806687295747321 -0.5272923778394725 0.33868910544334574 -0.9606482161297841
Ni 1.8755846842282753 3.6066304163307934 13.057308053434312 -0.5391963283659101 -0.14373752223168793 -0.7389867277271079
Ni 2.033810409980297 1.3796598946894998 12.417752164294585 0.5837843993889301 0.5797765637811175 0.3970950561860645
Ni 3.2761058709771627 4.2611120632415815 5.0707288741178145 -0.8151518022254607 0.16794445849519463 0.4216069252844997
Ni 5.4692181844744505 2.038243894447945 1.7901288112093394 -1.0908239405166373 -0.6956250729120214 0.497329255818479
Ni 3.731779772486009 5.002120242075939 12.246430182971949 -0.8860129480123966 0.7390443204379208 -0.6440508003791553
P 4.959523838404412 4.036043740754299 10.647413066429943 0.017144115879454348 0.8454810493366213 -0.8948122914715815
Ni 5.085528617911269 6.833710411348285 2.6134323957118375 -0.38205873067823237 -0.6043979618742237 0.9474875103781102
P 8.930380640523403 7.803263794679823 10.88459252791837 -1.178463334203177 -0.22128585023081246 0.4092599736833726
Ni 7.543067926171906 7.314587108378613 13.416645648777376 -0.8581545310392317 -0.2877550375976399 1.505318166015756
P 0.05213667356746952 0.2612610085522195 5.927808803669377 0.9985380491970223 -0.4553781081976738 0.2940311004143388
P 1.2745807939459177 4.7606057157958075 9.007819449098351 -0.7258111095770984 1.4764104818424701 0.40963638318618484
P 6.905501586182288 1.108371116911908 8.736742227633531 0.1021059627338306 -0.36812283732343054 0.08308339888474078
Ni 4.806283483153356 6.560563617258524 0.22188118064487555 -0.054409942209448225 0.8281068197242318 0.5569379686200473
