# total energy = -381172.43179602124 ev
CRYSTAL
PRIMVEC
9.24628383701252 0.00000000000000 0.00000000000000
0.00000000000000 9.24628383701252 0.00000000000000
0.00000000000000 0.00000000000000 13.53287102416185
PRIMCOORD
 96 1
Ni 0.15752986049613724 0.9875308409628955 11.034973616235792 -0.27277116259429796 0.4437410381793777 1.6346335992848429
Ni 9.026277652622346 8.855961106359258 0.301115400502624 -0.16361729187475046 -1.0290981813720663 0.27803369654481797
Ni 5.45526116788764 6.2972832418286995 12.281270028971985 -0.22897396290368952 0.4032937287976086 -0.3499759912110747
Ni 0.6712090022417984 1.3057324491658213 4.840491481519342 0.08088356301994457 0.07502067648126434 -0.00850135260279181
Ni 2.206033849442182 6.720966454796516 4.609999196128414 -0.009416665328209587 -0.6432681565768599 0.35751729389344233
Ni 7.206405596781226 9.014692059111615 7.977288612978587 0.5061705082591927 0.28371377764873074 0.08385730093628783
Ni 6.981859596455543 9.039222449841038 4.606697348209275 0.5093638183855099 -0.2937554781554489 -0.6730248190140022
Ni 2.6062592405929825 0.3475502373828208 10.821276280607746 -0.4146672607418729 0.4680801291453745 1.2456089788117386
Ni 4.925402878875357 8.577435301631626 9.87310871873015 0.5169205476868453 -0.5023930434946315 0.5085333520644145
Ni 8.785670857461756 1.8277961209957043 8.912261727976844 -1.1977386374930212 0.73013313399122 0.5819290913477463
Ni -0.02193865740056611 3.790458536442733 2.29368584529507 1.3251424555616922 -1.174928324466725 1.9533997405520167
Ni 7.721183197033731 2.755512752524511 4.5593462046116695 0.613736208556014 0.2325951045960446 0.6554294745297422
Ni 3.6804185138001158 0.8668354009525487 1.682771859241197 1.3101837773693308 -1.6784518820213739 1.430620677201865
Ni 5.962577017171941 1.961173763766879 3.318449621572417 0.7013272655031211 0.04965237291980481 -2.036460770839254
Ni 6.382247343001962 8.988266180218027 12.300784310779164 0.030614382451747274 -0.9089829265450087 -0.7443765312841116
Ni 5.021527244507879 9.245562517507002 7.3134479742393435 0.33534898532651924 0.602221265937879 0.9790179768862236
Ni 8.80331276681409 3.131688559699726 0.13474424350611952 -0.5450792695092483 -0.1893704895794545 -0.49519164065018595
Ni 3.505377116552206 7.741451050964713 11.853387153935074 1.0890629919614727 -0.3644083645863208 1.970479578852439
Ni 8.302765197218418 1.5589974067495471 2.6159983512433036 0.4429907902769145 -0.3989729899350677 -0.437905148223891
Ni 2.2052386690416053 3.932684872741257 0.29793190501519834 0.01510934483761269 -0.09799656855114736 0.8575642057534004
Ni 7.716190203820807 5.046177836925762 5.407910948918406 0.29128593356903376 0.15153387834765514 0.2923853372807997
Ni 0.9559732746004678 7.877269712639984 11.671992635137904 -0.6390767442033316 0.12001652446566426 1.4121275034936842
Ni 5.475778671479268 1.3446223185242656 5.425869081174224 0.14311788636981804 -0.5316272577694005 1.5097106386564967
Ni 6.640403584677609 4.319641846742897 12.974747780943426 -0.16796091355542686 0.6117909119041851 -0.7575848024442695
P 6.207122729200503 3.096321524441511 9.582301075327097 0.725236468020551 0.1640932030699045 -0.193110416237861
Ni 0.6352853407031801 0.6345881709101163 7.265906357196948 -0.0030971508680849883 0.0828165183765993 -0.32334064801173346
P 7.771427502809715 8.017129000304232 9.965660320330313 -0.9416711608066493 0.3397414579672601 0.501322179027956
Ni -0.19925741433059369 6.212615021734719 10.056493037785508 0.4255201442959769 -0.3145335912430648 0.6446964043829542
P 0.7804335026596377 6.808538007980974 0.15169545546399782 -0.010450248799046519 -0.34043308471764594 -0.07445117713103952
P 0.5546272338618777 6.021512829651903 5.981880483710129 0.04320018953655786 -0.24978138656734403 0.8955183163996706
P 7.917121195506103 1.0145299894475976 6.257072078525575 0.8947618978496202 -0.7686289760735731 -1.1662212836110304
Ni 7.7739517382673595 2.9217701802311655 11.169151987177779 1.567783631539829 0.564485441950002 -0.17507515600270493
Ni 1.5215961890712522 6.271652543335688 8.228161556961973 -0.08275326923883167 -1.4010658463628838 -1.2877177350563307
Ni 5.995262630149139 2.081957968101011 12.225121971035904 -1.2638463277553718 0.5729006625968908 0.784448716714649
Ni 3.2695229112276216 4.511909070575397 4.549643154467887 -0.5946203136621694 -0.5904183597656799 1.7150957584966526
Ni 8.563066576718876 8.377863513654292 2.814647360104619 -0.573620828592367 0.17072330679191242 -0.9952436947164666
Ni 7.032261089054896 6.795232605696903 3.3885364522279113 0.6085495221487519 0.13183434303619876 -0.8517792236405073
Ni 4.266484961592708 4.535690512322881 8.435593610736172 1.0923321496310479 0.08588204467580048 1.0177537028935246
Ni 3.1261870208817815 0.5559892114549588 6.1041505658392925 0.01793087344680783 1.035655779984926 -0.42047204034910807
Ni 2.004215214519033 3.9023940472495156 7.453891627035179 -0.1740631697984228 1.67763658520893 1.7827111436527816
Ni 3.886961999708088 6.803480290781955 2.865869922698986 1.215313927372623 1.1602493822983115 -0.2954606337720137
Ni 7.739943906717108 6.983773577187165 12.235122751515716 -1.1086532553885746 2.5521564449800627 -0.9949991828058283
Ni 5.505440749677529 3.7269643060850446 5.494711362039978 0.4949599842553541 0.288327108051026 -1.4924559653411074
Ni 4.530179727221209 2.763205660585906 0.7349861688815527 0.18506106357082322 0.883358283998369 -0.38101023480905993
Ni 8.37587556265285 5.476721792419486 1.1915547145550864 -0.9972560971608052 2.097360177427788 -0.315285896028057
Ni 6.643057268107441 7.153701779533692 6.140742733691419 0.3662569877592854 0.6253941045099165 0.7131954776956169
Ni 2.314964318037483 8.769286442696382 0.43131047241474574 -0.10660282216291964 -1.5945354457123766 -0.556957251893757
Ni 1.151467451453913 1.4339044341983358 0.10643489661721099 0.7532982592537737 1.6359132373282148 -0.3074908254636704
Ni 4.271820067303555 0.6038923581911045 12.932998960656397 -1.175484454080511 1.487017825044671 -1.0852562166208728
Ni 3.664163547006929 7.428760227863459 7.926676305110243 0.1785176060253506 0.2493278439696932 2.0428476482022044
Ni 4.185376560733869 2.632916276579762 6.955855348099935 -0.5724401780207045 -0.2712063892103394 1.1328465648053265
Ni 5.383694931835723 5.6764230283690065 1.2307053291146501 0.9683350432510807 0.025271887192911315 -0.9788143455158497
Ni 2.30487662249063 2.49095808250934 2.2858375996670506 -1.403905629804524 1.5325980847776317 -0.17283058294290235
Ni 3.0028878273737316 6.3297007125777975 0.6023047712750691 -0.3161294749752749 -0.8070397146412875 0.3276451889243583
Ni 6.279678317611277 6.542171066355185 8.564331468332817 -0.5776281499795471 0.6699150697404269 0.8227890070557442
Ni 1.1884156012295535 0.36029161635950563 2.5992181955343865 -0.24252984721125326 2.234024851973094 -1.0654366107917845
P 4.918634599186727 9.232793399679135 3.6807652494399026 1.2452050585051004 0.5901499365956416 -0.34158391049263753
Ni 9.05533872237831 3.0056154810733853 6.77431196413475 0.5650210027384979 -0.1443746415950546 -0.7431205473898234
P 4.422608462333871 5.925453188005475 10.227358813302017 0.2253152831051797 0.2673456207033525 0.5637884158829775
Ni 1.5388774933582072 7.468583971878395 2.375708703614572 -0.3661981094968919 -1.9765923766183962 -0.6490724219634628
P 2.2304255459156903 2.4706902285783574 6.072158424141666 -1.1314234592055548 -0.7214967984724607 -2.2534032564997064
P 3.2773545135449313 0.19960784848387117 8.831511158298266 -0.1393118823601665 0.6207077547778407 -1.3174232325405633
P 5.9647498938479355 5.093222928531983 7.023370787250773 0.367118050208 0.3824366828429413 -0.27747962381356084
Ni 2.004908685798606 5.647287988343219 12.091552005563196 -0.1430512947979407 0.20795056657448702 -0.46969632459255883
Ni 6.811774207285647 7.874477334954237 0.8414127438434088 1.807737747604106 -1.1096526431873666 0.9959913715157686
Ni 4.389636214561115 2.1107693881963305 10.137311105335298 -0.4056426886457595 -0.6137238672608397 -0.08873956872925363
Ni 5.349631622583105 6.012137097952078 4.570713585826427 -0.788461694528784 -1.5628460850288954 0.5394596093296257
Ni 4.634209665440862 4.25320729815982 2.8960618129548417 1.9718990849077846 -0.8418838189036663 -1.4239877452663798
Ni 6.9027761317330585 3.364112393761356 1.4610089903175332 -0.7674789216295299 -0.19358864142586016 1.0296481403382656
Ni 1.8359790820946638 1.962727139433122 9.2505971189967 0.5427976725639233 0.17460927210987992 -0.5158378561456278
Ni 8.664563033197156 7.13851938165291 7.876902635175997 -0.3445486495479163 -0.3803800574242288 -1.616172821476494
Ni 2.9131526437970074 8.899880954065537 3.87080689277916 -0.49431386603092287 0.19155978392128944 0.6859554110327413
Ni 3.8848168618832766 2.279856178723642 3.9389584762504595 -2.1102349765079267 -0.8040878311018153 1.3470564820259638
Ni 8.814315844449977 5.23410855369 12.409290374951365 1.629982987886709 -2.111093210743164 -0.13113551719696126
Ni 0.14735524988224466 5.873738723116796 3.7015379504624133 -0.895195128732297 0.29365494802184267 -1.7144951487981763
Ni 9.129188790510954 7.824926500457827 5.003061491275414 -0.2390064074390271 0.9423759001831576 0.8353259631804903
Ni 6.9175701856972776 5.076376199580227 10.513579375347788 -1.3467338085792226 0.26533039004553655 0.9143354491061737
Ni 6.8299893862290935 2.3867617111825896 7.357917051199044 -1.744946780419814 0.5641123748812994 0.8710239308027321
Ni 0.9533010986031805 3.437065572372418 11.824548919616944 0.44413441696305445 -0.7801683441717402 -1.7400925376513063
Ni 2.898691456046982 3.997750971332644 10.312020560997386 -1.8534311358761628 0.601721443483325 -1.1184165054229254
Ni 6.707642559944991 0.9617706944976967 10.153252623110118 0.4073244472235566 -0.37944366165288845 -0.3297678916943159
Ni 2.443487661851647 7.024734614100599 10.094357494278558 0.5613474105416525 -0.41351566363593295 -1.0104682249757049
Ni 4.24295316950587 4.25692430421833 12.07002203390339 0.6302982266797531 -0.2927352644210507 1.3227055639854253
Ni 1.8559048235277233 8.069536936472483 6.548664731417106 -1.0711783983715681 -1.813174345238645 0.2219746487677209
Ni 4.2440072458508205 7.63953851171869 5.723443155009163 0.31831696954489697 1.550338182369872 -1.5362727054157412
Ni 4.721781218625319 7.888060125750138 0.3884262084859618 -1.1759228271695101 0.12712459626535527 0.9041919329142686
Ni 1.03029490320322 4.116177373316228 4.855702542879678 -0.518047719312753 -1.170235546976746 0.8128439800278905
Ni 7.857112814113734 4.293105012444577 8.438461807948485 0.23133423560574998 0.44569507658195506 0.025563193181085003
P 7.764224647785885 1.2130014696613423 13.157360959935897 1.3107298796807878 0.9602427531612494 -0.9778699793247094
Ni 3.6475109900134535 5.645364761327871 6.532533664825868 -0.27881016969952627 -1.212364872046628 -0.3157414955082369
P 6.995266707860618 4.637954410350555 3.160223515911589 0.3718403953843338 0.0689706136324425 0.6255787097168968
Ni 6.380629243349626 0.9752517761725925 1.1752572148567522 -0.9583013131641626 -0.5817277739702175 -0.0331165800483107
P 2.8294552834944304 2.380095140614963 12.328973455979613 0.9664810207614773 -0.17927016792065903 -0.13568277024801148
P 0.6900723456745522 4.310182898489524 9.429731846050837 0.7020695429857844 -1.059015280646473 -0.10211290471236607
P 2.588016322798353 5.1670452578134425 2.6700493520299555 -1.733197610303686 -0.47947217303240003 -1.3976694190868253
Ni 0.55484544615785 8.61455913079809 9.43767532840125 0.5422214883454791 0.2789364108647454 -0.9513714188135486
