# total energy = -381162.9853920039 ev
CRYSTAL
PRIMVEC
9.30043779471789 0.00000000000000 0.00000000000000
0.00000000000000 9.30043779471789 0.00000000000000
0.00000000000000 0.00000000000000 13.61213081522886
PRIMCOORD
 96 1
Ni 0.10825523365134519 3.78596633820063 6.088419873799319 -0.8399909727563275 -0.08967133651490362 0.4176404844375839
Ni 4.752858432640496 6.613503980183246 8.670777519513658 -1.0645724630192763 0.9021278512963882 0.36074968478781094
Ni 4.870862384990902 6.309695885331545 0.24467405246248725 -2.0812049078241643 -1.4472433733602108 -0.37311360566980256
Ni 0.8602356060130661 8.283825372547978 11.128747392504538 0.1580804212169213 0.44446480371927966 -0.20412399373954523
Ni 2.5942733663757003 7.482257857000045 9.630283206406496 0.8966524300041138 1.437052548870138 0.06427886458372802
Ni 0.8780264131104096 5.132465093984617 2.8596362422936954 0.525995770515236 0.03121499215022366 0.2621003131440131
Ni 4.569407300853628 8.021078709728672 1.5981732476328356 -0.840485653004559 0.9510495166977557 1.7758666099271223
Ni 3.592861352178286 0.36995838737120906 6.014519526622372 0.41131145689576254 -0.8357735922408703 -2.34802165260724
Ni 2.2866799934181805 7.168535495659885 2.874092842509133 -1.5682322890414733 -1.0109017129686977 -1.5589912300591797
Ni 0.37942530281079606 4.3402259173559345 13.564978422634141 0.6818051363097936 0.5254854065377208 0.7640305580696132
Ni 9.034445090887878 6.689079336173112 9.566183660379208 -0.3903770207359406 1.5125529932012982 -0.8737372159688371
Ni 8.780710552109205 7.996516254010086 6.495408883544297 -0.07749407772242137 0.601721443483325 -0.13864853774455477
Ni 6.760395091739232 5.192945839739243 9.123966453068586 0.726312217583233 -1.5297963536627783 -0.49883515094004416
Ni 1.4485710585145766 5.887270009247411 10.713917183813576 0.9614311170423957 -1.8020409543296447 0.7406039516155568
Ni 3.959670611375957 7.118889759716753 6.314163815557675 0.7699618359523837 1.5766439101439362 0.30055064670041143
Ni 8.664808498657852 0.6129788220272727 11.882995211554707 -0.5633760109359071 0.9886958662956199 -1.6236411048290813
Ni 8.39277069866972 5.249845917015393 11.160218213277181 -0.7059107711087456 0.7256149344058923 -0.38246933585308973
Ni 2.8199019827077367 3.155889591677693 9.565353131300954 -1.7718307492948515 1.8902141090324673 0.32572508908351
Ni 6.942153543881728 3.282645255815752 6.267746261507734 -0.9807933236190914 -1.2350998517502987 2.264362069504055
Ni 5.928340741717415 0.11574115588076217 9.976180431646107 1.0500099918240693 -0.4183665639703311 -0.2572185595716796
Ni 3.3126763688469203 0.9205266228405211 2.7068812048268556 -0.22942107774343715 -0.2094991420085295 -0.20078695894651227
Ni 7.708193387773092 1.0136081925369727 7.800812725720505 0.6159802673951843 -0.35628882080297997 0.061953815994977166
Ni 8.516261909207923 1.6930237605620306 5.287740550042799 -0.13800473351296877 -1.0344360486452118 1.701705710342992
Ni 1.3813009933072553 1.0250012286048518 4.282131663891119 0.49351682405092423 0.7549759040665127 0.5174784770728442
P 7.065858664484878 8.882559644337238 1.60757878018422 1.1865900770753692 -0.5567191677410219 0.13543851544768934
Ni 8.606941175870633 5.8910273860404105 7.541297034925673 -1.4643664061937427 -0.6494190066696041 -1.5993593494635812
P 2.2338070056256156 2.920309507106775 -0.10833893758980309 -0.5636871144184228 0.6883411376560984 0.20450117457330588
Ni 5.300700709847363 1.16038769884168 3.8349182614983235 0.05117575154286671 -0.14433196128257722 0.5240558731800458
P 3.959112585119571 8.634535574248916 8.10155911651217 2.6244337543882352 -3.620467806216481 0.11217234583089714
P 4.282070281002916 5.594455031646512 2.3861928157194803 -1.63452021363543 1.2565135415393844 -0.5870286173578406
P 0.9047019282531774 0.49543617138214474 6.482668214067247 -0.11257420925500612 0.3357922435115249 -0.7551391691172543
Ni 2.7753900883233538 0.8234440048857824 7.991327539869458 -3.6689582976177006 3.4229718593164145 0.010749268096704068
Ni 8.972280965926487 1.9200846442854573 9.89743455647621 -1.8058325601615934 0.36794954497035987 1.8297186227505713
Ni 0.1340723184030393 6.962326193050079 1.574583617687882 -0.10595464705595946 0.06598761974471862 -0.2692569787934524
Ni 6.214757018245089 9.1101041508162 5.607149198935531 0.1269423050512201 -0.5883627627882319 0.4700323677757388
Ni 2.094644557720576 7.8946857626572635 0.29598921695597485 -0.2663452044632962 -1.184193808929051 -0.2603303657277839
Ni 0.9045382405513042 3.557435985335387 11.277826897029316 1.8514783830251662 -0.5902540662736737 -0.4547900969046877
Ni 6.800275368195611 7.591910016379876 7.789024421054353 -1.1120203720885944 0.43084489894299993 0.6899699315087731
Ni 6.4742857296525695 7.160602222381599 10.295371450298846 1.3417345555924183 -0.26812517918185436 0.26493521148964694
Ni 4.4364854465825045 6.80520460012702 11.245320937551075 -0.21971387775800222 -0.024819115926208873 -0.26125904818964035
Ni 0.19880429418756548 8.248697619708485 4.3230359185279665 0.3814594065313366 0.828687117707734 -0.9721032520442613
Ni 5.418118734628565 1.1345324822957994 7.834434737711516 0.36288550018389115 -2.716682878932644 -1.2355451668178334
Ni 0.13183742324621373 5.883838147770638 5.022372093862241 4.296531154946491 0.8594395683992424 1.5845726780727096
Ni 3.408740588883755 0.3586537054605913 0.3577143612623416 2.588360405704446 0.9211588997859104 1.976710647363815
Ni 5.449265900172504 8.27136278615536 13.109951722608184 0.2555280592431341 2.7545667984626108 -1.2612538844378474
Ni 8.96268291431665 9.004795295798573 0.2087315812886708 -0.5941636857407252 -0.7634708289114013 1.6508055810590152
Ni 5.245921132345479 5.096584005699003 6.987841943623325 0.24304715316730396 -0.6614435419343059 -0.10936650095098585
Ni 3.9127406032139023 7.991680026454741 3.9464695702373875 1.1194488033421819 1.5544398632430714 2.0876930866516688
Ni 0.7406552294883689 1.994209132008719 8.050717344292849 0.763530221394427 1.3426025600196683 -1.4918468710021984
Ni 1.956458655764212 6.955099753029882 7.477020780583863 -1.088201929512758 -0.32048466662017705 -0.6359191724109564
Ni 8.056048355128857 6.666972195982623 3.5882120634188306 -1.0835731724914952 0.018717631014161313 -2.3472374661430475
Ni 7.2881205224033865 1.792622146889309 13.50256690603242 -0.816106452829246 -1.1696855880105468 -0.7373774742584591
Ni 5.691960819512343 4.2319130209914295 0.7210880388081969 2.2744603342803216 -0.06503862556788799 -0.5527303582966029
Ni 8.348993538856245 0.8443830101129031 3.1883425386615762 -0.11164372702093675 -1.466024767732772 -1.2155823505426615
Ni 0.7642495096521258 8.769838340547286 8.486101520094024 -0.7643074658800837 0.6551983323555426 0.85482006734936
Ni 4.557558543343034 3.006347855403875 8.182959336574942 -0.2543165554335362 2.9800756856358355 1.094226024219651
P 5.385046378500093 1.1479251124490613 11.732458328457001 -0.5147554217147263 0.6171349498249178 0.9028153642817162
Ni 3.534696415387661 3.775717255958342 4.0929365818385195 1.965533290590757 0.0012755242783139323 -0.05031828863857785
P 7.591640303689289 5.052276720941962 13.172254424089909 -0.6890739020570649 1.2410079897046176 1.1027726282380814
Ni 4.357208516425279 2.514773225715921 13.435758142530378 0.9149355445840178 -1.4023894502703138 -2.506184863345955
P 1.5859199210863617 3.5544040426756904 4.4293873526012755 -1.9381777813959395 0.22022398462520135 -0.33853921012904276
P 1.9439867689339871 7.409733044545089 5.123537603926203 1.5081425228384284 -1.1184262756149383 0.6678101075822821
P 2.725102622185377 6.358402277076428 12.442767160079343 -1.37725254599337 0.9822454826845857 0.5267344484534735
Ni 6.349808672728085 2.7064831460973005 9.868331627118161 0.30564245940102197 -0.497665299001659 -0.4206985545376174
Ni 7.510261474633011 7.5819120459529605 12.396308684103934 0.699677388604524 -0.5069050724323722 -0.5836177919040788
Ni 3.4061271659163475 9.115349597626228 11.723243454876547 0.9332595397041863 -0.9113763664778499 -0.5603559931626607
Ni 1.0844775270979834 9.206317177854737 2.088563931613491 0.39148490908813866 0.5148765206736229 0.3060355810743826
Ni 1.880148565203439 1.039026288515351 10.393624063304474 -2.542697099339376 0.3348422208934298 0.2432896081954133
Ni 7.257150065173969 2.5285657746862595 2.083417999485852 -0.515504641175925 0.028626919708073278 0.03378275287739988
Ni 3.896111420773602 1.2648130122866965 9.795833785932265 3.6089639193419396 -0.20342593923125613 1.6366719698711103
Ni 7.530015604109072 5.020552928266423 5.086022428753139 -2.3718658062146893 -0.536021015961722 -0.7722727434737474
Ni 6.916289026898242 6.742129032280199 1.043530490448146 1.3978177717392313 -0.018052486626336652 0.48682578518399383
Ni 2.246343995519086 2.92683841430649 6.309427102684719 1.0301096533557161 -1.3398486514236152 1.2141371334557025
Ni 3.910024875432824 3.325390067054913 1.800816762464336 0.6228173449216757 0.24501121887221028 0.6425809007018481
Ni 2.602662361096702 5.2333004385135515 5.899333606866715 -0.2698336772325289 -0.044785788856122874 -0.39106941881727486
Ni 8.201646705857545 3.2723682722606453 12.144416562015094 -0.11464214752762837 -2.6055238048576097 -0.6746595264039478
Ni 8.047919772660833 4.551885276403111 1.9302407221516809 0.130435148695827 2.766205925363436 -1.716547660451831
Ni 4.001922499421977 4.71849331568473 12.496848274716983 -1.441485387830511 -1.6769089630142862 -0.47199669059096133
Ni 1.09965584127168 4.7371034913351995 8.025385742384211 1.193027605170597 -1.0946448569246245 1.0980541397164896
Ni 5.067092318049007 5.816000755869324 4.772943657695346 -0.9399539210052265 -0.21462874992561098 -1.5808535773499097
Ni 1.8358598813216105 2.8820940089819462 2.222193549186464 -0.9795838766920227 -0.2212791653625931 1.3582011857888738
Ni 6.010807721973645 3.9403257011545794 11.864346904110048 0.21148609053157127 0.4386952482253541 -0.4165943025612567
Ni 8.930428996697543 3.2722380661341552 3.547552410291032 0.1354367156754764 -0.7708007869139112 0.8744131589899392
Ni 1.6861042349828455 0.894329150190724 12.88669936808459 -2.6552895634268268 0.7363929988580027 -1.1533979065941167
Ni 0.22119044750624686 2.17885071980921 0.8876579462956304 -1.1863941590144793 -1.1379255219901305 -0.5102328512540244
Ni 0.41510736173163243 6.6492269610295525 12.687363088865936 -0.1560829311709183 -0.4039635011711236 1.1730863861619798
Ni 4.590677401659537 2.5127550307553257 6.058024183613979 0.7625467744352351 0.31598497897761063 -2.236533477327561
Ni 2.345533162591681 5.345993840990685 0.9360369626367674 0.7042056154921807 0.2030251042484116 -0.06356692611836794
P 6.580608332369298 6.783478777878395 5.856197247204323 0.4542061993767597 0.962209132859001 -0.5090735408386007
Ni 5.699559277036798 1.1180335059819893 1.4012327611415991 -2.74664317274016 -0.6862816840239084 -0.020902811590938195
P 6.677993214546245 2.768926284186884 4.213540006499923 0.6486911273646442 -1.076311091612443 0.6892708485592194
Ni 5.782714489675905 4.334134130723721 3.0860609760848425 1.4201465171434187 -0.2203268287516528 0.10157117327628315
P 8.120249275926055 3.312750772347772 8.214458058660407 0.1920254107037983 0.2696308171931034 0.4653635015451598
P 7.925488812009766 8.559732154580384 9.378771472215762 1.037593106216955 1.2227994371163908 0.4716922719766651
P 4.707211884868128 4.751974891067884 9.779403632856742 -0.16828307278153598 -1.1862488916858664 0.7575902017609082
Ni 6.1213620238013 7.749812846061874 3.3128521471176824 0.4986505457330637 0.7070929643423048 0.38298149960281785
