# total energy = -340891.26927079563 ev
CRYSTAL
PRIMVEC
9.07311451738330 0.00000000000000 0.00000000000000
0.00000000000000 9.07311451738330 0.00000000000000
0.00000000000000 0.00000000000000 13.27942022066178
PRIMCOORD
 96 1
Ni 6.333197390360921 1.9280368779196175 11.45918420406318 0.6862140640107667 0.9798520427517446 1.0366322849655825
Ni 4.858271861539212 0.22715722205486552 5.963588637962106 -1.0581832716634807 0.6221974519494897 0.9103800640028514
Ni 2.797123317568024 1.6795242657491785 4.794109516176463 -0.25510485566278646 -0.8428253568813291 0.2080608669001062
Ni 3.556016778946625 4.268963987385061 4.663294255460429 -0.15651693338454334 0.9236361576818093 -1.2302669491380296
Ni 5.3808741962747035 4.4762302200401 2.9399441236810615 -1.393004666621304 -1.1464451294253677 -0.531042331800208
Ni 7.180544647141113 5.775019372809791 2.579168955773271 1.1325981962399463 1.4586071351124623 -0.6979771180839657
Ni 4.835589074740158 4.565092305604074 11.147621610394618 0.4257235185560346 0.2739914081546443 0.4816642955877124
Ni 5.73282938936355 7.725548502119352 12.821479716001392 -1.1125165949987226 0.5440030057259341 0.09876352862415894
Ni 1.9436063427784884 6.540345672524604 0.5404046931268618 0.0008425505059533877 0.8400351957307017 -2.1842220695183543
Ni 2.7196116985182957 1.3238853880841652 0.3967355507875396 -0.3641216865838374 1.2332800249327407 -0.19728177400673122
Ni 0.662054293353134 0.07612161787468238 4.5457711078086405 -0.33572179528490564 -0.12399556371807033 0.27935241535624145
Ni 8.664370901502771 2.3669306562518795 1.2466078553942033 0.163628347618344 0.2351330405265499 0.27112565657107496
Ni 6.829814324539416 0.8474343586815013 4.891819703215013 1.5094481290237296 0.028330471513577014 -0.7171097251483585
Ni 0.4990222168906671 7.4505696143117754 2.335969559582642 -0.30624178354791776 0.3262333961784962 0.41159427824350403
Ni 7.698038818289459 3.9015028412403807 4.010876517251005 0.28461057843138726 -0.5263462118761193 -0.34067682529733584
Ni 7.687704540623809 3.8459300135826977 12.55614373451783 0.11264979968794792 -0.135593810078631 -0.7348079137590701
Ni 7.7279528775200514 8.918980646764796 7.2216277105915605 0.6515429949911424 -0.5512653437153022 -0.12874156304348797
Ni 6.799927484652982 0.8066924443445118 0.6205574958714721 0.2812390908559931 -0.28350294718950525 -1.749531571577019
Ni 1.8676643725752546 6.347941201780306 9.367236972176237 0.17562922873396203 0.8252487814501465 -0.2893586346393339
Ni 0.1065138302509993 4.874784930328924 1.1195534007294523 -0.3662932403138595 -0.411988171247813 0.29534879078449777
Ni 6.660346687806322 2.0738509045786584 7.136506470226485 -0.5296184548694879 -1.350883826191854 -0.3219903046314261
Ni 3.337699492563087 4.333646222221245 0.279194256906312 0.27358208853136756 -0.4639259977676849 0.7157233863237932
Ni 5.90698782640669 5.9229020696249055 4.857014327839073 0.2514634022554572 -1.2640211627703393 -1.0001922969709935
Ni 5.2096463752860025 2.771301233075981 9.376545987878568 0.2768623019445361 -0.37686021719642837 -0.172983820691315
P 9.414989682257076 5.6045083278839405 12.220453006875376 -0.9948791122881963 1.332278295275525 2.2602681019403397
P 3.9721370393326363 6.273078932228707 12.596618899282063 0.1849474208110944 -0.5324867775562184 0.17255084691895445
P 2.223793198435127 8.54376198753484 1.5040402466455025 1.19187780783687 -0.4579376413947339 -0.2812863991541607
P 6.4435899771545575 7.83591386956883 5.76450363284975 -0.34540816933473417 0.7503947124537335 0.15643800051749185
P 4.690110753325744 0.840987003361738 12.664238101352987 0.6326196757240783 0.5925911990472826 0.2524368219123201
P 3.8513648092997514 6.32960443693195 8.063636346670728 0.4849002860265068 -0.8130854066147352 0.8297970629424611
P 4.7160054227355435 1.1556426218382199 3.895106295363048 0.043364740138880156 -0.4952155519095859 -1.196810726362113
P 0.16514066832330707 5.748471439140179 3.6247238474724326 -0.3117277463631534 -1.2364805341479093 0.7089346455367339
Ni 1.4993322074174908 1.273384431554751 2.4829331498766596 -0.8067023859065268 0.22350239826615703 0.8390586907500454
Ni 1.9693558423527748 6.332997781837088 4.76565169185837 -0.40923271998986294 -0.3388508278321906 -0.42749860817858637
Ni 5.909564590987062 5.81126646611468 9.11405170592519 1.325340430505111 -3.534852384938506 0.43140642787342476
Ni 8.697923279735932 2.3835888948771053 10.288602698839101 0.054152574783003504 0.8187919700812093 -0.07111465655863881
Ni 2.1068498228139227 5.555613312659899 7.032302654983102 -0.018068684576252752 -0.9526394868926948 -0.023922315143552347
Ni 0.8793680932486819 8.815928209779333 8.862711911208118 -0.23404314989648078 -0.4151796816019172 0.15216174173964114
Ni 1.4358476237242976 1.0138752043441301 11.505488845034769 0.12760333567398668 0.36219850141919563 -0.6074622026218441
Ni 4.37643503123898 6.856380404438469 1.6352946461139666 -0.3154532748438567 0.6769578355198212 -0.539724175844922
Ni 5.711861421246505 7.680518633765868 8.050755245703282 -0.9155286980833265 3.036703975652841 -0.6540904440033445
Ni 5.207178488082266 2.7164724008253067 5.296510560988717 0.38162190025112985 0.37306218360657684 -0.532297801473864
Ni 0.46732619792914054 7.321876555128661 6.321800650961604 -0.5628887868868436 0.2148660627473977 0.8149990786976802
Ni 4.808841532546713 4.7801341975738305 6.596923801293221 -0.020915152886112363 0.1413286556798792 1.9690916973659764
Ni 8.380754408482115 6.999254741928351 9.467841482810345 -0.8143691584231653 1.0485717167156459 -0.33620799089270487
Ni 4.837585159978475 0.391807942183313 10.49678440876935 -0.47306446973384336 -1.3971251165475809 -0.36091372116950104
Ni 7.937070025577892 7.554157365065697 4.2593610027658135 0.11522630216587251 -0.5640468117506867 -0.09252886056835678
Ni 7.074715837051445 6.179135902421744 6.858501698659916 2.103145673761314 -1.2435104444114973 1.391379215202739
Ni 2.125576731595222 5.48291044441157 2.488656470641797 0.7862757426210587 -1.019845809535863 0.8696977557921409
Ni 2.3127641613757377 5.262188782627333 11.530002586384244 0.4185110599679953 -0.23456354117632508 -1.0561266462447683
Ni 1.3421677142442032 3.441976800035699 3.771621204028996 -1.1199997907496453 0.25842903494001296 0.3288386950118272
Ni 3.4927318037772634 2.7046047667720416 2.552662758431368 0.6016165424743445 0.38289819586039214 -0.2633105314020304
Ni 1.0583153202408373 3.3249517663820183 8.067699287442174 -0.18275838357957555 1.1673402277068219 1.0380538479034573
Ni 3.8416747227791954 2.6465821981400603 7.3957870549461715 1.5355111446593683 -0.06164348384340997 -0.6067590059072324
Ni 3.9079991913796306 7.083888756032983 5.963310093340214 0.4975735106188012 -0.18567992810174472 -0.3249249617797178
Ni 0.8286920256051787 7.781574985513015 11.309245539452599 0.5069289836917721 -1.4833753431960777 0.07027776247964027
P 0.01680975964104318 5.569150399821575 8.013824946860005 0.996815924299593 0.5596779932590297 -0.714437320522518
P 8.833130835287735 1.4620961446081633 8.256718579084582 -0.22223510151795917 0.6234269534812167 -0.8378885817013442
P 1.7395066271605977 3.1347883549734665 10.33877248668125 1.02684589500278 0.5466538130852199 0.11255441176066422
P 4.029279515836814 6.218758194402332 3.643713876580601 -1.1024594678730368 -0.8034594534891969 0.705083904332076
P 6.827437168482875 3.901067331733839 10.210015008383627 0.285517920737005 0.8769834908202766 1.0316078351677975
P 6.46895840591062 7.692613095687125 10.418953416081493 -0.2229138727525387 1.096651602942008 -0.6252244117012716
P 2.292140971618038 8.621346191502324 5.9061812265081155 -0.4052647364810505 0.041070287677748625 -0.196013705927585
P 6.970783307938179 3.7903390396955756 1.3700376007284651 -0.12520295376261018 0.811197702673719 0.746301002000334
Ni 5.223827653592772 2.6935446399288225 0.5561565275915971 -0.763030656050189 0.8694789549131156 -0.34518216936685714
Ni 2.029047864093166 1.3482557742210695 7.31520781580974 -1.632318063777789 -1.1013924600611034 -1.893742691011016
Ni 7.166426880637382 0.6354755110934742 9.61029029121988 -0.25300015061495784 -1.014653466701646 -0.9884680665555299
Ni 2.977741812291534 1.5347445741681744 9.410062980964321 -0.07261155281913946 0.47591042382307075 0.5558789312279137
Ni 6.35623402863404 2.054879021699929 2.620852659418157 -0.18590309985614434 0.8710334438844289 1.139046522968451
Ni 4.394309067236635 6.9172610042071305 10.343101269713983 -1.926032147172341 1.0217106306587436 0.9761828214302737
Ni 8.130717513038778 6.817774301306478 0.45064799845153186 -0.4736324264221714 1.0188690474448905 -0.5327217763851599
Ni 7.60014898357946 3.8739750111810487 8.006747010067228 1.2868430457608613 1.2367445864425732 1.8865379457324605
Ni 3.095084404960402 8.369875743933289 12.4487797534176 0.4290587535768547 -0.7873342657925602 -0.5915159637052329
Ni -0.038729497492177314 4.864695626760705 10.338600097501578 -0.0949968624928751 -1.165302628451503 -1.3843097099504675
Ni 9.1170285948647 2.2477462212949284 6.074378627180463 -0.6963218418687298 -0.5274936952170013 -0.5474876218404249
Ni 3.65040439137485 2.5812194796999055 11.7480376989 -0.4371618422999632 0.0705382152298785 -0.674418099817103
Ni 1.1090158852940837 3.2300288401853354 12.522692975169527 0.017228705173460652 0.28174354129623735 0.03204674402289965
Ni 3.244600262425048 8.542119753770587 7.892345013878989 0.9519211206694317 -0.8400231115458435 0.9017732961704469
Ni 5.409336557150158 7.92179090039005 3.7168431812207516 0.025063884947163287 1.644931381666425 -0.6703912380458971
Ni 2.826665379095113 8.343155421084003 3.667789386489117 1.1688517792553417 0.23516312243353696 -0.5136596175473863
Ni 3.3145721231427707 4.2480595310710525 8.978654522275749 -0.20062472233703513 0.8404735688197008 0.8659236334616893
Ni 7.04031965914936 6.043837615722745 11.563320878257638 0.8006978315836598 -0.9961168413500392 -0.38916088894065237
Ni 0.44630288381230504 9.145971830820292 0.431456546196588 -0.6864673176721533 -0.23112186248462774 -0.48402636806198573
Ni 4.641206664986982 0.4576324821626967 1.5871699383296207 -0.3630014569364652 -1.096169006878635 1.2828804615686875
Ni 5.820257922801826 5.374640966462324 0.3123456034688659 -0.08872337077933752 -0.6694486716269696 0.2331944287429403
Ni 7.781520546824698 8.592765880135516 12.026082392171336 0.24996110667831792 0.5413920504656482 -1.0552270172486344
Ni 0.14936705838324468 4.65397253739749 5.811074116082625 -0.13056370385389127 0.7774895117879965 0.17458253263700255
Ni 7.9108940896117845 9.35302030872206 2.592368523067377 1.419685775456916 -0.6855214088191162 0.3810341460684599
P 8.711786999027515 1.8796862495787534 3.8475922081993326 -0.21715794410536793 0.31778269430798173 0.040119236618388975
P 1.6243052895655605 3.406401117220063 1.4724358661426442 1.4758044728273552 -0.8559523811815903 0.27117347908987494
P 5.189150209134378 0.8521605441389524 8.197611773243606 -0.3574332188200683 0.22198544740099835 0.17244131792428366
P 8.447723068227644 1.6477139255421844 12.371506757285 -0.17775141728328742 -0.7912132891319922 0.587337406847511
P 6.540000894165258 7.876624935315773 1.7133107303421058 -0.2670828539602691 -0.5204056780219682 -0.43937916166625623
P 2.279892266746548 3.3692920780168096 6.067486689239438 -1.724521679796243 0.45117229764644234 0.9240002258894473
P 6.861034912289634 4.065336073732591 6.021858902625932 -0.3643538571993015 0.33728374045538684 -0.8080108203053054
P 2.676641427206167 8.578130946092767 10.112292118984469 -0.7584183540891584 -0.9100471061434651 1.3486899038643287
