# total energy = -340891.8432192906 ev
CRYSTAL
PRIMVEC
9.08585296025814 0.00000000000000 0.00000000000000
0.00000000000000 9.08585296025814 0.00000000000000
0.00000000000000 0.00000000000000 13.29806421943158
PRIMCOORD
 96 1
Ni 6.235103070636346 1.9395388838685412 11.225814064439552 -0.20390030776451334 0.26294312076028264 1.7673984245551109
Ni 4.757361755075478 0.2909617244807307 6.085433630129152 -0.015411192348747655 -0.8948382596135105 -0.8867986771384856
Ni 2.8389020503371807 1.503245305137849 4.796678058494613 -0.9075359096858371 -0.0420197960752115 2.009957325232087
Ni 3.562572075925848 4.526335768978614 5.036589100311937 0.020319171173326298 -1.4912832851892446 0.2508082851699616
Ni 5.188785316558839 4.46430665004664 2.8829938781316855 -0.6572205049918939 -0.1304750007948269 -0.7804637639249721
Ni 7.160188287155727 6.23393099558988 2.6250774012788423 1.5397796901277352 -1.4873767510459868 -0.3055527279006931
Ni 4.779222317570033 4.57117445389575 11.386919868210212 1.5880439244507618 0.17821293030073823 -0.03783738256274774
Ni 5.628022711685306 7.743572741291389 12.416961225092063 -0.0008273809973018009 0.328186406139809 0.4448581825029564
Ni 1.8120280218367095 6.5047711898543 0.13459873601437666 1.0669355639348141 0.8404203469842622 0.403510215683789
Ni 2.6604013808575337 1.529757824405975 0.3440939760832494 -0.35132659170169817 0.4481803048976539 -0.8104474547712559
Ni 0.7074972071180485 0.28367941324241563 4.72138450266081 -1.1532158724902977 0.3013998820745842 -1.0147234007076331
Ni 8.603748623454536 2.5264304772905275 1.4081055204358595 0.11138944491828559 0.18060765578515994 0.3525697200801799
Ni 7.093670756805504 0.7536079114654582 4.821133540626926 -0.748358141639679 -0.02805819168879684 -0.8605040051080148
Ni 0.9306548444533647 7.497436981533492 2.7164356539316907 0.0837760540763912 0.3033372083066131 -0.7400190256463642
Ni 7.63576909457572 3.962431383832282 4.005350227995013 0.773605603352558 -0.15969970198789915 -1.2108183534951147
Ni 7.581363006372314 3.7308511606979415 12.642190436928109 -0.33029059696700536 -0.13334100948871228 0.07959081235045003
Ni 7.8840218580997155 8.916447342828024 6.877506500580769 1.124980017573056 0.3844799385252152 1.2227421015158941
Ni 6.626458020066095 0.8721855627555418 0.36384843783539483 0.5530234640569895 -0.6431419154116408 -0.26742532490135235
Ni 1.7342894629408596 6.404790462634813 9.182313032534768 1.5048952195457244 0.2784129342611076 1.195991058674295
Ni 9.300279205913013 5.07851031780721 1.2255616463385575 -1.8700435476218633 -0.6897429030996315 0.6855977705830063
Ni 6.461913220907161 2.0927899676572626 6.951483516304239 0.2341573068768419 -0.9854727313726318 1.2822299724688822
Ni 3.3778385112378615 4.446271231695979 0.3554231262804484 0.679306538257656 -0.21405307992779912 -0.45815515672217866
Ni 6.004813038638425 5.710713060506149 4.723047213773239 0.4735362671639393 0.43563974922848203 1.3442683777578655
Ni 5.117288738724402 2.920529354348438 9.380933415060111 0.5969551324429332 -0.9597087350346505 -0.40410491184499436
P 0.10258473271031796 5.681483871169081 12.345869876304699 0.438417054863303 0.2725420773026274 0.43040626874368454
P 3.985091501397295 6.259816590995943 12.532614140277824 -0.4399134369031714 0.0016318791764681573 0.2803929408056139
P 2.5037794455785884 8.547107415395077 1.3726261727696132 -0.45050972436177894 -0.3735625202817631 -0.5149297425090615
P 6.332957708236662 7.759264009549119 5.897411895213908 -0.2689731290044464 -0.21700856301169721 -1.1841734972140765
P 4.599031679418737 0.9346798773648725 12.64220406570772 1.3188149706817673 0.8531609344793822 0.4160446007053738
P 4.0658465635135075 5.9586932484379425 8.2242943243803 -0.6196116935001845 0.1807207843242565 -0.0466521526409003
P 4.722880942661996 1.086177391510431 3.9168122241361423 1.6941386966290113 -1.6102343445048717 -1.0637977896367807
P 0.04887734660825425 5.740750890766747 3.625890477408934 0.5417841436977443 -0.60462267629052 0.23783115618400333
Ni 1.479367683261003 1.2573912068252266 2.477136998611513 -0.5561131587259067 -0.3516559500166589 0.265081250149208
Ni 1.9864400574333352 6.5451123775001125 4.834910419642094 -0.26171027679444603 0.027323884625933586 -0.7267102243526001
Ni 6.1959793873023665 5.762020872811533 9.288604793299024 -0.42703632383018714 0.4610975271799542 -0.3567991847804952
Ni 8.437986319983768 2.3323748273492515 10.463449207781968 1.2272680144107055 -0.3600369749915025 -0.09424995702452155
Ni 2.196005258570873 5.367113354830091 7.042774533644344 1.6746803307940836 -0.7424325201838634 0.6917157105552861
Ni 0.5228145232072725 -0.012538477241266078 9.335600459735783 -0.38172011639189096 0.753203128436806 -1.2223286681275596
Ni 1.3930611649169549 0.9134825821446741 11.396760755673991 -0.276900097161007 2.6510395299012215 0.5361287451841799
Ni 4.039524847159922 6.710865595117807 1.6843726947410107 0.1888524122924554 0.8951182527477746 -0.4657820771398172
Ni 5.650728258515686 7.859399196270853 8.045594674718346 -0.7061984775524934 0.4497347938689674 0.36489713129728124
Ni 5.525361657809172 2.820584970541245 4.828115110128512 -0.761240911139618 0.8331893764534619 0.16452977638669083
Ni 0.9417668427621098 7.362984527753596 7.107443092894135 -1.1774945425320043 1.3211086518119506 -0.7833549694298381
Ni 5.310154141913065 4.395308681807383 7.488858119061605 -0.33538883742551917 -0.1167360539421796 -1.2754702851475455
Ni 8.555266511454972 7.077370736391858 9.598117103999678 -1.8804819693463677 -0.6316861081662153 -0.3492180299991276
Ni 4.709088617696604 0.07135029559995534 10.70085891424819 -0.33231611203746636 0.7954640939885462 -2.537671106879694
Ni 8.3770475034206 7.5584484849212465 4.876945210300785 -0.6633602993410447 -1.5312361714330982 -0.4106496549420476
Ni 7.4764032316686135 6.279323917544493 7.035965595351152 -0.29639445844019274 -0.749741909361083 -0.07465326583951659
Ni 2.153628839836623 5.324000981996898 2.3472947066810512 0.9670348363824183 -0.44868526955853055 1.7673719421925498
Ni 2.3757416040685 5.080391089393401 11.246438950916128 -0.2659235435448452 0.14896611762047893 0.7299616414103622
Ni 1.4743159489522029 3.4495258919868395 4.034380437149773 -0.9137782910511231 -0.015238671326625368 -0.06760998583949002
Ni 3.4952277329459465 2.566780750789414 2.9341517738613585 1.0679316092994962 1.8907409280702145 -1.5432825610746712
Ni 0.9630731682191886 3.2938579712805987 8.189440083405502 -0.699223331786241 0.2571925914297506 0.7542513671956623
Ni 3.885774041452165 2.4575233675820045 6.871801493435993 -0.12155892925211968 0.5247878662500639 0.5759042253099049
Ni 4.20236150594106 6.6617202158438875 6.0837445700428106 0.05321823589419222 1.2534948093177187 0.6059689059057692
Ni 0.9340347817966624 7.7489788238700505 11.422491891577806 -1.0580832557505069 -2.5479236378456376 0.41487886253204675
P 0.1214669525674188 5.510651661683368 8.08131388890573 0.42300174874949725 0.07704439177951249 0.3852695243060462
P 8.633541135682153 1.6071056916196695 8.172963797442234 -0.5116644414942285 0.1943172920617686 -0.8752114865215184
P 1.5982560707261961 3.034956587954601 10.589155619393427 0.85618352335579 -0.18276172601368523 -0.3919492503190669
P 3.956016771562475 6.197796557917043 3.807422187473862 0.21279349648908516 0.4142671970899769 -0.6640321285970886
P 6.930325290252256 4.017709713930733 10.424671695450085 -1.3756960001395275 -0.8263893228124929 0.6050487080843451
P 6.409615050616779 7.820539002676001 10.227355132840772 0.6176010908280589 -1.1151136663019379 0.03296771317527226
P 2.357024746737335 8.495545199203638 5.671664789752678 1.1595718966153126 -0.04871109205245804 1.418751436568105
P 6.895662760777307 4.000092244821447 1.5942782842506698 0.2812871704851091 0.5854378758319531 -0.395268544500287
Ni 5.348251123849752 2.985584062353847 0.31761870881272386 -0.6979166971596755 0.019502588809301894 -0.14848712110153137
Ni 1.3628597893010355 1.0654343889439015 6.894355306520048 0.20386534076151985 0.33952625663266045 1.1193295041554983
Ni 7.061016200859771 0.6849206794013109 9.312634148922196 -1.3684303197160497 -0.6706599183262514 -0.6779106863513937
Ni 2.681262499514017 1.4399441667756019 9.301796543376268 0.6338846584794309 0.47394532967689995 -0.22175353389585037
Ni 6.3248712990013525 2.070148021798396 2.5500900386936127 0.5165521086038329 -0.310467134483175 0.4885587087147006
Ni 4.108822648550601 6.7443742212524365 10.221982667918482 -0.2741803842369988 0.9247998389726073 0.4085068975674319
Ni 8.30108068587406 7.1398995772428675 0.43754470069889717 -0.4620964007581138 0.3314231679095518 -0.351682175268904
Ni 7.603986780525033 3.995958181673059 8.332341471958335 0.6782521288512126 -0.8877785245532517 -0.3882034101233895
Ni 3.047540494461234 8.48417879700884 12.316294515965536 0.49521683746116646 -1.1360750990449533 0.8857321835471843
Ni 9.14981747901782 4.663077857733001 10.472970273217564 -0.09816908957326964 0.18007080944508344 -0.9587826236759552
Ni 8.71347847102176 2.5524523604926914 5.800004281584802 0.3260084246518837 -0.4795963573150901 0.33306173195423927
Ni 3.6987235842304655 2.538560091143492 11.564382024683571 -1.0177089656985183 0.010119862042821282 -0.7223632602378139
Ni 0.888884452119109 3.511282435326611 12.825384858105467 1.131282048531684 -0.7706035833014406 -1.2150563028358623
Ni 3.0336118816997404 8.498725247779321 7.962495462509202 0.1467284865392118 -0.9594575382557928 -0.471818256031568
Ni 5.7694803581847784 7.837983840576893 3.408148008505354 -1.3886191359590987 1.5480900097656434 0.8611316113896846
Ni 3.143050981968617 8.552586184798326 3.4326825375594052 0.6668377163666839 -0.6254714947150711 0.7215965572751185
Ni 3.1056445248655065 4.011295101660926 9.12357571817128 0.08929595545335589 0.8018347734015804 -0.09611477814740221
Ni 7.196277295563198 5.935578838219261 11.44988573859405 -0.05688745721566332 0.8542130298929804 0.9378643854660494
Ni 0.6758166546217829 9.037289188703992 0.22137681013293334 0.23319288608104355 -0.44116042193639504 0.846854275535064
Ni 4.49029218983651 0.6655850754758483 1.5080408183899794 0.3933109065532839 -1.2393622265710784 1.3787538131292447
Ni 5.972876265085491 5.706824315390742 0.48310116800883063 -0.1954732600430827 -0.3816476112827427 -0.5951155081310331
Ni 7.859117534825577 8.875115797197212 11.568465207054748 0.012561124494462238 0.09129241705809438 0.015110373278877204
Ni 9.410763179285329 4.9692620204528755 5.79165256543975 -1.6000329784918381 -0.19045343823098812 -0.7511724711600224
Ni 8.033720373336745 8.775344044598413 2.5783216013632226 -0.33875595412553916 0.9877563852004858 -0.2866168102281386
P 8.631769394332842 1.7571676409796337 3.4764327372783503 -0.5767629737657745 0.12364872190161286 0.8862464041794414
P 1.9807068841440316 3.240905619568933 1.4603800675082508 -1.3804003475937323 0.6620739764294532 1.0241871172236943
P 4.660379359370207 0.8780650182793268 8.203415942602978 1.0418415970806638 1.2042877514654484 0.9212895118265035
P 8.5401022226755 1.5224527985349765 12.744518948581758 -0.3461769291799586 0.9306904934254293 -1.1584912619566243
P 6.420091039210387 7.893243998969197 1.2573257886830982 -0.45264271154438174 -0.10468349365301972 0.5180335782453659
P 1.9726749900271627 3.2841724519043742 6.315849046899485 -0.0573116892372755 -0.3589853937985366 -2.0964255814286603
P 6.948878602228101 4.024051639375954 6.081138747381364 0.47616084927097996 0.8985280497602719 -0.1548922532969268
P 2.4238693677982006 8.436868760055741 10.105478408299744 1.2127135136352987 -0.27581869117137015 0.05234920302567759
