# total energy = -381168.7670633065 ev
CRYSTAL
PRIMVEC
9.27272150825501 0.00000000000000 0.00000000000000
0.00000000000000 9.27272150825501 0.00000000000000
0.00000000000000 0.00000000000000 13.57156522838580
PRIMCOORD
 96 1
Ni 7.690248055986278 4.43173029416565 2.0970240948074266 -0.6165633935921638 0.3729323428969319 -0.11831599683478979
Ni 3.713641474604536 9.613493933187645 6.896526284155047 -0.10776727478466602 -1.002022408201197 -0.281698804101231
Ni 4.714372115798148 0.21605070001996513 9.300797366885506 -0.574700691920107 0.3745076578038518 -0.2490617347925001
Ni 0.12946759102382688 4.047496536645036 13.202744631746333 -0.2985814387891826 1.5054199817009428 -0.03401723748570916
Ni 8.594968939587197 0.5733740927047903 7.269595685084816 -0.4037195034811176 -0.2440095170805733 -0.2091358451318398
Ni 5.422872941409982 5.263205951262349 2.681293635181853 1.9420892006352037 0.14189841214042015 -0.701445022027908
Ni 1.6841394826403082 6.235830973829009 9.079593815571911 1.0646609089680246 -1.8266047597119381 -0.702876612268112
Ni 2.745810449012516 8.068463817304686 4.687957841558381 -1.5124120967480599 -0.18094935539529483 0.10849541119994217
Ni 4.807219875386292 7.195140368435162 5.608829024058197 1.1070969666450483 0.6825816094645019 0.6100225071498526
Ni 4.914505262226881 6.791489532259042 0.42238080617433044 1.2843341632960785 0.5173964588819993 2.557357529565028
Ni 2.647677238214421 6.165664290836551 6.120097210501776 1.670188356461001 0.7263893506780716 2.017006261659068
Ni 8.601626753567452 5.361608070981652 4.594205064359551 1.0144125543354336 -4.2119642295376885 -0.4239448293890569
Ni 4.959477961118572 4.492429528587301 0.34658929036791375 0.6116405023692498 -1.4262207483619564 0.18266402409355637
Ni 5.283921210916789 3.2964153742681215 5.856877103885494 -2.9663639924766976 -0.2610888411603633 -0.7849431398525643
Ni 1.5265681275338143 3.4089213032687153 8.610248529944666 1.8499881716328848 1.3242011746943452 -1.569725071536916
Ni 4.209852616004749 5.214867254494847 4.571920860240683 -0.27587988342660874 -0.4741111658308028 0.3129839873677578
Ni 8.66010053484807 2.9721761243411646 8.228942170576653 -1.06526820353472 -1.0631192755125174 -0.6239116064271191
Ni 0.9889821031532464 2.852446745353637 3.628262892120982 0.39142423105353236 0.5427506213760718 0.7570615829509477
Ni 2.5863752769004074 8.674714343807514 1.575454842137295 -1.5536603047645694 -1.935456268699718 -2.724514973382553
Ni 7.790347083725618 6.98994431611058 6.483638890171503 0.2624816077428318 0.6864809445189081 1.4018173798169276
Ni 6.612896917691216 5.124996038482834 6.213429006148095 -0.9879299346638726 1.296223972755129 0.5434605029589028
Ni 2.0593323367754794 8.674065253308047 8.724670203190833 0.2248170033125225 1.2083976598687642 -0.6846881142845433
Ni 8.354110000677577 2.0578301559052825 2.277172672029691 -0.1347036941641938 0.7595447543841176 0.03605920761640241
Ni 2.7598215310795973 1.9856976559715795 1.5376175023790388 -0.5586454382294573 0.19567046365555332 0.19870513671681908
P 6.976257779293232 1.4948183293884227 8.660897988890273 -0.5374731750272164 0.08545652710260766 0.6168367018582086
Ni 1.5183895872405213 6.1091285083329145 11.474866649435466 -0.92485743168342 -0.350874334655628 0.9821133279820956
P 0.4233525873792478 4.697301035662147 10.019886713087944 -0.2785584587000364 1.0035439870520457 -0.1429348238247345
Ni 5.374997880713528 7.663459163801105 3.01309108033904 -0.4802049374333665 1.0657914230280419 0.07750281947316975
P 3.4241100209562596 4.760995359102771 7.796687770633276 0.2947330115773698 0.6798526405691131 0.9596606554055342
P 2.0776737797461524 6.298236388992118 0.4813905507530809 1.295594052480614 0.06829184239786303 -0.11993810581924505
P 1.1284994696531174 8.570331318771688 6.6390877193447375 0.35659761029265036 -0.2559962571288043 -0.6983010770822877
Ni 6.827476964093815 6.4942431743885205 4.423163226844818 -2.349386651275567 1.0811177689724671 -0.2360306126401548
Ni 0.41648799171130585 8.212710271729248 10.644300646310164 -0.12623062369617616 -1.0889334083621438 -0.4630320251985058
Ni 1.7792776044194307 5.446203108505134 4.336956590338371 -0.7372862000962334 -1.0351161054313722 -2.2893159112359154
Ni 4.276161846886085 0.41993002590276884 0.38831375494583936 1.7082447970130903 0.3776405470058786 1.207261489381792
Ni 7.000088673345118 8.120956693268779 13.411827808890584 0.3779483080542846 0.35810376252453163 -0.1572296431808518
Ni 2.870241097760473 3.4447140079536487 6.206575537745858 -0.6206599322590408 0.7196044665457543 -0.6088302866139643
Ni 0.06073817985161872 7.539009969610305 8.31316722651544 -0.5863151362305837 1.238049421296926 -1.8034470906485522
Ni 0.7093094069197418 1.0873193138226025 11.88690002577614 -0.04261140691262339 0.9884097025137688 0.6007271978908558
Ni 6.034436737287026 6.397491599082151 11.810056983360584 -0.9448739840146629 0.5096947193623673 -0.5234658050045307
Ni 3.8075277789918283 2.910150890756316 3.7511802327330375 0.7403496695129057 -0.969567115885969 0.7913914665810693
Ni 6.682321782969996 8.555188964691247 8.071552560810009 -0.41331923135441073 -0.30470966317410747 -0.12379090390643195
Ni 0.6731875206243645 4.676882503093178 2.3011676932507275 0.9210933366552976 0.44365002112746826 -0.7655932745710428
Ni 2.5640929273258233 3.8260639491123416 -0.05660718245857788 -0.77977985048407 1.4679579801997429 0.783621078607031
Ni 5.426192575678687 0.15789404581194363 11.794762556648841 0.4434985831512685 -0.5894392836818623 -0.20098827632404093
Ni 3.5507753955666703 0.4062026891111692 3.1239844830845276 2.4682711190193167 1.4899902774094338 -0.27668001073040094
Ni 0.8350039275973773 7.2705832299161495 2.86936853467476 2.9600694177172375 -0.27608428612793096 -2.8300692996763006
Ni 8.14829267601779 2.046359799507546 12.965689363163595 -1.1508422300517984 0.13244652269890095 1.3452155721624834
Ni 4.744276642380767 4.379005600166031 9.703058222120625 -1.3112669831311803 -0.06342345856196818 0.2434562156802646
Ni 9.232208901078899 6.3981035986959345 0.657132730756102 0.17528932889604004 -0.038377314226617776 -0.2620056965476778
Ni 6.2874893048652165 3.5869204636656 8.031150386306713 0.9297427848001794 -0.6924160790564203 0.5188249637984096
Ni 5.773706356372272 2.2450834922802922 13.00249557629984 -1.1373616790668606 -0.4965291285146868 1.1544309758443214
Ni 3.225135964705147 6.581072937774457 2.5325489835959774 -0.3466160735999063 0.8811682183255857 -0.3908699012119591
Ni 7.050689914139335 8.99644995895081 5.19470650358138 0.44995719429241865 -2.367557665757639 0.4265254456320396
Ni 6.578671302926426 0.32218626940435463 1.8022498444677346 -0.15974418207258942 -0.1494998786367619 0.2685746080144471
Ni 9.29877776816002 7.341751366822072 4.774069896306334 0.49338029847306 3.046880659075527 2.897853863420442
P 6.458812105839006 3.607097905477624 3.858897728391844 -0.10590502476494665 1.2515078607946768 -0.5208203969618836
Ni 3.180608356441663 7.470911103494723 10.436424777494922 1.9280772026268278 -0.591036195855337 -0.6718349124709591
P 7.058377000197318 6.099679605204949 0.7013608301176888 -1.0910080315029855 -1.014967398397639 -0.6122321132066617
Ni 1.6655940397983742 1.4695037999091827 6.862122633138975 -1.518770949086552 0.3150557822951219 2.584468012628575
P 7.817135975910793 0.2634713973667909 11.894553730037005 0.09867739666825587 -0.7290645835173896 -0.8443322804441589
P 2.496198061081502 -0.022204458714647827 11.258169640732458 0.07482013043468405 0.8107477596204942 0.2739806095213669
P 4.475822084522348 3.478132895954814 11.675956740714843 -0.9620808348112527 0.7866418677112259 1.3986559513698105
Ni 3.1439903795502646 1.8923398967052827 12.546179391541195 0.10088700272506497 -1.0326977257978667 -1.273248080685246
Ni 5.720675662565761 2.6372454266158334 2.029397210212171 -0.37849929546174815 0.045081465719670755 -0.46606618403913924
Ni 2.370135413363455 1.4391727281411995 4.805772403572478 1.154529706205715 -0.5152393033296804 -0.002500397824350533
Ni 1.8417015650253814 1.5875826344837778 9.883641689977532 1.234894163497396 -0.3611934571934489 0.0012194742293978997
Ni 0.7254402331036562 5.26196340659194 6.614360153131444 -0.5801925682726137 -1.3056933456981448 -0.8202233032110969
Ni 8.532665524359718 3.2309777792003564 10.919993490509789 1.6863112301647925 -1.699324868815641 0.5243842030537421
Ni 5.905944636556685 1.1279245609250175 6.8073208495410595 0.45697424904020006 0.6269208255670881 -0.6749354057731537
Ni 7.4280804032512755 3.1622669134709906 5.814465530650275 3.5325165377164773 -1.8851678048578115 -0.025950401317174663
Ni 8.852324049904718 0.801137167151579 9.606958519130147 -0.7926590204395833 0.44988880294832834 0.5456837358624667
Ni 3.7862097924450246 7.15380257634049 7.825853261318644 0.09836603607542414 0.4097114593984944 1.3205628066108097
Ni 8.449711758527748 5.258198681695027 8.152303128032358 -1.204096718500565 0.5753910331189123 1.4507904672815206
Ni 7.101968063597283 4.722903019505438 10.18263688310805 -0.1528734230946851 2.5125144051084085 -1.1552943522858812
Ni 4.292073836844464 2.4147928397268323 8.044043178170426 -1.5159787310533954 0.3795174523136174 0.35997681117752844
Ni 0.8932208544946351 8.223104992442153 12.867730479528213 0.5633505570146105 -0.9528444038146493 1.095981316347861
Ni 1.1368820098176717 0.460786563755692 3.0544297997058534 1.2066253984596897 0.34570307486733365 -0.3398836399720791
Ni 9.097244440796722 0.13895822139818673 1.1880479593464262 0.08021996129401668 -0.8955306576948449 -2.2217627467762897
Ni 2.4807311617513292 3.9620205905865613 10.678229533989482 0.3737759218441498 -0.31439372323109077 0.998001717077578
Ni 6.317514376826309 1.5352381220624185 4.271731340591146 -1.2264000099834556 0.20264766630433487 -1.216315114943628
Ni 3.47723344197698 7.890770656714692 12.782921242139906 -1.5278996508606977 1.347266541154241 -0.39217884983136975
Ni 7.629252094479157 7.168889294092404 9.64509444051816 -0.3765123469387064 -1.538487710789189 1.5250454692413542
Ni 3.675113317100418 5.658585519930965 12.380104023619532 -0.35136592958006585 -1.021371245041454 -1.378002536785517
Ni 9.30758685350994 0.7336929551683169 5.04607034283613 -0.5286422069991477 0.5692651227268325 0.5186226179796165
Ni 8.371895080362991 6.105753237735684 11.936490539935471 0.6362613862417235 0.39601442152737604 -0.3934086084734128
Ni 7.938840444560985 7.0554282747854495 2.545171011994198 -1.7110750673730337 0.7172156545986035 -0.5355425336634068
Ni 6.229785159462539 2.7374742724550662 10.720911870690195 -0.09535553138387448 -2.4252699328674425 -1.2876956235691435
P 0.8693593604620603 2.2184800545235377 0.36151837185567076 0.7119351229259545 -0.8186464456422804 0.6890813582562325
Ni 6.935726713962186 4.303488556913675 12.546844245667078 0.6063111197365364 -0.0723320739055077 0.9920704391948075
P 0.3383059683225638 2.9601864955438546 5.794977052039829 0.9402603965020517 0.3737011027421564 0.28550532233151477
Ni 3.4238318393136304 4.398821405842638 2.250423652546627 -2.1669010617414033 -0.6136544474754851 -1.4668938006012866
P 8.373489988447398 9.201952011082282 3.2118602094467485 -1.9243493601532795 -0.5132068462806839 0.6169423741981375
P 4.571776205786516 9.28811413852591 4.865894874721745 1.78294768514362 -0.06723254789541325 1.1312288266962451
P 5.681702414433436 7.791960537252867 10.172078035225994 -0.8139451835118692 0.1907969376133359 -0.39841506054906867
Ni 5.723364751777842 5.876012291809802 8.289417005139915 0.7024495520330224 1.3937903957473932 -0.21349360787990326
