# total energy = -381167.41978170414 ev
CRYSTAL
PRIMVEC
9.22409141556279 0.00000000000000 0.00000000000000

0.00000000000000 9.22409141556279 0.00000000000000

0.00000000000000 0.00000000000000 13.50039017212358

PRIMCOORD
 96 1
Ni 2.8910240205882793 8.830093773464036 0.47569562909236507 -1.1333551290106287 0.2486542149414363 0.755768318060821
Ni 5.7955705594959515 6.618276515447497 11.682981709645972 -0.1664910138781197 -0.6591166935733422 -1.8274997607223815
Ni 4.499133705967751 2.106588820780773 4.0748633100830585 -0.046927517789474016 0.8698653917182568 -0.1919534198152823
Ni 8.740121983772797 1.68407930398692 2.530999422858137 -1.0646477963419019 -1.349749969697727 0.26117445889563407
Ni 1.9811780710737712 7.7944035419362425 9.965691063770258 -0.38725827260130075 -0.4747182032871824 1.9122746883769326
Ni 7.586501740844295 3.5512752748746497 1.2713251864936062 0.16037847322247864 -0.5009072029777244 -2.4223401608151574
Ni 8.584382420809202 1.5735101177014073 11.044143261653353 0.6626329342567169 -1.3811266842367955 -0.43067649168593564
Ni 3.0556002633267556 0.18480836530447675 8.774970601924682 -0.1846579145951336 1.8258637677808556 -0.3291271727865235
Ni 2.3369512849748495 5.287876556563222 10.493151372642023 -2.261500174575228 0.6494408610464751 3.0621499265297714
Ni 0.09912208858130646 4.436520572030481 5.094804327573654 -0.11713148960838538 -3.0114020065529425 -1.4692851836515985
Ni 0.8092922819133044 5.965220052627107 8.722372986671722 -0.8546128364345604 -0.30372673043554793 -0.10704222369318339
Ni 3.5336941562411144 5.966659010920302 8.876007611926935 1.4699513564806879 0.5736275134605863 -1.8712648216234742
Ni 6.471106133601717 7.3835901733204174 3.459353512214297 -0.23376238543126837 0.43104415943799956 -0.03550179245103563
Ni 5.1518488773980895 0.6605418131724963 13.595837856476967 -0.5305193694172025 -0.03188193631026122 -2.1155167937321564
Ni 4.511779935582954 8.024000406525605 9.992867082510092 0.31117958716916727 -1.147509823244456 0.8402552821613077
Ni 3.21687428126418 2.329018566179026 7.4326669528008615 1.0453416398141222 0.8262509974624157 0.6927055852723812
Ni 0.19246251653328453 3.7979182607834114 2.5349279634803943 0.4089684105848828 2.1877920462578 1.005193863950643
Ni 2.6033707233234327 5.419135380359238 4.089268573970777 -0.25052649226348467 -1.2086488566476217 -0.17017746159077143
Ni 5.290044218094639 5.904230358815493 7.107077733917893 1.025732093113311 -1.5775054868132832 -0.5766398179243488
Ni 0.1476896982041571 4.011317620482697 10.43387090300816 -0.3079124863821213 0.7982020617449995 -1.564934335016492
Ni 1.2376978380726114 6.2730833346380575 12.383206487389998 1.015718674741367 -0.41017888595321617 0.5473881201480831
Ni 1.7284656328770418 1.9427689535553865 1.8738410064929754 -0.8537031801360975 -2.457761991957877 0.645001851438515
Ni 2.01346239175445 4.730095736117326 6.284134718811635 -1.663591934190406 1.5757784768198475 2.991593713577764
Ni 4.306460880145461 4.30376744539153 10.946872448260793 1.3354824040351194 -0.7742694621888019 0.08569949635134919
P 8.007074198397307 6.071850551789576 9.440107857543783 0.03610111659793138 -0.25968270484145595 -0.31775698327636887
Ni 5.735853790328319 3.373702287039294 2.4569631738548794 2.4579877348154375 -1.0918158721162616 4.67300544955841
P 7.4517193140482725 3.443989865206943 4.070705089579387 -0.7260749047614462 1.4772620312094882 -1.2291230653415735
Ni 5.163535801484494 5.259272648440141 4.19103428721125 -0.325643070892665 -0.3005460187147211 0.2740045207807668
P 0.42153176308180934 3.2802899111726562 7.280031296668424 -0.3267429888250631 -0.07361531149330548 -0.17090071291004116
P 9.20263638593582 5.058335036523597 0.639508117044453 0.4123604669855673 -2.1722764671207044 -0.9549287971475037
P 5.512759910333206 0.773686365839165 8.351746218030044 0.410340608342061 -0.5970965431168038 0.08098615003607987
Ni 0.4521317646321189 6.184273780491322 3.5498870490853807 -2.2273605525790416 -0.720817770127565 0.9930328031080768
Ni 4.725354553023077 8.920397630453706 2.216790888219688 0.965426611355034 -0.7928713935607055 -0.11589376054654234
Ni 1.2621785772401888 1.714592599075973 8.675796858430287 -1.1728627001869478 0.7572875829188248 1.374435902480181
Ni 3.6814825522256385 9.630412859046436 11.336413216775536 -2.622866152790799 0.35608056144691574 1.7379220123625487
Ni 3.7624147321262877 7.217261353173562 3.4799961068575227 0.633105100000929 0.5536814093559626 0.9724637207074737
Ni 1.5609284567275659 7.655534842551209 2.5678819532129062 1.027903646843333 2.705788086397011 -0.9178966840948709
Ni 8.220842521761515 2.2521265384092723 5.577524102436973 0.3435456622046987 -0.07156948470787029 1.3814303315201433
Ni 1.8699263020081527 7.678548951150721 7.607402610052966 0.41959786527427084 0.20935258912833624 -1.0405321342406209
Ni 8.852858831589726 3.305720731777408 12.461008933002946 0.5169801972801871 0.9335364475146568 2.196281314675734
Ni 0.7290343831102996 0.10861552367975058 4.325201467096014 -1.7479138334679383 0.7621037733605456 0.08006620932497178
Ni 6.840291176722712 8.083255971112086 1.0879262623891315 -1.1515595678337975 0.36684474194195527 0.08978780748810988
Ni 4.093098416812667 4.587989380572602 2.0549348301008497 -2.6410824186885096 1.6813438588571885 -0.01820366749222026
Ni 7.325782791118757 4.466904729836811 7.636873582788614 1.1523496678352607 0.29579333452108414 0.07415035806116907
Ni 1.3586256792508105 0.794589079866161 6.5957780335697125 -1.5108360105101915 -0.17066571408109962 -0.3682735039686819
Ni 1.864391847034322 3.5656002891652476 0.3182975744549468 0.25391546334037557 3.5148024082661657 0.28229581425528155
Ni 6.70326729566229 4.050649147163386 11.767776939118358 -0.8002381183384217 0.6428562658504219 1.0516310723672597
Ni 3.6815286726837533 5.333830981029263 13.02539235823262 0.4393061423364757 -0.37374841104032414 -0.16905877460529595
Ni 7.346656910461721 8.280706876395117 12.351858412009058 0.2730295584620072 0.39547243298097695 -0.05824628523640291
Ni 6.477120241339947 1.2548915448579785 1.7572374194676628 0.706241672085603 0.24831328666224978 2.040576078559208
Ni 3.4903317015211512 0.5079190707683315 6.1941407913005 1.6074087021306187 -1.4047697775770325 -1.4016381739265862
Ni 8.528087789633721 8.510811066023747 2.4826679499808364 0.3051524071384809 0.7892561654056215 1.2651257086884278
Ni 0.2011331626589525 6.193949852603903 6.2530430731778175 0.6211957501578527 2.0624484531522675 0.291072274896331
Ni 8.187294500528479 9.261541435040625 6.789535612566874 -0.7659095202598809 0.15111633119426232 -2.510070057332974
Ni 5.7259471159251625 3.4806002848588324 6.1144215794482815 0.7227016174138393 0.6570171307318362 -0.21619609441273088
Ni 7.709099142606266 2.0750332033383154 8.078093247030663 0.18206290017444773 -0.4797711923300576 -0.1609564572131357
P 3.535963282780385 6.9317295969820165 11.565447411775896 -0.5533229975752793 -0.1267960092813429 0.018585476311671217
Ni 7.348962933367485 1.4644905788085671 13.19865677287085 1.3627268415733693 0.33470955197030744 -0.5353913527975231
P 2.2497928432286405 3.6222915562805196 2.917353267717116 1.5880830052188133 0.7100098808787836 1.0005123993145737
Ni 3.5152828693615046 3.6105954081024905 5.534835928814655 1.944813798655218 -1.39815124381925 -1.9167237252872218
P 8.496633637199118 7.815978692242559 4.906514790090638 -0.32623313906818013 -1.1440979693494298 0.3760109818222557
P 0.4678625304860701 9.584384641847413 0.7870769796483482 -0.5729423144681035 -0.4541781743523016 1.1231789598085753
P 3.4833121677960097 6.493852743544162 6.152208993191272 0.014493051409852459 -0.06016355686377381 0.19127130614659318
Ni 6.022658471163846 5.330454963495225 9.54330422739499 0.21768244915027027 0.7614663968868628 0.5046535573940341
Ni 7.293101834498287 5.503757196909109 5.193519633714383 -0.6799014915291774 0.5997324380777542 0.1369804060135125
Ni 5.905899919399265 0.7549337875695022 11.420723259028549 0.9224148836801985 -0.5871895684157372 -0.917281161998059
Ni 1.899139000178355 7.5512380385693705 5.188915889585319 0.42818149317822385 0.2190194227941389 -0.3388806526288615
Ni 6.666610755552284 2.4904586177656647 10.203918910891309 -0.25344032347616996 0.5901820753851579 -1.6550525292608271
Ni 6.404166900693236 5.8433974745614705 0.25102350702054865 0.3576674463180614 -1.3693651728254934 0.9074006696595535
Ni 0.824649472056522 8.621131201835437 12.400135462745784 -0.21136730556551986 0.2972902307815848 -0.03450034776971477
Ni 5.259161959340664 3.483247599154648 0.4221248721731716 0.09748389058078695 -0.3282388566442992 -3.497075937520681
Ni 4.761190148978631 7.55782403998823 13.486241811857685 -0.9416796454470814 0.3825888921500895 -0.8249068247296955
Ni 1.792093416892848 1.5749490759946034 12.996582752866347 -0.30708870492924534 -2.3745780629395297 -0.17268274451112842
Ni 4.280412045401965 2.01551936418639 9.73079772577094 0.23606480831219992 0.748814255340491 -0.24624920504436948
Ni 2.814178113276641 0.2032454796406312 3.5298394083518416 0.2881970102310649 1.027321806197934 -0.0036062292940195954
Ni 7.6175223609726155 5.651314990603057 2.4296386472399156 -0.015752120627934164 -0.4490799338937879 0.13187496646614708
Ni 3.8929356285924603 1.7088828863613046 1.613809251593355 0.4644384186277292 1.8360666764557865 0.37179900062343707
Ni 2.2256626195427387 2.898938291200857 11.286501657003209 0.12173916358372583 0.607638066078076 -1.5355034313498848
Ni 4.4611027762059114 7.953841965640679 7.7384640382882495 0.5364131091938181 0.7498195566765538 -1.191004918313613
Ni 8.996653195901468 -0.23958747822628995 8.72222447879659 1.1708209871665707 -0.36802976338899196 1.7099065009862293
Ni 2.3333538892418595 5.993759392108826 1.2566902427244735 -1.0831759370530765 -0.1992098442673795 0.11905210366986592
Ni 5.79508168263993 7.851039464501776 5.672823727449687 0.18480523880627528 0.01114650353512274 0.2792804244677255
Ni 8.873576141375098 7.56106169614792 10.698425230030564 0.15787370452275393 0.6050232541630483 -1.1927542969045524
Ni 7.7919868299310036 7.0177534754585915 7.365732331938192 -1.729206743976738 0.2282741086231875 1.5488168606293389
Ni -0.24593180844462445 7.043516363361772 0.8603799133675726 0.6513329358628653 0.8782302187431843 -1.4893395311993125
Ni 7.407425226074382 0.3896901987990372 4.427317695818163 -0.6604755215940818 -0.3364776996143237 -1.0150944108938067
Ni 6.701339460513071 8.148304265237842 9.53201855129419 0.9178982267567675 0.24164950148882897 -0.31200079751888204
Ni 8.20256959625625 5.8967588446008214 12.019803104898331 -0.5537338598604529 -1.2812074447416388 0.759323639512247
P 4.157667058174025 2.545009895624389 12.334375068746727 -0.266324892748322 -0.8658539565660185 -0.43620024971764226
Ni 5.997319891475324 1.2076918680228261 6.15068332843682 -0.7545717266495585 -0.7521944846666336 0.9614658269350733
P 4.964544472900414 6.648586880520843 1.8583556014761973 1.1252988343650556 -0.8801577747832003 0.33103416000124924
Ni 1.2773337597768615 2.397968651061332 4.613785475205626 1.2074736053925978 0.1617198177417215 -0.36456005967283667
P 4.819200461195999 0.11130434638786996 4.391771736339573 0.9736040049595038 -1.4077933948947046 0.66759773446116
P 4.699231925546598 3.9211705730506194 8.693009013398902 -0.9786680497459727 -0.32816866552799606 -1.2739214526031868
P 1.3998481447142255 0.7094894553702167 10.685329787153318 0.2661873387291932 -0.08952195542123292 -0.29519966680114323
Ni 2.167172654560972 3.9758325400088195 8.736939672162844 -0.1942188188106913 -0.9393743943526726 -0.7866549803373485
