# total energy = -381163.33533584274 ev
CRYSTAL
PRIMVEC
9.37714260081930 0.00000000000000 0.00000000000000
0.00000000000000 9.37714260081930 0.00000000000000
0.00000000000000 0.00000000000000 13.72439605240832
PRIMCOORD
 96 1
Ni 5.824377555783581 5.457721911897577 1.0829080342549404 0.31270476556444204 0.39499215091044876 1.3185660878957548
Ni 7.245136527986339 5.1438314481385925 8.030390620499341 -0.41565173614232936 0.7066263091185314 -0.21261017683368547
Ni 2.5976559798803263 0.7592184567172574 5.725639059749555 1.8445993965171459 -1.0886937815475122 2.762987675536454
Ni 7.318568929901156 3.966700011901725 11.553388635930093 0.8246016347844508 1.4220601892263638 0.1437362366801073
Ni 6.9887748326793275 7.456412922768966 1.479256399461755 0.9054656574203696 0.4431232020897207 0.07080046775232968
Ni 3.5173567265797794 5.601332847324143 10.106905349058339 -2.301269998273998 0.3723260767715007 -0.6546918250327692
Ni 0.8447651888624103 6.664006883768868 3.2841246906474444 1.1854973582318227 -1.265536056752969 -0.9295052148680765
Ni 6.610641566530045 6.352882677009612 12.778359439405987 0.6319542742259375 0.1672967976088667 -0.5464147004912203
Ni 3.1068629421048635 6.131854054160145 4.206143466941246 -0.3628335639000332 -1.7354203289866177 0.865297055621284
Ni 8.902977790779357 2.771442559459859 3.6402863745049876 0.6663317232645427 0.15704760907703277 1.4211569606858039
Ni 8.44415421451936 1.9836031887949053 1.5534642910507337 0.7043614243437547 -1.0939953962660836 -0.9538756732926411
Ni 1.5135270416885565 6.280828715023472 8.397971788337458 2.5177872234715735 -0.2082855813164026 -1.8236760161009173
Ni 0.402203452903866 4.414233508745882 7.486383207503988 -1.3285483959194473 -0.32016790671070666 0.309743368943273
Ni 6.667307637883798 8.85375717046894 10.15304745352804 0.5943997130109311 0.02866857157928611 2.3111278649046842
Ni 5.294137663218738 0.2727970127423453 12.311290541858327 -2.161416127367432 -1.249968798442331 -2.7832399980275877
Ni 6.134160831183648 1.9947713653599095 11.263859050339223 1.8065288148976697 0.44140416251608505 -1.7780471625182088
Ni 8.869107552531839 8.612633331516363 5.607788072133 -0.32483085940401474 -1.2365810642815156 -0.4415157483932848
Ni 8.770141191938174 7.36044724773433 7.659818144244571 -1.427281328415987 -0.9795633078667324 1.0243128441682812
Ni 7.970064650477813 4.3497844092234015 5.550007996265458 -0.004133562552399332 0.5870288744681568 -0.4248498577018296
Ni 1.8155741746317564 8.150124538304187 4.74223188320348 0.18050224055554723 -0.4497782455123931 0.39724238039720616
Ni 3.1205160613984373 3.3794752251424813 0.49999485755832407 0.38020085153388716 0.5397627423923415 -0.19430752186975567
Ni 6.421073256338504 8.08952944429658 3.7356566009990053 -0.18728609624660003 -2.02439921168903 -0.28572000944548215
Ni 1.4113161898341937 2.0429698771517835 13.270735368787095 -0.16692887274648668 0.5712721258545324 -1.1506182869664507
Ni 6.216323352646761 2.7004294602770065 2.178830604407924 0.26781947501597747 -1.0655337984912812 -0.6901493945094308
P 7.516539159657973 6.87869655837489 9.707305928591165 1.6155305599068046 0.5298218291295456 0.27643472748881426
Ni 3.7176149790753548 7.585161087535976 8.73951638266559 -0.5988227817792913 0.3574928684134101 0.25124125894232213
P 6.117131940636168 0.8006682391440316 5.995420383505078 0.9515845632656192 0.7948125764474764 2.2880270172211623
Ni 4.384301670294587 2.8474911840964534 6.127421478960921 -0.12348699951276795 -1.057040673418605 3.2201071919052673
P 4.4995373729036015 9.230502619547172 9.864285855897434 -0.2927830869398506 0.4596715933667051 0.7254213303378475
P 4.368276133980907 2.364118249106665 12.66360947277184 -1.6389232277991321 -1.3936716107813416 -1.0100193103637443
P 3.4333937937812506 9.169363651281994 2.6524175536183345 -0.3549199654799113 -0.7723365068321474 -0.26437393966953826
Ni 4.680234906411268 5.795477202993201 7.4402420407485215 0.8566697189635891 0.03638522349725346 0.909055431654157
Ni 1.7599395889389182 1.2234826509814656 1.570222182183663 -1.2023020884939875 0.17984892324226445 0.2017786334358202
Ni 7.281069737555689 9.05369660012387 13.175392336005956 1.6448619618810705 -1.5609133867825569 0.07938229588406974
Ni 6.76501746139962 2.8286900136406734 6.897976900805877 -0.7371483889667886 -0.14239412082991604 -0.3948347993969781
Ni 5.665566272572068 0.7730666205721678 0.5829488098376299 0.06234976588181519 1.6801400683570742 3.8166874575072844
Ni 4.2816032070368815 7.890021363190763 4.434750696255731 -0.06608455033389908 -0.05283745551600578 -0.6852563280831876
Ni 1.289066384730953 7.931196395346039 9.843314814696784 0.5127910988995039 -0.2027901054194701 -0.6079393993685788
Ni 9.198995421177388 5.663634581243445 9.654852069590897 -0.6004623742652433 -1.3131629146023125 0.9085404396909516
Ni 4.659023810365895 8.470682150289635 6.653737975157335 -0.6498185561008679 1.2312583665170214 0.2684645647991441
Ni 8.24368028774923 6.379026149942637 4.15039448011147 -0.5282002343657226 0.4250869134133002 0.7092380357097657
Ni 8.646972426882481 0.9382393571688179 10.007623916480975 -0.10845658754220677 -0.212155348684454 0.12329313833440701
Ni 6.349216214342175 6.968632730864357 6.11095146609881 0.9497675646615384 -1.1609741762794779 -2.126394102766293
Ni 3.3492245638505387 9.187545930341225 0.15666391760833373 -1.0159714141821214 0.5361146041167928 1.3980337444047792
Ni 7.817573561225001 2.979436954412301 8.903139077628156 0.42986016643222735 -0.24202282566784772 1.1872714194131102
Ni 4.659445781772633 0.6968210759457619 4.561234281139911 -0.7018183462069267 1.2838520814533374 -1.489268311641745
Ni 4.840518400975178 4.36245292856792 2.9396281719006194 -1.9087761883053707 0.18984511522302788 -0.4328233628256094
Ni 4.188666348988387 6.987930889865851 2.0768166725433725 -0.7906137078747804 0.17742874383654603 0.8802446780700518
Ni 0.0768503703093972 2.826561402322239 11.585036491435456 -0.09836320786194673 0.2416890964775128 -1.003614178168349
Ni 4.313063519694807 5.626932445999594 12.92711842599476 -0.889186717754688 0.22392225941239502 -0.2212567967650899
Ni 2.828830670776253 0.6566944083076711 11.848297888099758 0.41179919516545854 -0.49640982932800315 0.07898583177659946
Ni 6.015042991632641 2.669606793300374 4.517261109700843 1.1374717222821635 0.5793423044571764 -0.32199184729332286
Ni 1.3501303358571555 0.930704823272948 3.8886287376554987 -0.3926305926568077 0.714767193058111 -2.2852150016936643
Ni 4.15389590507316 2.142161289162375 10.23135878261899 -1.3095793110161122 -1.1331494407577258 -0.10763434875122754
Ni 0.752360952500643 6.213763392779215 6.036496955665448 -0.547859917578179 1.7737778457188937 -0.2273865638119116
Ni 3.2542059801954695 3.5369643312795476 8.490693909825634 2.271797442736178 1.1301150248067762 0.5886376137161734
P 1.7647969486875936 3.081075800581974 2.9899281012980494 -2.176754557496716 0.4369911210500539 -2.1335800789917707
Ni 3.2833782701146363 0.9785798236529893 8.329898423288215 0.4987387345714959 -1.0601879607983355 -0.8724596348079943
P 2.4350281997234258 5.5881767165762835 0.18052405637378566 -1.24244035127577 -0.08298158319955387 -0.25792741271324615
Ni 2.953293481479277 2.6674594276971955 4.54170450672183 0.5250789151279215 0.9957442885019688 0.7443443924945955
P 2.59863120268701 7.453787322904817 6.685097952391882 -0.003362488714329693 -0.20643978635691543 0.343694271967421
P 1.2938674816253963 3.3994766698218717 9.245507922770782 -1.4633773028075958 0.18309699786591693 1.056687918064877
P 0.5158984910211679 1.118205473571472 5.770133600304504 -1.2941400936429066 0.6067944871308582 1.8884405620718123
Ni 0.4447859941291731 9.38651951433184 13.538718156635676 -0.7343235179234837 -0.9113241730836757 -0.28802268943672976
Ni 0.5029458442627798 4.232166912451909 0.32062137655357786 1.597268014152191 -1.52692057477688 1.0073901002710135
Ni 4.342517123885133 7.576731036543584 11.4864686593926 -1.192123862409405 1.5480730404847791 0.22466813643948405
Ni 2.4924538196093082 5.099186873305691 2.2689449426024586 -0.7263469274759102 -0.6212847103272332 -0.3245022724200024
Ni 7.422673964514655 0.544084305562805 4.277386306112211 1.089081503904234 2.517214638797555 1.031714793059307
Ni 3.7015050484803274 1.962176418474977 2.4222190232433287 2.0872382585024374 0.03636105512753738 0.04926027968770871
Ni 2.593530037236664 3.686145289275057 11.591294796254502 -1.3824716283004643 -0.3289104287900271 0.08066424792028688
Ni 8.563103265507673 7.366739310265914 11.86748539682126 0.6289594532636716 0.6073804415413152 -1.1012520778284969
Ni 5.667985575304034 6.234149300295855 10.365843883089164 1.208865600644118 -1.2204702747625822 -0.6482478691796384
Ni 2.7743588507375385 4.910228077368329 6.580586887513677 -0.7556590461764664 -0.3376467802217604 -1.2310717044275121
Ni 1.2466160612130905 4.616207778295526 4.612673533335534 -0.32994581203307694 -1.594842435429834 -1.0208130585451387
Ni 7.988350078103134 4.357164220270135 2.1058164230428957 -0.012356721793140011 0.9474705410972456 0.23150855640008516
Ni 1.8009645868162427 2.5134867499496143 7.1905399919540764 -1.267413733391656 -0.8995431212883476 -1.4657280624279596
Ni 5.8622987195357865 1.116301913669964 8.701541769201864 0.672798561935809 0.7436771912242418 -1.0850356159696346
Ni 4.796277043264271 4.11920985543928 11.167705832457147 2.465016616637761 -0.301289581748965 0.10803492662375587
Ni 0.47252920755085354 5.291371406219009 11.97802127567345 0.009608726734357646 -0.11799923692531937 -0.41519459400025266
Ni 5.081585977073522 7.85153757089624 0.16175476820207074 1.0845941575568419 -1.0919112600435452 -0.8211841244624696
Ni 1.5425024116179127 8.24329582491198 1.5788266480241737 1.0866955201705608 -0.9804457104716856 0.36853112850544273
Ni 7.4531027915116645 2.0132630901174147 13.093718363660422 1.3189170434772706 0.40310809514936385 0.5391857868429488
Ni 9.220722260053218 6.508918326079025 0.5859654365386894 -0.03162534021476489 0.8943356089454791 -0.04888438440552872
Ni 1.9662554754067796 7.195981547672524 12.465731139010268 0.028361324751512443 0.5191391526047189 0.2031639438191211
Ni 0.9219972088663462 8.99302648897729 7.550599753895643 1.939289012182247 0.4810346324235135 0.043489695752518646
Ni 9.204340392329405 8.667583385816048 3.1491998022000254 -1.4131004089299146 0.3885199129225438 -0.7671652470438529
Ni 5.704884630537696 3.6591016106743246 13.49101194481833 0.8882881171998186 -0.16903100669115406 0.1916852537555602
Ni 5.047509441693821 4.800609283040116 5.249718139802763 0.5995583743937352 1.4892114902618805 0.1975316852340082
P 6.602924178357922 5.190876571418715 3.669423031283141 0.3563695534422443 -0.45878816232048725 0.6035530973754251
Ni 1.7044831689511475 1.3884172081618678 10.037981477195958 -1.2267867038989129 0.3933613001752451 -0.8068823631278168
P 7.355871202256813 9.51526767909885 2.199389051344209 -0.41053755484421556 0.4452469333009428 -1.6176375789474784
Ni 6.344977745990049 7.73287921132146 8.172973821121941 -0.5421988626376598 0.22385952449525962 0.15112301606248169
P 5.404131543241826 4.227112632713423 8.911332824632774 0.07492708832619353 -0.12885366314132002 0.3220386413708583
P 7.878562495212229 4.740323634730787 13.673395488524475 -0.8876322287833747 0.24553006749015782 -0.9030575621995092
P 0.7406760953909439 9.036752103857737 11.393773731617305 -0.8455067603682342 1.753557919127593 1.8239040729513232
Ni 8.235728471017808 0.9037642932383074 7.334866403343622 -0.65239788679227 0.2599634693066684 0.10944543381803733
