# total energy = -340866.3597302728 ev
CRYSTAL
PRIMVEC
9.30656705009091 0.00000000000000 0.00000000000000
0.00000000000000 9.30656705009091 0.00000000000000
0.00000000000000 0.00000000000000 13.62110160002192
PRIMCOORD
 96 1
Ni 3.754976453536017 0.5809736169777883 7.796296431903128 1.7231772499532065 -2.198248208594117 -0.7288357553360351
Ni 0.1922159748684982 7.860252091437636 5.883103560586272 -0.25174725204446324 0.9471031304554979 1.36224861638537
Ni 5.173139062759809 2.325180635479679 5.092194265046253 -0.15647990949902083 0.5274864961281497 0.015965522190320894
Ni 2.363505078657616 8.984894881965712 4.982531262680322 1.2075831343872687 -0.13334486614345423 0.0165285937826425
Ni 0.11849958779513217 3.825259648018722 3.288719304841017 0.17183788001232986 1.0600864022234644 0.35834210378758286
Ni 2.3774556226896046 3.0991798986607106 12.93299097803234 -0.5097695384643608 0.6697458911524143 0.9182543245446056
Ni 0.6839824238915031 8.417305969742298 8.596263809168521 0.40364288460691133 0.28637049854528746 0.1172415328236884
Ni 4.5624049056182505 4.749597195584503 4.09251447314067 0.7623482852711838 -0.6542997318006731 -0.094138885367954
Ni 5.668462481715453 0.5531367442265673 1.0905909922901573 1.007920775963503 0.2837556866302597 -0.44553746795816823
Ni 4.780755582121591 9.129649226110839 12.473618827652793 0.793996251193768 -0.03928568497350008 -0.3671681867196451
Ni 7.400135415692806 2.6587838385288127 13.098595755032214 0.4846334055183653 -0.5762567235533173 1.0138137444091702
Ni 6.201412351319082 1.6993140002887457 7.045487272537246 0.9070512567399347 0.9636867458457918 1.6639644870384762
Ni 0.6149537546492995 4.011102485760399 9.131490995733207 -0.6004973412682367 -0.47562631692374857 -0.6125550437637193
Ni 8.335445405829443 1.7520915421202368 3.897119374962414 0.3717398652507275 0.8693645408224382 -0.616843386726428
Ni 1.6467691226339052 7.297260623344842 0.4118369977763532 0.2494584560102865 -0.4099798825685326 -1.344278662170511
Ni 0.2887036702390416 3.8714946732027897 13.460181943935504 -1.7779456039433381 2.428175793660328 1.3285219135568862
Ni 3.701947634393743 8.422768924610061 1.4131072819935215 -0.06292903542405291 0.37249474113888104 -1.121222350302837
Ni 5.646015041952174 6.660421545583052 9.239180075224432 1.7741393428233705 1.3372276688610003 -1.0503416641318748
Ni 3.6579741050067214 5.532819266727976 8.34631640681928 -1.3990842971564807 0.11877493874907931 1.1003889584972533
Ni 4.45898102581339 6.069166033310707 2.128909789340509 -0.06061967056458593 0.5168385294960003 -1.162420164697385
Ni 2.6248614015731104 2.2738549181104895 8.449346618837247 -2.233319598375954 1.636177803843511 1.0790477738173156
Ni 5.421978052971485 4.396347829458967 9.182161530780949 1.3530091000649729 -2.3013347900736623 1.1219774833013063
Ni 6.389405006053013 7.335222110407204 13.567992939455296 -1.3818566204242846 -0.7359340569437133 0.3537308302678166
Ni 8.332560370038971 6.6126416302660225 8.454468022693687 -2.0966469534108474 0.7444696052185501 3.0419749942437933
P 1.4921777370999783 9.174786076381116 1.2553032695083985 0.16050085773295583 1.8131961996155161 2.074897220438581
P 5.221970620155301 8.137159687920477 7.616607096305515 -0.39828187740531407 -0.14964180353126486 -0.9882842326794979
P 2.669616682593679 8.075150031559478 11.325837119428432 -0.0992461246875323 -0.5490032871540029 0.7364130534626607
P 5.38219247876418 4.663074041571564 11.858803740852778 0.9452961591537462 1.1588535303920493 1.0166738395657844
P 2.4140397378261924 4.640468390168162 10.163166765211823 0.7750747316989168 -1.6996621975504018 1.0347222124270632
P 3.9723871667656883 1.2745250531265897 3.6767715091667017 -0.9575451517244283 -2.5769755609062717 2.7871089940646905
P 7.560571325344204 4.639965835546596 9.780250855249884 0.13823279036337482 0.6087415835548999 2.142684869506516
P 4.877981288260472 2.08825405111253 9.329692023881874 -0.01439252127624618 -0.15701752717004575 0.03708893443249742
Ni 8.365896493269513 6.953615634431456 1.9946467382489248 -2.549637278102635 -0.574836703277339 0.795605761772733
Ni 4.644619119079614 8.420488815678882 3.6352000047394246 -1.155871822055906 -0.6542591083707249 1.3776220135176467
Ni 5.795413363063253 -0.1189667774618472 9.383236426839607 -0.7160208629595539 1.8712722778226418 -0.20172309760753646
Ni 5.435640093424425 2.4448072485465087 2.733482999084352 0.8179273080880688 -0.15331179618368437 -1.3165323452951778
Ni 0.42433199471921335 8.834054042959398 3.6783508335978077 -1.120794775847115 0.6643604584707848 -1.4576892512838828
Ni 0.10736614161403307 7.242575235264813 11.351907605750519 0.13027574029982725 0.2519434272156693 -0.006480465518021097
Ni 7.500441595530545 8.800838905100715 7.594718050566197 -0.07512737726245772 -0.2948985906209566 -0.9661259514149039
Ni 0.9045350341626683 5.8130865339216555 2.034584009499406 -0.73074479943329 -3.378097110290911 -0.6221956521772768
Ni 6.670314426374249 0.29910562024875026 3.2469570157888863 -0.30439753125032737 0.42413611946425667 0.20049153919328053
Ni 7.203897142538367 -0.06178909072153406 12.670825914438808 0.6159023629693973 0.8814009031616821 -1.0354989426920875
Ni 9.544535985914733 9.04240015986675 13.100230918865716 -0.5412141301268873 0.5114394699676159 0.4632461980918409
Ni 1.6153873784872312 3.9245048792109323 6.853020951014671 -0.5918147258925742 -0.14246765438032885 -0.04495008234812904
Ni 0.9500422858021721 2.319503629569397 1.689411812930483 -1.8902796721630801 -0.5717706627575055 -1.3573735476812558
Ni 1.7877915333855516 2.3744589080943403 10.63513814608537 0.7171570334465261 1.3660057694349572 1.195855047317063
Ni 4.314319747338923 2.8661155396259663 11.941388355683369 1.2883677099355038 -0.6262284274857538 -3.3092547947062165
Ni 7.469608938840767 7.841704103275025 4.501243077516968 0.031524810081158615 -0.8424905992497297 -0.0508096264526996
Ni 2.6182723520903566 4.269834356763271 2.5770852088829073 0.13278385143366164 -0.7118973277094837 0.24209893032142177
Ni 3.107071867532709 1.8061254705056429 1.9408166236822648 0.6012010522034807 -0.338243790375811 -2.4163363778232387
Ni 1.472587413425972 5.885082136744511 5.370759361123555 0.08633070217744487 -1.1041060023375244 -0.5835645700686402
Ni 2.7853624571939704 1.9903861918460934 5.978750872950752 0.8091068815829613 -0.8835290052482784 -0.07707627345871242
Ni 1.575704176517653 1.9556540835556462 3.854744713797338 0.430175126569485 -1.4511655912327523 -0.5562147173007775
Ni 8.163450739882029 9.002391228049861 9.883661705860852 -1.0916819176415584 -0.863069708952662 1.692182601343905
Ni 2.5371190872745215 7.370996554209047 6.9706941156543385 -0.04011795106680832 0.40341791308029873 0.6189470633329921
Ni 8.70352943985824 2.949111504720877 10.993672711647706 -0.7146890315220079 0.25082499734050995 -0.5493231323872668
P 5.924979389756609 7.862104098283776 1.979650136078714 0.34564136839146276 -0.38812576280791866 0.5991413414609745
P 1.6051315415804592 0.19395723356655356 7.062119038540959 1.4150133096819115 0.5668981651565527 -0.9907987715712354
P 6.466361009122066 3.8449616504975204 6.127915599228475 -0.6618559468813763 0.30633999968867887 -0.42808096304461757
P 0.5479669462213843 5.817293102235504 7.500758949467496 2.013847404315112 -1.237583280293785 -2.040155703192338
P 2.3525233295196935 3.6722689920201534 4.704824232086509 0.3571478263691656 2.2703267717279227 0.6952805450884091
P 3.534457346906289 6.768163672506553 5.018245213796235 0.1409681870166669 2.2440027891214127 -1.9694269692182083
P 9.219978766053787 6.518496397826 4.063692034937156 -0.8469476065798188 -0.15592146589238953 -0.8259026129840614
P 7.882597158963189 1.944300071735082 1.661829009460165 -0.510135920664844 -0.3081289732683016 0.20406357281525503
Ni 7.607485729924093 1.688369477419087 8.913063074723219 0.6170902126299115 1.0408080136098268 0.11333088491537256
Ni 0.43023794217931993 1.6787930199081358 5.863176339184475 0.16746520486593094 0.10079727122473608 0.8143164508083588
Ni 4.083358672461104 6.020371702183479 10.687415925265414 -1.0821333547211751 -1.1628109723779005 1.1023810492266175
Ni 8.206065510477409 9.074256538933792 1.4036406419739496 -0.06760690051569647 1.6960595678008084 0.005647170983448339
Ni 3.4406564574477105 7.871401358782747 9.297736995203932 -0.1330355624331515 0.5181215099734819 -0.6592542475924711
Ni 6.655014430117685 4.8080145170580115 0.3280918540326266 0.13885782554188345 0.7743645930057695 -1.3232673500261662
Ni 1.6442842692272737 5.62904917019079 12.379387974795764 0.3798478390698426 -0.5464954331304847 -1.7336434395918532
Ni 4.1997093739206885 3.893346492673843 0.5531674558978853 2.411659798283176 0.5873021827342014 1.5552014239994443
Ni 2.091092554067671 7.355631411983022 2.7921897547936148 2.123459959838633 1.4319193414086306 2.3034605781674133
Ni 7.34025696318993 5.116024660675546 4.05309464701906 -0.850935130472657 0.3202360409444807 -1.0256454469367755
Ni 2.545671822408208 0.6760383382439347 12.861003751119842 -0.49106270608347685 -0.4718995028914647 0.7382315947286383
Ni 8.13210622200362 5.322239573724775 11.938309743297925 -0.5987178807703107 -0.7552967777410411 -0.23806641212326096
Ni 3.623632872533048 5.111380683709593 6.232498146633055 0.3359488236940472 -0.8638258703923961 -0.8573343491307815
Ni 4.392690348602015 3.149137550671193 7.2750439864448015 0.9933055971534893 0.6909608346671327 0.5817719969445916
Ni 7.777842440067885 4.1565734355696105 7.825240786135208 -0.013544314343337964 -0.47871961113709166 -0.7532838610760705
Ni 8.554521994563935 3.855766574861189 5.565745901007612 1.0220302187816914 -0.5520929818229201 0.2000829909009522
Ni 4.054005759934825 6.887995030048835 12.828585255402013 -1.0326457895140086 -0.29770186439770663 1.0267942158292382
Ni 7.780438972279309 6.072897966704187 6.274628975741002 0.40383957399874965 -0.26529490882191087 -0.555465754949895
Ni 6.559612811123749 1.707941187958961 11.11717550989754 -1.2943758638027965 -0.2085807439593182 -0.7708992601649884
Ni 3.5262489547540454 0.731591098374518 10.64738372703086 0.6637076553781344 0.4475668396833711 -1.4324921831929653
Ni 5.587700092716392 6.875319485704893 5.868610443694334 -0.7497573359800507 -0.4447435113019631 -0.13371279100583422
Ni 5.879191079791711 9.296609039275529 5.717239130365256 -0.9215674480782388 -1.0769009026776422 -1.0481657395264785
Ni 1.5079523682769096 6.3150176154941855 9.373511064255599 -0.2913298994330918 1.3792736901884568 0.16729525494696995
Ni 0.8498989708880897 0.17214729364729778 11.007566485620593 1.1635478505439252 0.16558829955819226 -1.1354400365641155
P 0.5254925174136135 2.0903666418365203 12.599042501345057 -0.06945912323308683 -2.8910841487967756 -0.6483268020466898
P 8.014620119361979 0.518994672288107 5.651054548018433 -1.2848386137363226 -1.363266259016607 -0.21425851107038582
P 0.45193899526390313 1.511954192115305 9.210725246420028 -0.39168005581808024 -0.04396920649209847 -0.31300866995810606
P 4.3545241170642 1.8024772962157567 13.671091089412844 -0.4821941999492534 -1.4128003611909925 0.5280066302976777
P 6.316851009206195 7.918669412911145 10.955820111420017 0.46303459630166705 0.3851787643644528 1.8426340452606589
P 2.6829809129005064 5.312514211140767 0.6215093004906155 -0.8720372025585948 0.6128352940082994 -0.18157233369127437
P 6.0167979804301215 4.361373750424803 2.254305543331574 -0.1114354676648726 1.9083295876862554 1.0132514441477969
P 8.418906699277656 6.926282246958508 13.454651981784865 2.233243750832696 -0.24203542407333803 -1.037553254117955
