# total energy = -381173.70330494014 ev
CRYSTAL
PRIMVEC
9.09895010497890 0.00000000000000 0.00000000000000
0.00000000000000 9.09895010497890 0.00000000000000
0.00000000000000 0.00000000000000 13.31723321460756
PRIMCOORD
 96 1
Ni 6.528287499309303 1.6579197176343605 12.611792835328023 -1.1151059529924539 -0.6909690621972487 -0.2764630096235884
Ni 6.807261312726072 2.9802610525999715 6.744232884626334 -0.25686631843858343 0.5980681630014539 2.00284899632208
Ni 4.192286715228175 2.9402074737786856 11.82564990651069 -0.372840554514074 -1.235350277198208 1.5503368968182913
Ni 7.456544201760442 6.899379084644902 10.574042900577062 -1.439945811257533 1.9818417979427936 -1.1731498924100634
Ni 8.810959336213793 1.8969582385825645 7.55531967554741 1.9795108358167715 0.27801132794731476 0.6590714421577036
Ni 0.6954318546008583 2.8023128833569264 0.4579638124587773 1.7306866709563742 1.468510253158787 0.706805515008873
Ni 8.940300913438822 3.8707298148319382 2.4004450088334304 0.23610646018341272 0.7939738825962648 -0.02506697027095683
Ni 8.47912972103127 8.474989698686045 2.1416508471908204 -0.9940332193481332 -0.9956476150231047 -1.2299812995768107
Ni 3.0705681334271544 7.007165248824128 10.661350967415263 -0.40111189065494146 -0.45123348990168094 0.3214035788900207
Ni 1.4818550310846383 3.436764483550158 4.264883599368 -1.281555829219993 0.23730819380099777 -0.8256532159774167
Ni 2.991188891801326 0.1752348622906351 10.380064200855294 0.5398416752593929 -0.46925100952502413 0.747482681013261
Ni 6.069363747603445 7.226040496108551 2.0461000413580246 -0.2607720812508928 0.731990756025249 -0.14757772191338456
Ni 1.851690961291357 4.321073256490437 11.833680639965408 -1.2864959468340877 -0.8831659654819048 -0.45611601480496283
Ni 1.2690396846396022 1.5133919925100303 5.540648318107286 -0.6142249752669744 -1.3262804258208774 0.7483707400451691
Ni 3.1230781750849554 4.06161669127259 0.4632375640000806 -0.16443181735624585 -1.8531727400084534 2.0729853481278493
Ni 2.6419893806692727 2.38478025615312 2.3584824702582363 -2.307257069095368 -0.5977154076477255 -0.1318849937684761
Ni 6.420492236179868 8.015119656158422 5.936369851764408 0.36423815755704364 0.4660340452496232 0.16331055926760907
Ni 7.684982445714827 0.2230480258504015 10.967540650803034 -0.2417160930607063 0.9258928149264699 -0.8027349166183465
Ni 7.233710911134979 8.273902899060781 12.951861549925058 -0.4255813365512155 -1.6805180205217831 0.6049258093532356
Ni 3.347594771499136 1.911098007207798 4.602063397273584 1.4531458548875749 4.313401191228952 1.3075818209701093
Ni 2.3575198013260934 6.956493195108604 3.994025139642895 1.1883060313252116 0.35414426365615137 0.32500055221265967
Ni 0.17071177414159805 8.66226429189361 8.317597877755823 -1.219643150875596 -0.7939209178711424 -0.00997768003800217
Ni 4.925980565354111 1.166221547274648 3.154812583729889 1.0998749949753124 1.1217198587645454 1.8375039231229453
Ni 4.438959255401972 4.227435959886654 6.990748922856531 -0.9832052754946938 1.3529643628699666 0.9853043241155677
P 6.758782106010986 4.759315094370582 3.006272221563263 -0.17186590503678786 1.6435162464864534 0.621464173327891
Ni 5.011265025665766 5.937620047523165 4.315063399877202 -0.4259628882603503 0.0036861906023355874 -1.1752152595795244
P 2.938096517330131 6.723878533008157 6.178889631062687 0.34014023606757554 -0.3404965909657297 0.14962534847103262
Ni 4.557709654583389 2.2950646070895413 1.3330953842179685 1.5136539395749609 0.7888059652420802 -3.501358366946118
P 2.7564268774514873 1.6280933588483146 13.238488490362858 0.8921529994718636 0.5193425268647766 0.07028753267165315
P 7.312771689503483 0.6462775057802429 3.4859852547073014 -0.12411589134601853 -0.06153164085589403 0.012108353227759792
P 4.82044184187658 7.2369410384592765 0.2871756071354213 0.10999564989455249 0.370067362644311 -0.7821311243250658
Ni 6.227084950531244 0.611440355113942 1.4022246584330338 1.585373062486818 -0.8846901154359149 -0.2939326271632615
Ni 4.047021975136892 9.071471379655916 1.5699155811051482 -2.177217870286379 -2.0980911420565413 -0.654891085527769
Ni 3.634784936954892 0.20459717461600738 6.14206799935574 -1.04986780981925 0.18497313184270725 0.25528611843565713
Ni 7.763215219614285 5.8067316487625575 1.3147282433254996 0.029502123224174996 0.13404754863743368 -0.8114450427978348
Ni 4.828903865571217 8.278843629024424 4.260116659353354 -1.0028824422086469 -0.9802767889939892 -0.8428924626738387
Ni 8.282101053199348 0.20495021388412774 6.01107951214283 0.18286225614729154 -1.3968636353560782 0.7375327688894008
Ni 7.3808500349693755 7.110620312703732 8.140265707441946 -0.30609857310183414 -0.2946761901975054 -0.36210542748475705
Ni 2.2628816201992894 3.0058473005884894 7.498001748599021 0.09646779061144677 -0.8977608325769442 -0.3886186432839372
Ni 0.7727783907499317 8.173514181401707 10.67011325646681 0.22695873224587365 1.055914530233962 1.1826012676309503
Ni 6.2804047987576705 3.4363095360396936 11.280402594379275 0.6411835061336894 1.242470176072441 -0.7990754654888883
Ni 0.9832962522671227 5.590304019084434 5.455511260789022 -1.4530018731105427 1.4728875562908763 -0.8492772831542599
Ni 4.142051411122696 4.02329191299107 2.9817687486496505 0.6878258885825766 0.06997025854155046 0.412839720614831
Ni 4.322993134984596 0.24921569675729277 8.409313476075404 1.2770921370216846 1.3791852442397086 0.02711613949050169
Ni 3.18960060006506 5.931942302592569 12.736588577028492 1.1232514649177237 1.566159722783161 0.4082536439060453
Ni 5.56224285663899 3.6415818527612305 5.007186876181963 0.15881267139725552 0.9448225619514374 -3.588724966587245
Ni 8.229418131487572 4.54173189801588 4.786080566306224 -1.8613683884453684 -0.021505478171943607 -0.572487229208556
Ni 1.2435990198544329 8.087228836567029 6.330253397479254 0.4737337278867261 -0.44959055498161926 -0.014497936505858903
Ni 0.34165648140855387 1.6809218637634404 3.0235584071708685 -0.9935151420611341 -0.6372427763183864 -0.12226238307704751
Ni 0.5474629065073756 6.3837870710356 9.42517851072165 -0.4359999607813781 -2.0215270323475574 -0.8232178670630467
Ni 5.633269261972692 4.494608434881977 1.0504637928170655 -0.7788367698445103 0.38771027253705487 0.5499044588120336
Ni 2.473749791299538 7.546241652923603 8.539715990894836 -0.07364050830428608 -0.5007961313211569 -1.3404734294918077
Ni 8.571738836261403 2.8188183790365753 11.623200994039095 0.861610093688 0.5389273909752397 -0.7464838074351015
Ni 0.789206545352801 3.745610150504019 9.369685833185246 0.32260376984570893 0.1782188438380092 0.5182531504553397
Ni 5.744394740878726 1.1194165473980706 5.3216329469896415 3.0609350802860638 -2.398172305319702 -1.2485791171836562
Ni 4.268281147376149 5.844901744890521 8.720391115515604 -1.0245735540288354 0.3112775461996123 0.5095095999347548
P 0.35091557314152527 3.424608286070549 6.2571815481385045 1.0178277506645697 0.9266983415469008 -0.34695160256245405
Ni 7.910745598307679 2.127498340035294 5.025724167443346 0.9411574543950242 0.7117489750570775 -2.064127383516587
P 2.6939625842647255 0.23803217705505694 3.85924057040267 -1.3313061611702426 -3.3029712756903504 -1.5825425350165583
Ni 2.46836321277564 8.099921872108986 12.675222527131991 -0.7275687156981535 1.417691370734707 0.19551208370081813
P 7.756227225853551 4.850532070218694 10.365482223249888 0.1487228912614213 -1.697445135294425 -1.170479544666752
P 0.15973025113400838 1.127769383690197 9.749839972929298 1.066796981474421 1.1456334321573496 0.7083268367494059
P 5.837722673175392 8.281855381543698 9.418786498199628 1.372017779956992 -0.7432863835437263 0.1046842649839681
Ni 1.0227220035239675 5.422073528664908 0.6001740349648017 0.02602033532316164 0.0671844682662972 0.7095977330420296
Ni 6.8709994589421335 0.935717841622756 7.999462182638279 -1.8225323894147771 -2.3506241232270937 0.41796932853191243
Ni 7.52545055169538 3.5404834169858312 0.13226052045216802 0.287475301573692 0.977385326378807 1.1386104638722971
Ni 1.9994579126901935 7.53860763369801 1.6878397956075621 -1.04110600446622 -1.470861784110099 -0.003366859589703879
Ni 2.495842042407689 2.3223523587671955 10.553920572189222 -1.3666202630905042 0.3641574249177793 -0.9443849601933866
Ni 4.587563310220063 0.26422623491755515 12.545073873023398 -0.7380778427595933 1.5798912134366403 0.9531112843227908
Ni 4.67641455901376 7.501374729441604 7.130100255206797 -0.0875270364783912 -1.5074845775394554 0.4249760988670487
Ni 6.779509514587744 2.7091942269150735 2.58479519944373 -0.1494602836480781 -0.5487325499911195 -0.16437165354227176
Ni 8.226169806262856 4.480614249460092 7.786639557033075 1.0663670930258538 1.4737349918928362 -0.34560460161625645
Ni 2.192064490720401 0.646903513554642 8.248361235928288 -1.7910363756890253 2.3628918848508533 -0.8125850699395489
Ni 1.7752415816329195 5.2846520836540325 7.459767959819593 1.1029587761069586 0.11818255658071905 2.262214941254065
Ni 8.952520803569895 5.900159669511527 11.857837442876047 1.38830160471868 -0.5294353923244043 1.5047278407299247
Ni 1.435495879768316 0.4816966042896631 1.2894886653399558 0.22703637956134445 1.3301561067261995 -0.4502559564797601
Ni 6.175721376599813 5.679528324836712 6.189104112567633 1.5595874688822817 -0.4905618551876584 1.5253321472438377
Ni 7.226067792959178 6.856805096615644 4.072369830629927 0.872843243399658 -0.344810130739419 -0.22838723716228407
Ni 8.364228177788382 1.0348872999537855 0.4250010455355898 -0.47808557709751864 0.3073764113729932 1.151880698618642
Ni 6.485677115479207 5.749408262444043 12.499421710138337 0.004533883314611547 -0.312274620005559 0.34229096386199115
Ni 4.56625356882991 2.782067719141261 9.115752330744437 -0.6400270239317429 0.2276776126897692 -0.2714802116970163
Ni 3.9138042451227077 6.285309132920476 2.02355375263443 -0.37095773566906437 -0.6619047978414406 0.19848607872747753
Ni 5.448242109466821 1.084130818486452 10.41684670707634 0.252986523768203 0.11810002416924177 0.44193766642205184
Ni 6.063822486925989 4.525799636199416 8.634014781178832 1.4278796241216183 0.1990082697795347 1.2873721787914538
Ni 0.44994581753435275 8.502941673728976 4.108113236737073 0.911658930715275 0.3736108570211953 0.48306657525187774
Ni 0.8730042372002597 1.1268776865696868 12.224714394474704 1.8684885444299173 -1.5492629470278223 -2.1263051425969124
Ni 4.5845060629497425 5.062401125841965 11.007492321381976 0.023563903362869093 0.2302489729613712 -0.5216117825149275
Ni 7.612036161886964 2.6581764130915957 9.488701921712776 -0.4950872538618377 -0.11694328485697925 -0.44822915585771833
P 0.2952281780706411 7.718266405580401 13.224811858303276 0.35824414475713784 -0.016685173965164814 0.4059561061211202
Ni 0.23016522470410655 6.3079564199913944 2.960514510855775 0.9818379628335219 -0.7887961950500674 0.500592499950783
P 8.310380590449816 6.827142518933366 6.075934099549572 -0.056136695092567836 0.1389195320177543 0.2492296278289321
Ni 3.064526430488187 4.730071068397931 5.142955951834833 1.7536067700876574 0.43913670663814697 0.15972027081318943
P 2.1613009400627985 4.883770535333223 2.652100134141833 -0.753464866738625 0.5198999420301432 -0.41424637115437046
P 2.593901428813186 5.048734502627614 9.985434541223286 -0.7065617744291832 -0.6549941867645365 -1.5068834536203466
P 4.7557756027391695 2.341642133210886 6.391553025039228 -3.533010960854393 -0.635424235052409 3.79728796993475
Ni 5.2291575863275845 7.532556831808834 11.437705245597448 0.49652321497741586 -0.7622338711805067 -1.052509104096839
