# total energy = -381175.08691999863 ev
CRYSTAL
PRIMVEC
9.13419354225780 0.00000000000000 0.00000000000000

0.00000000000000 9.13419354225780 0.00000000000000

0.00000000000000 0.00000000000000 13.36881554752759

PRIMCOORD
 96 1
Ni 2.517484180299529 3.6276266449365133 7.250817725552468 -1.0429667118240424 0.8851014919417208 -0.21605776906265373
Ni 3.188016184434372 3.1315760033455518 9.569465129996054 -3.2502145528136084 0.4856199378013507 0.21354502994312902
Ni 3.2975808344036865 3.7922339444027098 13.281878098434875 -0.5886743804913797 0.16238856167397195 0.0940974906070573
Ni 0.21912290600324189 7.408141419192443 5.830500888149081 -1.384368588212861 -1.1075386821681572 1.614383333676239
Ni 8.353503034688416 6.858628343564766 1.112904644724581 1.970218354771252 1.6006595563322434 0.8520872417992292
Ni 1.7157394878104382 1.4139457374989612 6.686172031700184 -0.7701312716507123 -1.1414685021463824 1.0638852071442646
Ni 5.994743733298163 1.2768140918141488 4.65827057063703 0.6396303027139565 -0.12483605734149467 0.5406682849257463
Ni 7.037959962810082 8.063857761614052 5.306216454723592 0.3055324161857189 -1.2901165743058103 0.20054836057314493
Ni 8.27305819331453 0.8693413774105516 5.561253182381636 0.07056726869560105 0.7339702483491231 0.5087781210853689
Ni 8.018725711968502 4.668559326095591 2.4013867552024064 -0.5518263584250948 0.40435328041037455 0.1839513754464122
Ni 7.2486127312629645 6.051640624057551 11.66859594470037 -0.5237457981387948 -0.8650787689628909 -0.2942447590870416
Ni 5.921450965365376 8.221587013441491 1.4775617409317492 -0.6287486228044462 -0.9964935079631678 0.1126829669187285
Ni 8.069182996372877 6.170631761627394 9.213961409006416 1.293959087980352 1.2663544388892063 0.8260139417509452
Ni 7.424884395715473 8.120654176245916 12.679773077402587 0.3075795285227348 1.1239911712972255 0.5207386358813547
Ni 8.310974230165103 5.493422662108844 4.822653168945306 -0.8923252633836697 -0.5187329183052356 0.32311233405101125
Ni 4.613726763047171 3.455949479769921 6.007183591305101 0.1419536908583878 -1.2135074702915036 -1.0977070407897158
Ni 1.7147529949220108 8.450873536453559 2.0716049228591684 -0.2626065633564703 -0.5284205779066448 -0.3948954774315844
Ni 4.780042156681292 6.087254844168462 2.649391980772382 0.8124349175149298 1.8203500370514778 -1.2507105617043621
Ni 0.9424569419911584 3.53628471082287 0.78523463789805 1.3488675670927737 1.2397337509778843 1.8621266067676316
Ni 0.10802097128279434 7.326856232024713 10.92443412089586 0.1466320701706636 -0.6151112345266697 2.091537914319056
Ni 6.833207883300939 3.4985422236471133 0.37726136969550994 0.4943233791126196 -0.8931714134340489 -0.5062085605859798
Ni 0.7257856534995266 2.593471535288669 8.808899208244076 2.3099770391296923 0.22530499869253456 -0.7451805152426457
Ni 5.876181902818655 0.32449861487410514 6.96041979494101 -0.2366913861526053 0.10531084282437347 -1.055306464336318
Ni 7.023902439149992 8.145526584905062 10.390377013939553 -0.8108246356050164 -0.19099491255675494 -0.8009999362051109
P 9.027250274904057 4.6546205469498485 11.028831557652365 -0.8904347312291762 -0.2442062064724117 -0.1513173914614749
Ni 8.150194157738268 2.243759806341175 1.92628629961975 0.09979582654341522 1.8735687871663023 -1.1836590194715035
P 7.27870989855341 7.110905631393237 3.082487934533539 -0.014644232275736071 -0.052135544352974725 0.5585647055901929
Ni 8.685576636158565 4.958295941104066 13.28170454876006 -1.9154931953142305 -0.12851787706845608 -0.4044496967789228
P 6.5799532367774525 0.7056639388336321 0.36928813226673 0.8107307903396295 1.7233716253521996 -1.301130923138443
P 3.368763603658449 1.4352010055672062 11.425524096991872 -0.3718684204087918 0.49950029532786877 0.6582538313524148
P 3.6560613890260902 5.4034234544266715 5.912024477764848 1.215331667984436 -0.3657746488062281 0.6067731469746196
Ni 1.2005801136029024 0.6734713875746198 11.758742212896466 -1.563093168042695 -0.5308572123725953 -1.7048763947614896
Ni 0.5129306310151629 6.6894630815862985 3.4694215016323424 -0.9373144264998503 0.610069301227388 -0.9174405703940587
Ni 2.4083945083876053 7.9288817855743225 5.903722409373259 -0.721431492452164 1.6363786070004074 -1.1720584591180976
Ni 6.245778770822689 1.1741822946440594 11.30936273254087 0.8984226345306592 0.03350815905977455 1.9684409511558547
Ni 5.851629190928907 1.7174293135915404 2.1460020147753895 0.35353954019261696 -0.556809413461983 -0.3903227704592374
Ni 2.47356697837769 7.864549661378083 11.653449625185646 -0.5381280350023958 -2.0791364553309095 -1.091279025776185
Ni 3.5867054584536016 4.8247083624628635 11.150059659188653 1.2180176994570315 0.6776846863835168 -0.4354410029541146
Ni 8.47457676835605 2.149960774199875 10.510816834584439 0.09708125582572957 -0.3982214564810238 0.09131452854528145
Ni 3.9208981927951876 0.8350781045051828 5.6187657177769506 -0.931801467101421 -0.18084702548947562 -0.6076146690393084
Ni 5.284012143959906 8.147371691974156 3.7709421395608196 -0.7455687518199998 0.8625991970741467 0.07486152519558076
Ni 6.390409589298231 0.9763630679341426 9.047118972412457 -0.3002097184212249 -1.0588095923935699 0.8936519526148932
Ni 3.2429400894169054 4.827265936618046 3.6792448853234747 0.9391681918791374 -1.9091058037306474 0.6598188618466895
Ni 7.583755421719333 0.3315913160580295 3.1776333467836744 0.24977547303007303 -1.4105881840310222 0.4492732808515165
Ni 7.827492238708179 2.7027073542951747 4.029067138011246 1.5068286891230114 0.4359192281421138 1.4129453714092892
Ni 2.4142860631379355 0.49065233328484537 9.521631185939421 -1.4650153526316512 2.3458791523429405 0.215882419827054
Ni 3.6939682916832526 8.643531943886055 7.731667242468238 -0.12832710121388868 -0.6002785403892112 1.2187046982217271
Ni 6.8397296973966535 3.561348937543654 11.099245227821891 0.354701421711202 1.0551809945020474 2.6162087953752815
Ni 8.039770893588285 8.465150280755521 7.6452376775712265 -0.5830688613791443 -2.6750261226238057 -0.006513118528169428
Ni 6.164466181074723 5.115559349067526 9.577205445492845 -1.6621487739859762 0.9875380985420928 1.5943508405053959
Ni 1.7304546733961461 7.540249258501005 9.287008467136435 0.12931543326908695 -0.8376762085802217 0.6469944563885115
Ni 5.232769318922152 2.83088749043685 9.756495047448468 1.5840299181953623 -0.13582263825998545 0.13312837925727397
Ni 7.913061362585839 3.847678498409691 8.803017701106498 -0.23270720469387665 -0.9455985208855135 -0.7024377249584807
Ni 9.036923385726693 0.4592690715620798 1.2278913519028816 -0.11506149445323409 -2.286880305211229 -2.171498965524731
Ni 3.866102166520413 1.7441468293197813 8.041208615631234 1.490170254630724 0.013785226709550452 -1.6890795369385492
Ni 1.377555110948086 1.8693492184093519 2.4962517477148127 0.6299482995395022 -0.41789682342276413 1.2991645434406915
P 7.52695900708747 6.135419446026585 7.173612782581594 -0.7254107888148862 0.801746070342516 -1.6268840372464108
Ni 4.014669822356254 6.122220536547164 13.258722918137067 -1.02215517439533 0.7426736896603919 0.4178274036374094
P 5.448939140195501 4.716020595061039 12.638369605507554 0.3140093433084785 -0.9340982335553977 -1.2282429767294654
Ni 0.06737289718288203 3.356057940623241 6.045565472019653 1.2423974138529763 -0.8925944578846564 -0.04436798459241391
P 3.781309449082718 6.480947714391674 9.711989603470936 -0.23465867199329263 0.1955802179345922 -1.187521073530071
P 2.8517865249620513 3.648096372371381 2.0251484151689696 -0.8785819456556482 -1.145368351421421 -0.3974586101730704
P 1.1106813820482548 8.625811608668009 7.61059898931665 -0.025338735875104747 0.6868252152322043 -0.6302501470506371
Ni 1.9579417603061742 1.6213101963237537 0.16099655281068395 1.236290015403658 0.21166812463539028 0.32907909315740747
Ni 2.560341815785651 6.339952304893854 7.5202928727358564 0.8209735511135603 -1.4041637685619173 0.7834225894429798
Ni 1.7412786925886128 5.93118801554189 1.6188832411343546 0.44555675123187777 -0.4337916402761497 -0.8648242297499236
Ni 6.381823447491549 5.82814517966829 0.8922882980985809 -0.14544344917920113 0.21897674248166157 -0.6427127982940221
Ni 0.3306459270399533 5.232540964086868 7.4345858225376835 0.595149189582446 0.030312792050928444 -0.26396230605341636
Ni 8.757481006692824 2.3975887575819614 12.792619643064603 -0.7761998464422956 -0.9936745504571339 -0.31933409795550166
Ni 4.666175301615225 4.633045582112206 8.026395694176024 -1.0097508871937062 0.5079042031208479 -0.26353755981117194
Ni 2.1867076342937932 2.6891430770792986 4.887545219197662 0.32374353987710697 0.11583822471825855 -0.3841400386872933
Ni 1.725038096703207 5.561390195282806 5.18330400792225 -1.9119561286952491 -0.6771236716737241 1.482958310263317
Ni 4.317970714580605 2.5415801825187083 3.714070824542983 -1.3173525272036282 0.2871603414364345 -0.6573295197659325
Ni 4.523855434072757 0.026445316764581957 10.22152870847246 0.33365668522576086 -0.3493085328304048 -0.4466993494767533
Ni 5.7379084829574225 5.871121559668759 4.806142200934924 0.8030807299935395 -1.2678338516482102 -0.48652830854823303
Ni 0.7192209086947791 -0.20104907750017534 4.356856802771466 1.5125558214147756 1.5034093790288172 -1.864400747513789
Ni 7.008456518091375 4.109756775768556 6.217876550208994 -0.37984886751110714 -0.11889758036987264 0.6657578530389437
Ni 5.724609097350475 7.206102195126476 8.375616003517987 0.07581669001999845 0.2330465903111664 -0.24097278713677855
Ni -0.18267199377585147 0.09104872650513832 9.707270879154626 0.8693126045385803 0.5800462725027365 -0.9947104479208159
Ni 5.0140236551068 7.21403067500754 11.34592599534722 0.537824644829364 -0.8934228673232226 0.11289508292953462
Ni 1.5640114010542654 5.188422809909979 9.722618150924399 -0.06342320145165206 -0.33132366621721004 -0.5305435377869187
Ni 8.094941421792926 1.4672528902476834 7.817815474208179 1.1295576096414095 3.2163209853899573 -1.0418433968528766
Ni 2.906546014463181 7.000957345300645 3.723869987234695 0.2876521934711885 2.733692269006447 -0.09806213168176016
Ni 1.6784628444986605 3.200758384243225 11.299576357719934 -0.7359499977833132 -0.7971175704315691 0.9036296326528953
Ni 4.8427301260634845 2.038139978457953 -0.15293928080251948 -0.053696718192507514 -0.3348648466012491 -0.5876346263729557
Ni 0.9538381469817182 4.070662427967917 3.451280080098032 -0.7884344408352744 0.31486269244770937 -0.5685423856281949
Ni 4.5768976952125495 7.378373082864806 5.98475092570613 0.760309143353968 0.8756190063725824 0.6971502513072961
Ni 1.5065207877231386 5.441330357083833 12.334162601296795 1.4498561283927096 1.1137036733282886 0.033069785970775305
P 3.585618489437649 7.561705478824299 1.4169472334539357 0.4742263512524284 -0.009136929304261682 0.749997991235947
Ni 3.8454314868304955 8.848722464678943 13.006948010946221 1.7036108977855047 0.6233734745354619 0.6512290632951494
P 6.055860621413602 2.773113717109971 7.7080845819187775 -0.12456069219292097 -0.5011925954286272 -0.08026392715807466
Ni 3.570154299992209 0.9137755746794743 1.71697077708229 1.4001096530972015 0.26024320533061635 0.03733935988040667
P 2.923234185825743 0.43497394392653305 3.613617532501504 -0.6786974439187473 0.07689141114141596 2.3673699752268647
P 6.1088206748126925 3.803788699068086 4.097207307440683 -1.1730123383909346 0.23425912256202883 -0.3565551870904891
P 0.7814877917607085 7.948027054964542 13.112495442653218 -0.5796922315974274 -0.12770566557980587 -0.06840522804727574
Ni 5.084229065666546 4.022406484175679 1.755419337408746 -1.0506172863907648 -0.8609966284737172 0.827941240680645
