# total energy = -340897.45550530695 ev
CRYSTAL
PRIMVEC
9.03463267991522 0.00000000000000 0.00000000000000

0.00000000000000 9.03463267991522 0.00000000000000

0.00000000000000 0.00000000000000 13.22309816172868

PRIMCOORD
 96 1
Ni 6.154626507571718 1.888762185265871 11.481536130999716 1.2931759299574246 0.27365433653019966 -0.5391976139174907
Ni 4.7573754300607245 0.15503158200359118 6.085031830547536 -0.24824926619353377 0.8695229207771734 -0.607893890842624
Ni 2.9670636343175802 1.5881618952594323 4.867700036978122 -0.2368543940930308 -0.07739097648565381 0.5064877823892955
Ni 3.406625605635303 4.475774972041649 4.942846495626761 1.1913939262219158 -0.4471120115341397 -0.7136405356528355
Ni 4.9563993477257835 4.511759912985856 2.738053771637753 0.2896735947765915 0.17618690100964496 -0.8243707497205675
Ni 7.253463676122846 6.210334051097196 2.3919921147377283 0.13565551655450186 -0.4347876856408318 0.7137606061704675
Ni 5.127352662449931 4.639057883837945 11.597436913049114 -0.9568887490873521 -0.67788703220231 -0.21180002222756428
Ni 5.613018363026575 7.948190770987449 12.262916192367978 -0.34767022589603347 -0.05994244199190322 0.1057733842830888
Ni 1.72492816089172 6.630543839763025 0.5459104365053815 0.8477791013421787 -0.30472868933750097 -1.1440516894925266
Ni 2.52464671915392 1.5338998929217709 0.4052321750335657 0.28304529082679636 -0.00983215559907339 0.30951942585792497
Ni 0.5766525802540263 0.14651553748086732 4.933656467525219 -0.5526889635357063 0.4565057940442138 -0.4852669253373062
Ni 8.495201625722057 2.4320236675445788 1.3538866488029837 0.7531913013622641 -0.29916765030995573 0.230502483733074
Ni 7.037382372441552 0.7290858019725174 4.904658911297619 -1.2241520944895432 -0.16673192624433222 -0.3163541893915713
Ni 0.9336298800485504 7.487325136414282 2.7501665033284133 -0.2920099562192519 0.30565171537240265 -0.23402412373308729
Ni 7.719614570663968 3.8335390915596315 3.7231882842082054 0.345709759735553 -0.0075423311236321715 -0.8397014665403667
Ni 7.579469352505159 3.913332965127101 12.679601570925263 0.18977569543767314 -0.48480438387859087 -0.5155745751819121
Ni 8.025355566519579 8.74936390506989 6.96312492162342 -0.02397682253057161 0.9713460621632626 0.38797766726582855
Ni 6.746991217074068 0.6649778572193408 0.39928106265597363 0.47750759310686147 0.4193219859050649 -0.20629914701399307
Ni 1.7989489043403477 6.440979182245741 9.197960508811466 1.2403698418999862 0.25257591859334566 -0.3793125353916628
Ni 0.08434281099288016 4.925735805279226 1.336062222493964 -0.33046234665817925 -0.6334342012055736 0.4928326534997061
Ni 6.077353296450503 2.237489962194175 6.745446294929589 1.0369783554510914 -1.0049709493065597 1.4337443104325114
Ni 3.4465044731541905 4.396279241344166 0.46674898720758107 0.02258791260284497 -0.1255600799917128 -0.021878802350962318
Ni 6.111341583629039 5.625359670917558 4.689439511549562 0.2745650212699271 -0.36171359136297704 0.4787733471931625
Ni 5.23771973213972 2.830179918463783 9.21226775271788 -0.1696105333437079 0.06432154489620534 -0.053664322292675315
P 0.20105851688691054 5.569877993202677 12.454954532242915 -0.5176412279029536 -0.03477417025639173 -0.198215084454278
P 3.9237227924145324 6.254938031373759 12.615496336561815 -0.4109286196350471 0.2565091922094808 0.3939727085069989
P 2.388368323672521 8.498246296848894 1.426944300435229 0.3406778537386004 0.7050106278919793 -0.04086048565978769
P 6.453067520428856 7.78091455165981 5.841170839089379 -0.1989707316733799 -0.4049353781660897 -0.9148201020520762
P 4.600832354052623 1.109552242605817 12.753942140361696 -0.3944810156019851 -0.6507832340069825 -0.9756760569971841
P 4.017285445795954 6.067839828508186 8.133884088511113 -0.2992591815824975 0.06908322795090682 0.22921024728421172
P 4.85401889309868 1.0319899232470384 3.829052493097946 0.5444400932633526 0.17982012688685806 1.2132555021816978
P 0.12235873730596901 5.652291910173065 3.5280411273162215 0.610637257915716 -1.0039556206681677 -0.01557162918601189
Ni 1.296993761503496 0.9503529846651024 2.685015961993524 0.5854589588778755 1.0196270086568375 -0.41370309705639075
Ni 1.982839812695453 6.462580988371173 4.74941953274828 -0.3336142620235997 0.5126427462470978 0.2917872986854846
Ni 6.094735929233996 5.444477295159597 9.011422453156172 -0.2719283549780285 -0.1752844438000336 1.3959488368512925
Ni 8.391737015204091 2.2530837377577453 10.17645637347687 0.23457588247149921 0.18757046025623828 0.6137413507623366
Ni 2.310842142843438 5.1900259075742 6.970040029280636 -0.12280797116787236 0.09753402709243203 0.9441512469160256
Ni 0.658340112777536 9.030142211538395 9.099461332273652 -0.2477242469279992 0.10580989394797906 -0.20564814369355552
Ni 1.337468914762358 1.0409251747142292 11.299202793274482 -0.4565469316947944 0.7437530387674998 0.9108798864574055
Ni 4.11097458403131 6.906777726122332 1.6917231763443326 -0.12315378454306532 0.6008583241520813 -0.7138997028514931
Ni 5.7604635641838575 7.541026991541664 7.942427578964273 -1.3421369332371595 1.0129789072127007 0.08791218773195182
Ni 5.416460900013228 3.116984324758998 4.734675916095794 -0.487380115025567 -0.6747235468726638 -1.253731350808557
Ni 0.7705547647980029 7.302729526730117 6.959488482072818 0.36252168908656923 -0.6285228799468853 -0.1576507898786704
Ni 5.116140683611929 4.568181192472818 6.918773911054724 0.3466597823536482 0.3893205544469682 -0.3532919429581851
Ni 8.294858651723114 7.170977482093067 9.025504734715232 -1.2687810460528277 -0.0938313814298642 1.1039885029230536
Ni 4.634179182329065 0.35633222703946105 10.415543465162264 -0.6153048385947144 -0.6475989227417298 -0.28755192044789835
Ni 8.326037168217832 7.248395247333064 4.669908443175676 -0.8949835269421231 -0.14057686511551917 0.4158147440827548
Ni 7.403935479142118 6.157942217671272 6.916711304472359 0.4505531760052047 -1.577056829311639 -0.2841050995498784
Ni 2.2634825996776 5.251325888570042 2.5655455966734606 0.17617841636921272 0.07673174563510012 0.31646860348224853
Ni 2.2096723289611315 5.173582876562787 11.557992611349814 0.5078939187082028 0.40026214106013647 -0.3134760965128279
Ni 1.2813186742481113 3.342967585576834 3.8837824893951627 -0.641292778018044 -0.1329442882709259 -0.9882778049215948
Ni 3.58620699432423 2.5313233125151475 2.7104041825677934 -0.12054617171688918 0.5968833986647333 -0.20099239008909903
Ni 1.0913655275366008 3.2240447189816566 8.339688497810274 0.03554267299130008 0.5916805143075552 -0.28162784165397947
Ni 3.7168026060110257 2.697849657351607 7.202383671324865 -0.89983982659316 0.21166323953938385 -0.23259150505161877
Ni 4.266650335326722 6.869076205017594 5.8842524838025225 -0.5060946607159348 -0.4286219231497521 0.391319587154868
Ni 0.8235094558239328 7.257222083211168 11.17911084524366 -0.9241704329187245 0.6393734495081441 0.8460628899820204
P 0.19854508214659464 5.463739131487252 8.10183192306101 0.23604706770038703 -0.9142251487805545 -0.887503159404678
P 8.47326553819694 1.5468194172878809 8.06269118501115 0.409506799586856 0.4458807102301998 -0.7402360267531768
P 1.6844891461625535 3.207538445543277 10.503331181498359 0.13118822481176762 -0.48751072706616044 -0.40355058200342114
P 4.006552302476417 6.223018675020286 3.746950270946181 -0.2734622751240516 -0.1578212540182637 0.27758863858759936
P 6.721450311211835 3.775627097722733 10.446300064322786 1.2771726125506326 0.8711920809494803 -0.40838914104264507
P 6.2850956344045805 7.596327976608069 10.121633320465687 0.44465532246353096 0.14709281185716605 0.2487668292599006
P 2.237381546605089 8.39470940927154 5.824285111089198 2.2947486522157123 0.23124733231889852 -0.07113471116329684
P 6.822583986564446 4.000336475368806 1.5894556546225282 0.3861634968752253 0.43237907619933924 0.3837973106358939
Ni 5.377837846401256 2.9036585839669797 0.3988826353660817 -0.4712546702186142 0.5843335870241808 0.4416669292591684
Ni 1.603737601558155 1.2008200993515805 7.031884798611638 -0.2910537629535697 -0.04911424102814767 -0.16515481156519943
Ni 6.728488289870016 0.5330125952570889 9.024645541171724 -0.04362185045500875 0.37227825425270084 0.38934240882383914
Ni 2.7152774632972196 1.514954268728951 9.297900709220887 0.487599944345857 0.06545540139033243 -0.42883532471213887
Ni 6.455651425302078 1.7958229215216948 2.5703583453656473 0.18129876831491357 1.2166177337857111 0.6990289563872478
Ni 4.03488490975762 6.851865230250153 10.504666500170606 0.23035207419813877 -0.15403427617200569 -0.915757783374997
Ni 7.8727786941455475 7.219945189830351 0.0029561317290847182 0.46284304911615126 0.1045503105092651 0.6040336365562694
Ni 7.662425347420978 3.65927006673593 8.089309019058307 0.0691693599068099 0.3481422804364456 -0.08044518993094533
Ni 3.0226989007836673 8.546662892008323 12.358994990879445 0.4968142638552734 -1.007842871537716 0.5715739733656673
Ni 0.007081344893816021 4.757447707120115 10.223424717058755 -0.19337755385631858 -0.206362910372393 0.33490315603835225
Ni 8.7896674003127 2.3795234185295686 5.803511780757033 -0.3252340083797044 0.35114481470819525 0.7340957181833938
Ni 3.6121002508509927 2.6589103916048007 11.415910367999333 0.020154620571003996 0.07138487950088995 0.5340464087338546
Ni 1.100897064743766 3.3447383735319094 12.698127988173615 -0.7586705793092805 -0.3041607326491729 -0.06658951499477564
Ni 3.1057542766561483 8.35400839020208 7.818010752392151 0.35384730124102287 -0.45015954011121184 1.1004594067238727
Ni 5.684599755720764 7.6873970714405075 3.7272077921735773 -0.28147074725082494 1.6928480028420458 -0.6806455687840536
Ni 3.1757997818382813 8.549382316367902 3.5720741188235965 0.3021946100617376 -0.7817847967292407 0.49220967520372644
Ni 3.3406637543087516 4.371099720778888 9.45926195470063 0.3261971436239221 -0.006269892169111783 -0.4413936209931236
Ni 7.139907381187437 5.978640902587484 11.385020959742178 0.272503253644892 0.008935354816416868 -1.0888570465982537
Ni 0.40514002178284236 8.863489381848002 0.45375718578208035 0.29592343234104523 0.8749921714218607 -0.26760144546790043
Ni 4.559200767843508 0.5583131798968469 1.6751021630741703 -0.4746582965835245 -1.3610941910659526 -0.4583503034521203
Ni 5.891041106605806 5.732555584626575 0.39493992177631226 -0.23592596874149044 -0.21600351878595056 0.21956655354686058
Ni 7.933337835282635 8.909132344853308 11.261027857430735 -0.12285116570098197 -0.5895225874242879 -0.43622107565324875
Ni 0.18185630913325326 4.881953976553234 5.670897832186748 -0.16312184029557067 -0.1568079822624009 0.26344782831084307
Ni 7.977146767905898 8.848410580332592 2.605280813536809 -0.4159630967351611 -0.3840647053646676 -0.3550264091507886
P 8.579964547122646 1.6754364444738528 3.6691322714898074 -0.725396647747499 0.547247995025793 -0.48804628785465626
P 1.8660220154550329 3.3123853548220916 1.6279486095275966 -0.6554544142304067 -0.42240139616133704 -0.39716730418489665
P 4.690555288653908 0.9822452371213036 8.16580525179107 0.13935816221706968 -0.3297668632530514 -0.14170223696921402
P 8.489085179571108 1.5347220444723415 12.494121470726803 0.025007320677615 0.6392382094818604 0.1332376511416286
P 6.191153526461356 7.8740796812145835 1.3595459425532852 0.3393527071692736 -0.7162651177598761 0.7911582675243406
P 1.9514263957577158 3.264836084375353 5.929593690084871 -0.934516552039739 -0.7582851709454037 1.389379154053575
P 7.108810176384535 4.044262858213579 5.849607378846773 -0.3415234895683473 0.10526482007778647 0.9678213368394557
P 2.436016975075922 8.477285949625555 10.231636294468794 0.4090609702986891 -0.15371185983558042 -0.5426799160391363
