# total energy = -340892.653624235 ev
CRYSTAL
PRIMVEC
9.03284200912120 0.00000000000000 0.00000000000000

0.00000000000000 9.03284200912120 0.00000000000000

0.00000000000000 0.00000000000000 13.22047733401580

PRIMCOORD
 96 1
Ni 6.225841334102358 2.029228004129293 11.113807631854842 0.7730150209564106 0.14450551074596404 1.824515224172761
Ni 4.6572702173738465 0.28557601655441284 5.9067769583113146 -0.31910732665667624 -0.7128306381570305 0.6669233341019547
Ni 2.6283402970377265 1.699709920040103 4.876254314533459 0.9390005559530217 -1.0284944863497965 -1.3258006579709811
Ni 3.348158460496704 4.325259068832666 4.6059483177474885 -0.3397450575116859 -0.561140179626853 1.004868105180108
Ni 4.799365858295093 4.375102292188043 2.4942676265739374 -0.2660359007529934 0.550726954713329 0.35781065676414503
Ni 7.192319319990708 6.116038104108164 2.6266448325535285 -0.09801096672885057 -0.010893506984052207 0.18814638736436629
Ni 5.170398885215257 4.404070617179108 11.608279867380524 0.1322338924674626 0.3632066309687358 -0.16405952161849166
Ni 5.523953362444835 7.801972939766797 12.43890932602515 0.08539764884021422 0.6686377456899001 1.2829565662222613
Ni 1.6968013448461137 6.4770808075359305 0.5743930168964135 1.462727585038739 -0.5049620897733883 -2.5090542144739496
Ni 2.699970735821369 1.5381304384560173 0.4380964606787108 0.008216731482837462 -0.20758701258748122 -0.8534668957555753
Ni 0.6467876341316444 9.147468985095456 4.711672316196324 0.569621991845619 -0.11008872382899104 -0.7217112284761119
Ni 8.441362676122425 2.546818896026078 1.4064207595162888 1.1301587335605179 0.002982222556775509 0.8431228335170898
Ni 6.711943738029436 0.8405285504306301 4.731410883009693 0.6253815061044262 -0.7014146830106048 -1.2527761859841393
Ni 0.9724306289095885 7.287670002437131 2.544162337129953 -1.2362275375968386 -0.0001339544747029951 1.6616309538092933
Ni 7.569061103192243 3.8700851166578194 3.8311625995432275 0.7572323042008572 0.21779197814494106 -0.1796882292946841
Ni 7.611461264560517 3.82595968242603 12.737811494702832 -0.599420306153974 0.6357610495665373 -1.0458152370164313
Ni 8.261681378734757 8.95885420675482 6.428325138383523 -1.2642060250876357 -0.2666354820102053 1.6881891639137956
Ni 6.874878145946125 0.8234971264298031 0.5507531655293679 -0.3039272764821282 -0.22295963838880958 -0.023760078534075208
Ni 2.004143801291692 6.352508880516358 9.093004559661678 -0.07845747007695521 1.3680166292173987 1.121732457170036
Ni -0.0025996519901554 5.1681677731875695 1.4118811126366813 -0.49545543583453383 -1.4685349357491353 0.04588210724409517
Ni 6.5418462862343825 1.680189948008394 6.949264504890283 -0.3425041083140617 0.574900723746055 0.9934629486669602
Ni 3.460156671149716 4.017862415333783 0.13447914836357042 -0.022062379116678136 1.1417302404482015 0.06891867734858453
Ni 5.807566542385416 5.437789080533465 4.62616201206149 1.0649576142728368 0.2661058347589805 0.6681944875048944
Ni 5.431980962987703 2.847124768384335 8.989700459642872 -0.48982034903594346 0.07078606957462648 0.09325211188762648
P 0.1247507772954767 5.885510937878991 12.295295264327168 0.2828827971070032 -0.8321547645413604 0.7002396888658973
P 4.011304571883982 6.1014410310849145 12.71246714600937 -0.9920652969884851 -0.5639493669408739 -0.31809379779049735
P 2.3096887221360167 8.408961871088765 1.3329015534249966 -0.11378699861618467 1.4073213403542926 -0.020809737656499648
P 6.4332986213084 7.754929897498801 5.688097267934428 -0.2905218017094997 0.2480428066096825 0.31581811438244317
P 4.797812209433707 0.9932422973783795 12.704059376473454 0.1192469932894914 -0.1410905715271441 -0.7293368633421697
P 4.013896997600364 6.119750602259498 8.25982422637487 0.4799915358709798 1.1527150215944792 -0.4349892601286766
P 4.664731345045383 1.0610428110618626 3.890614960449429 0.3212207734552532 -0.437161328079331 -1.0209583258737516
P 0.14990814615503822 5.550211834770692 3.708780233477142 0.8597450154548031 -1.4432453079444112 -0.7467830838430751
Ni 1.282401642440418 1.0091130011542762 2.4893230487441556 -0.2513489881647801 1.1571622587325556 -0.904354426634062
Ni 1.8185730907783062 6.552821189528471 4.974680679754892 0.7045488577642124 -0.30774330779410874 -1.1538835879812837
Ni 5.962253965357657 5.652671364042175 9.442117588372982 0.3999870330218788 0.26792437602495794 -0.7400755899159125
Ni 8.84442616154534 1.9328837090389615 10.111734827924774 -0.1586820593566622 1.5924004016472446 0.44059786456470573
Ni 2.3073311503172866 5.209267205276545 7.073021669541849 0.6412385277413408 -0.6276888140813641 -1.1621612546090436
Ni 0.8160278692002706 9.03049367838068 8.979916988237253 0.16870550503093523 -0.15971024351086044 0.11687026552719872
Ni 1.6432275576549682 1.1048972600271318 11.358043039433078 0.2708649467105206 0.32775471791902905 -0.18211946444399604
Ni 3.9583992150169207 6.883287722050484 1.759156861240974 -0.21803263340083742 -0.24790036749454727 -0.6411775925964184
Ni 5.796103865611589 7.615661536191587 7.933053029603976 -1.9292257144089742 1.4413912854548079 -0.010611456967259143
Ni 5.197181262389721 2.9134258302597367 4.942739646390095 0.2862540275720812 0.07708758631262208 0.36880006589611325
Ni 0.9691336415002532 7.493365885410789 6.997400521066579 -0.4098101897598878 -0.46359715367335647 0.6692213861075119
Ni 4.971730553486703 4.556960504550096 7.1576991456242425 0.6128550915026413 -0.422425307420737 -0.6780297284277613
Ni 7.946516480928946 7.565249243776518 8.776599452619426 1.285525098280386 -1.6020479520393376 0.2765352576224205
Ni 4.6082399498180315 0.16792866637866583 10.468437250667101 -0.48647482960247834 -0.01665149251375197 0.2874200228557244
Ni 8.265800354785872 7.131880572714371 4.623822505927195 -0.6191110997146821 1.0610310255249211 1.113137516412173
Ni 7.212860003192978 6.072788855571458 6.953865834715804 0.8061506271681147 -1.1694328485697925 -0.40501585369503795
Ni 2.211546891444431 4.972534476444047 2.5477050178476004 0.7770305698737069 1.880854779304754 0.3781241715105165
Ni 2.1354722942898485 5.491480294673435 11.337617073326967 0.2626649273982315 -0.13945200748245662 0.5176255441736699
Ni 1.046617362040743 3.4791437054906003 3.9399135034190995 -0.04878282583065792 -0.8971118861390356 -0.02893853741122113
Ni 3.566003516252707 2.3113959293150974 2.5504419690394595 0.03956490677681573 0.7043231149066516 0.48090144927975886
Ni 1.0125545140390892 3.3905405561805435 8.319818557814111 0.66422264734134 -0.1777475606285455 -0.9242215978716342
Ni 3.9670888092300185 2.311874669952617 7.098233235454716 -0.23362714540498472 0.37592459275603646 -0.3977663712214763
Ni 4.338185066045704 6.8004926902861875 5.9422606723937585 -0.592639792897031 0.3731015214849445 0.214100902446599
Ni 0.44786909267366953 7.509561771506511 10.856008508403024 -0.05185246589491715 -0.2857421209326692 0.33096885398095255
P 0.2751060491402741 5.567076151190498 8.053703799816994 -0.989752075474276 0.6759741314503132 -1.457333667716677
P 8.6679876545137 1.652802370405367 7.835895778714082 -0.8384238853795238 -0.7900262108024265 0.6448483565797862
P 1.8403241748377024 3.35504148626633 10.390859588567551 0.35711903001375916 -0.3566806569247599 0.5526730226961063
P 4.00334663789049 6.1215933020718385 3.7508217910093875 -1.1532235857997815 0.7251359378869446 -0.1593718863348352
P 6.9346484628983776 3.914860915529259 10.284817634072665 -0.5670017806139526 0.2393488783801104 2.0430175981211653
P 6.40530584327681 7.767350055547667 10.431274331216452 0.11235232305218716 -0.8497596221073171 -1.1471305855281664
P 2.5344258365038637 8.53995614892488 5.781644995074266 -0.2000014869307394 -0.3100027932522468 -0.07698011420048032
P 6.829190030010732 4.126608802788547 1.6249685703968024 1.1645603509688396 -0.30166521992082884 0.7292880123821053
Ni 5.430346018546362 2.794761382050315 0.5526518689634564 -0.6743257972136129 0.1997063242878238 -1.2167146643748916
Ni 1.6016855162973427 1.123134568463976 7.017495885147533 -0.060045029008038535 0.6362526444909752 -0.3639044283667087
Ni 7.0620567023742 0.569185583358107 9.435560648207403 -0.8991214603698968 0.44930027743471007 -1.1852957837439781
Ni 2.832085086092435 1.6534798335716687 9.130669705139614 0.1627847686711261 -0.19166159960647636 0.7662725600262545
Ni 6.2263471732665305 2.2993461177971426 2.677662325397162 0.018361790336639344 -1.694380380326172 0.4929308696404671
Ni 4.1223814326308235 6.746304669824262 10.566533013863378 -0.15869440065183638 0.45308854083254874 -0.2232990240060993
Ni 8.261094243990629 7.401691569746831 0.48366624638105604 -0.5745770218580492 -0.42331902287959994 0.0770446488898286
Ni 7.547364216186151 3.643333678475502 8.31326071436431 0.9698843900160714 0.4417088382406973 -1.9534542479390358
Ni 3.1228703427535978 8.280560018969034 12.558383116897248 -0.05499383973737625 0.07959981121151453 -0.6657673661206405
Ni -0.07713956925200868 4.8652604422707135 10.032993735747628 -0.00035301246404455337 0.10041520529496899 1.5689262297847046
Ni 8.443937036154372 2.400008111467371 5.647748465033715 0.6671950997061026 -0.3271970456433462 0.630139589614702
Ni 3.7545911960666905 2.404434204153876 11.40040164972715 -0.24732315483483858 0.7388661429888436 -0.30892190148324217
Ni 1.0957650565453836 3.7657106248362573 12.62671927812422 -0.5375395094887774 -0.7894955351099371 -0.16090452092927773
Ni 3.217724218878066 8.338054059682511 7.86774377380404 0.6305530230030366 -0.06133469435373952 0.9459065390442355
Ni 5.554845682828196 7.841021916672432 3.4650479552104145 -0.4920129858118881 0.43861888646146396 1.837228043753739
Ni 2.7923676788627154 8.61715985135663 3.5288496296442733 1.9597233687771989 -0.7415364907321551 0.4539704292168698
Ni 3.631572917908503 4.337850850883662 9.424415927479627 -0.6432298471397567 -0.473413625543146 0.505245168231446
Ni 7.097727396290544 6.115035458622037 11.69961996788244 0.6064515019691427 -0.5631854921916558 -0.6376693223328438
Ni 0.5583777876450391 9.325777290466085 0.06226067155157792 0.4286707741098166 -1.0041376547719867 1.4473264199923204
Ni 4.485528788295235 0.218912737706095 1.5439539118335475 0.42648353665051064 0.28165560956812136 0.248241809994366
Ni 5.803763715811908 5.663411413438612 0.6625942047277977 0.19328190881871873 1.0038250086275744 -1.3771322183654218
Ni 7.757928801114963 8.907457334538057 11.769463710475488 0.10642181650036511 0.3722957377541975 -0.958458407567317
Ni 0.06277193042108034 4.726506952969889 5.858614746892588 0.24683567367545875 0.6037783260123537 0.7500203598334503
Ni 7.991915545913384 8.667617307982788 2.63262005768031 0.17425008899824831 1.006037700008177 0.4732120510553012
P 8.605841700058283 1.702139754596572 3.5804226422842746 -1.509541460068484 -0.025577591358788208 -0.27594750343975055
P 1.9126772409987334 3.289697905665968 1.4395776134435418 -1.629317072167936 -1.2132390471214654 0.10141819263818662
P 5.007645134142916 0.8241203925428008 8.43516704964554 -0.4422117460190449 -0.40711593075717634 -1.27247674973686
P 8.625759117147556 1.9366323385591648 12.44020463559912 -0.5367275551104433 -0.3265846088703279 -0.7512663164254094
P 6.291961739133413 7.900367690040469 1.4837608578655226 0.43699909146985383 -0.8779458547335461 -0.9220646994296314
P 2.1532760263002597 3.213271027664909 6.150337612575913 -1.1763488589633353 1.3030332823674784 1.0339915049086257
P 6.866911179110415 4.004837056856354 6.003710194714219 -0.02955200262550394 -0.2169347723509683 0.30569053903013804
P 2.412193415618586 8.33580488197039 10.363889328274967 0.4726862604588181 -0.14510560622380816 -0.6378068763519725
