# total energy = -340891.6156035477 ev
CRYSTAL
PRIMVEC
9.07886100995391 0.00000000000000 0.00000000000000

0.00000000000000 9.07886100995391 0.00000000000000

0.00000000000000 0.00000000000000 13.28783079340008

PRIMCOORD
 96 1
Ni 6.33209703706428 1.881948029214813 11.352206047308812 1.4665194479810033 0.8617401915079611 2.051583999633938
Ni 4.710821266458536 0.42213344726821345 6.182561840286889 -0.33517286475997116 -0.03333203849322647 -0.4199773601008768
Ni 2.730204175298775 1.561618574613815 4.95819480939435 0.28352197335289886 1.6276304284941325 -1.0268937175215798
Ni 3.4519554714433807 4.42034310700614 4.672386816068609 -0.16384303473231135 0.18484431957432682 0.540169748022773
Ni 5.017841110753012 4.465038339979547 2.731486110479731 0.7509958363728421 0.36499509032772626 -0.9947801248164868
Ni 7.367849821654598 6.385989156286327 2.734715461356968 -0.5838283652529881 -1.331232884730146 -0.09324439857814264
Ni 4.977821491222892 4.516043381386128 11.4665343288013 0.27743231551539316 -0.4707751594790343 -0.38622108958603807
Ni 5.685418842982866 8.014945643344538 12.489856336835212 -0.0031758266248203375 -1.4870746464245357 -0.05083739436684148
Ni 1.9352500224682907 6.302036928111415 0.3814801232364603 -1.2655327143188593 -0.16504091169515447 -0.7930493138994665
Ni 2.7080699120468625 1.519202135765195 0.5387577727214924 0.06596088027184124 -0.11184992949447188 -0.4247202741025008
Ni 0.6272058528908045 8.907315975294392 4.641864593088048 0.019444224767540708 0.4704468296053382 -0.12565958168405456
Ni 8.344617245971056 2.215850381092927 1.6044653514764387 1.6973227507839477 -0.05258908695062556 -0.32531088436422684
Ni 6.90405620466364 0.8756280042784622 5.135149074443727 -0.4119866285859163 0.25308782523275763 -1.522657942845784
Ni 0.4747200262705631 7.28537744783164 2.1656243059648586 0.8495161386379435 0.7586024450755064 0.6402535381202522
Ni 7.8486753819846005 3.9715386896168665 3.7327773542777574 -1.1384204593486782 -1.04902037421729 -0.13391462260399517
Ni 7.757569011298406 3.723549599901529 12.552070140100207 -0.9707086856895798 1.1546004115426503 0.3464525514388485
Ni 8.103328355714254 8.85702816391115 6.890431557878512 -0.2532786010873251 0.9021697602779173 1.2695181813291685
Ni 6.75685155151905 0.6180525451752269 0.4517014819519005 0.43501959914597976 0.9331466682754058 -0.48729475440061243
Ni 1.9316547934905397 6.549390497552907 9.358472725582995 0.24484512560799127 1.061672772873978 -1.7515881969957316
Ni -0.015769073766303127 4.895321880816769 1.4132136960377633 0.3799789653310682 -1.039256867072623 0.30065323371654673
Ni 6.281373440350401 2.2477081045346665 7.08245400862075 1.451902469398777 0.41767236611678393 0.43775525290958806
Ni 3.4262622946579366 4.139025518358165 0.7259430062936657 -1.155205906337133 0.7348467374168054 -0.25892885739456695
Ni 5.946127417036157 5.602592393578765 4.648083612910674 0.12211762996906712 -0.23801781827351268 0.8221737420692485
Ni 5.337671227995989 2.761880321519416 9.503775357336579 -1.5475806742293927 1.1874557675097743 -0.6499388837288161
P 0.06459700429191281 5.730359205204756 12.693692201582122 0.15789453045836033 -0.5673100558829908 -1.78548330708128
P 3.846822375305331 5.907642125024321 12.71022208390483 0.8592943010706298 0.4157527804965679 -1.2645888623483512
P 2.2358511119969315 8.497886578300337 1.48268241717175 -0.1817656806490031 -0.12673841657053012 0.1464873170626832
P 6.367150519597353 7.954017406804921 5.9413210679936785 -0.2583609007062389 -1.0470583653949128 0.4573612000659736
P 4.624027354773433 0.898486760642558 12.901247675703235 0.811981374917279 0.0836914647823849 -0.4533189116757999
P 4.023433459406831 6.3449708620401655 8.109922332498448 0.2721787804259377 -0.33726111474756754 0.5451299202415257
P 4.866623601022144 1.0803390712310672 4.004566678248587 -0.5862197483033 -0.09150761839269402 -1.3517600581492202
P 0.09633125522330549 5.646924472109975 3.665328679728492 1.68389002231781 1.3721769312426753 0.33745934680130274
Ni 1.3785887357464819 1.234207608389974 2.5718733779313716 -0.28250124539786836 -0.3965924055180331 0.7894464270395565
Ni 1.9571209987496105 6.826441021505068 4.595862004122733 -1.332462386261873 -1.358775570235105 1.1447906245410802
Ni 5.877400438850358 5.412308544728545 9.032854834417503 0.20062395100608674 0.48168640707489946 0.95201419460387
Ni 8.857790788239763 2.328273917536091 10.041002434084211 -0.16989052647797193 0.5298051169589971 0.4709566793622212
Ni 2.400532572672257 5.342274210550837 6.995869818626015 -0.3851008599386658 0.5631885775154494 -0.19524854562678634
Ni 0.5932472810009546 -0.42486981599016854 8.896308764151398 1.4896794310372345 2.23048007204463 0.7155670632515869
Ni 1.318559306451303 1.0736570294946406 11.571162755142701 0.5950820837899364 -1.0060898934023512 -0.7985345053837538
Ni 3.9912398181060587 6.58525199871987 1.4677604011418717 1.5564496945842485 1.6519720905632902 0.9036658852074695
Ni 5.774319050432714 7.877827604831972 8.133016231363866 -0.08255400874383201 0.10901091738377999 -0.08545781265418831
Ni 5.276034840294088 2.9353410408348557 5.0157039468606825 0.22692890744920274 0.33926194722768027 -0.5729379435927294
Ni 0.8637528540186173 7.535155073174797 6.7438397278551285 1.0479932185043563 -1.313591260388983 0.530966227146634
Ni 5.048355162758622 4.717103838308547 6.901274441636411 -0.43505533747992164 -0.6934321790257606 -0.43957430839619777
Ni 8.176848972537055 7.096319245223834 9.142094414288705 -1.210200774515774 -0.25756925804287895 0.5196587725536147
Ni 4.824261635339853 0.3004903274237708 10.723930704585737 -1.3323849960567182 -0.6504407630658992 -1.492097553560424
Ni 8.134532401160039 7.175641254260733 5.051727959640528 0.13958647617779185 -0.3166771199486288 -0.8918843191915091
Ni 7.191138870081494 5.898635894857833 7.014513259802307 0.3027139729003173 0.6984108631872746 -0.37026688024962684
Ni 2.3256228901080522 5.444393239696659 2.602155918980081 -1.512482544974679 -1.0858573405399816 0.008636592629075448
Ni 2.416965311181675 5.237549548282251 11.146935722515224 0.767609276559807 -0.13857654685603876 2.3175908469212088
Ni 1.1833932230655462 3.6670246109735523 3.7518320678598385 -0.14024030771170687 -0.8358221860906185 0.5215837574904694
Ni 3.520909421155553 2.634367718002963 2.7042595140621093 0.21765570967739287 -0.49429612541910994 0.5832742925217309
Ni 1.3648070246651023 3.2973969408442994 8.315232604280677 -1.6327993742895817 0.9652350641695183 -0.8453679207975248
Ni 3.4014225308116557 2.7424878743060916 7.257786789085715 1.389499224571207 0.8403900079669592 -1.0515146013940535
Ni 4.311451247513343 7.039984912378011 5.953811765033048 -0.4031795718172476 -0.015043524596683767 -0.061377374666216865
Ni 1.0693264127714404 7.4901330012034135 11.511473783137083 -0.3463674479242099 -0.20635699683512201 0.20171975517342677
P 0.21873336785194003 5.663366289480448 8.085950507769018 1.249318823563158 0.03931885220428067 -0.6872430194959132
P 8.714589912820395 1.719091419611528 7.9571251009440225 -0.754584839275681 -1.0686065238793336 0.2881589579042779
P 1.9233022413200065 3.305222919073647 10.418217308397066 -0.5842849931744324 0.1234818573064454 0.6605624248809333
P 3.8541308584545475 6.393497374378752 3.7288180629717034 2.062533042446274 -0.40635154178732596 0.293813585086894
P 6.912072838975141 3.9573938240932898 10.346874710341343 0.6374312381801086 0.3210870760908664 0.8382752756168016
P 6.489306595091399 7.867314283730366 10.275280627834398 -1.2449271222533655 -0.40005131060091104 0.35759648387080994
P 2.5647873268780006 8.685773607832056 5.701024497250181 -0.2304423199190999 -1.2126492360562664 1.4582240407414304
P 7.0677389906229235 3.952754526094222 1.5692529888749034 -2.3394408529167645 0.7276299079533921 -0.5099014360565347
Ni 5.159189898517174 2.8729874231096155 0.24378103761637882 1.5695692626853421 -0.2631560081020371 -0.10113768528329033
Ni 1.5710787478330492 1.053892348978064 7.030564686147418 -0.5697441192457801 -0.0008736608542049471 0.5550309814053215
Ni 6.858398612418411 0.8760147637594021 9.234032408647531 0.616125791834113 -0.8151057794788735 -0.8470031424081026
Ni 2.7044202099027816 1.6270317685145659 9.32991789179304 0.552486617716913 -2.207935096864578 -0.24930856069598353
Ni 6.182350302824309 2.146487882633283 2.4557774421914895 -0.8491548986437827 -0.41134616678844 1.2140723416560384
Ni 4.27617987231495 6.867668129555492 10.474824007074536 0.2088792490363435 0.5015016420286138 0.04409339077478858
Ni 8.027991966680467 7.375857377105044 0.22919947887606018 -0.5353640991040135 -0.39850967714540403 -0.23860043024986005
Ni 7.910012167271689 3.9866368355512107 8.34562136800373 -0.27305604082456847 -1.1389832738306835 -0.5484183611848105
Ni 3.144554314984599 8.257333075788985 12.839087437718465 0.46060541803488414 0.08134996113340183 -0.9721271633036613
Ni 0.26789630835047656 4.9968144685497995 10.256146020275033 -0.6286074692408916 -0.8304470378216343 0.08518527571909201
Ni 8.885390525846741 2.323035414707398 5.76650669049495 0.019725503453385383 0.9271408284009581 0.26803364790931256
Ni 3.521299812180915 2.237058600517237 11.47069335505056 0.766451251695964 1.0366747081677437 0.9430438727844598
Ni 1.0517225011859364 3.222432785113765 12.641922720074716 0.6454281403426562 0.8652101523344325 0.22495532866259965
Ni 3.2745454475690474 8.423485311955208 8.038247448128114 -0.27006893317178643 0.34164433141692774 0.24066425475742426
Ni 5.66808729722901 7.934143779955685 3.8094220071895584 -0.7272025906079863 0.1821886271190346 0.10010281626087277
Ni 3.064751126311789 8.595847489083003 3.5270558100897387 0.7506171128771847 0.45429773064930146 -0.4274695547128638
Ni 3.4432397648306505 4.459536550180261 9.057888885890359 0.6248318042485432 -0.5108463164683072 0.5404348287587015
Ni 7.396212183590191 5.9324455734263815 11.306243405332138 -1.093554452073923 0.7155562646183096 0.4494874537448517
Ni 0.37593384701800525 0.09577381315453297 0.40464392933200166 0.34424885891931034 0.7415773712724196 -0.13588485895648855
Ni 4.697457182985684 0.020438332006852206 1.8108260474827238 -0.4461725304390058 0.8873427225674136 -0.6717058430922626
Ni 5.947625429110221 5.610109690532245 0.3488652227827396 0.6285987274901432 -0.49700889636458273 0.1145192487965189
Ni 8.11701019932403 8.765885477780735 11.371499534936637 -0.2091312171461495 0.4439084169951774 0.07091642450490367
Ni 0.2274517981229867 5.0336383289885855 5.900580586895798 -0.3859284980462837 -0.4849277968303326 -0.4179731851866544
Ni 7.62286594982645 8.86926646861319 2.5932268591325602 0.9365865471948903 0.6893986323863354 0.526429515618545
P 8.573740462414253 1.4387543479574847 3.8047309596824777 -0.23157566219259473 0.729649252376266 -1.5664181186508699
P 1.6053696060375096 3.209858562552691 1.6119862799743405 0.31250139130438437 0.07667543847586795 -0.5214654867450503
P 4.678191839827128 1.285457779045038 8.158103848116946 -0.010544094064433452 -1.8128583566601233 1.0149699695008005
P 8.409921493539148 1.7342621964343115 12.168530023290383 -0.005161746706597562 -1.5061920839802772 1.6418252319372755
P 6.224930161171918 7.604118101748025 1.428189277347866 -0.7959060666219712 0.03333229560354259 -0.5408184373503654
P 1.8417740690467597 3.493055475439036 5.945095150534212 0.34939312212441115 -0.9081964260879714 -0.5619212807672516
P 7.205093079522918 3.930729209174969 5.875240577805391 -1.4920985820016883 0.8168168486327093 0.5439590398618761
P 2.6348670553609836 8.60592502485397 10.300845792678965 -0.7017193587352173 -0.13852486768249692 0.07260332528902334
