# total energy = -340888.67483541515 ev
CRYSTAL
PRIMVEC
9.10791253875647 0.00000000000000 0.00000000000000
0.00000000000000 9.10791253875647 0.00000000000000
0.00000000000000 0.00000000000000 13.33035064237978
PRIMCOORD
 96 1
Ni 6.292538242855595 2.1910722592946237 11.564185162556324 0.18492865175801698 -0.18442085888366305 -0.49743647082030457
Ni 4.434842899472319 -0.03210174788463067 5.951628172635849 0.06456888502032106 -0.6687719572749192 0.21733509311318056
Ni 2.81337037091506 1.4208798668620006 4.555180280664764 0.3026018728024853 0.3015032404216679 1.1166331882702578
Ni 3.2153389747680614 4.259852579405528 4.984284998586729 0.15260345726275007 -0.4203907934892115 0.09144694035808767
Ni 5.326288929080249 4.738036193840891 2.5973525488562403 -1.5200891536773433 -0.009224346811745405 0.06047131791217973
Ni 7.548273442906007 6.518833433215218 2.5520024316607706 -0.1391820416505216 -0.7830991446652901 -0.16877183949249644
Ni 5.04503659557364 4.520603002202184 12.02093694843034 0.1179699263492807 0.4855811141436153 -1.1399507799502755
Ni 5.665959412428548 8.276924647089807 12.29602140369049 0.42025735323514074 -0.2171638576426389 1.3891778366760463
Ni 1.636300209870366 6.714662656749079 0.40630123776003196 -0.27112797056392013 -1.9037460820806311 -1.3593005895006396
Ni 2.7092851485279636 1.5408583963076794 0.416095886706049 0.2765946501054462 -0.4172311648143072 0.28946404986894664
Ni 0.6291263135125966 9.108640987477001 4.40172197619522 0.25275126782894536 -1.8399328442794118 2.1058664151265862
Ni 8.841096062063897 2.474783729136945 1.3821839904327202 -0.08025467118669403 -0.545706361570286 -0.4442488310537317
Ni 6.896165134149329 0.3904999206162296 4.849527970554657 0.29819268799119614 0.05015013849182976 -0.9696815299766461
Ni 0.8002885780167953 7.345048594540302 2.589767479447422 -0.5846079237314901 -0.4350126571674444 1.2655928781328332
Ni 7.865064850419831 3.8735404768898927 4.02939142993496 -0.3445453071138066 0.01934266619266991 0.27253847775820156
Ni 7.724684597300097 3.9604572844887773 12.540647178454758 -0.8930222894506943 -1.5733932644171225 0.3526720499859991
Ni 8.135715573945815 8.881489653356054 6.856372665072569 -0.1794673715331296 0.05073300757849328 0.5443354493646884
Ni 7.038512696337632 1.0343947140116296 0.33453270998913237 -0.524446166639929 -0.6117690575273141 -0.08081388612427372
Ni 1.700010056790014 6.328104640599872 9.35819960757246 0.16276857072120998 -0.11567701655004593 0.09808424316894722
Ni 0.16435410001921844 4.747426451478368 1.552532918363663 0.20436773431923513 1.2511643614123291 0.054217109472351796
Ni 6.321228166772234 1.602755768668784 6.816554693841215 -0.13736118639169892 1.3912331765431782 -0.051357528536369615
Ni 3.6064691629192223 4.900621537280868 0.6766195224850776 -0.34134376945737344 -1.341316494218393 0.3498554064728104
Ni 6.152221745122342 5.801494256175694 4.550821233811906 0.19367657315397613 -0.28850862793421284 1.5266025293158287
Ni 5.20426111935481 2.87178852075675 9.128796797517484 -0.376323627966668 -0.23094754169029255 -0.08083188384640273
P 8.90398619687164 5.612851175489524 12.702197863051264 2.4263094298755505 1.0792190092878575 -0.28171294516861806
P 4.211507780627903 6.552723975086272 12.790297788464997 0.08402622241398432 -0.9911808375010028 -1.2959748328588003
P 2.2159004283729598 8.374233582685164 1.472723925566221 0.9229458164830041 2.734943110694412 -0.48159616135393835
P 6.324807576327547 7.649261975092577 5.835680805198266 -0.05762587804358463 -0.6014897870884931 0.5812801449098376
P 4.7153119525164415 1.1385619076099163 12.967565086620409 0.9679354938198168 -0.202459975773561 -0.07855594332803245
P 4.017372628791977 6.109068456386775 8.29361034252323 0.7140907358163766 1.0802785609006234 -0.3380501863077662
P 4.9745777855993145 1.0981592084054046 4.092057510098784 -0.6111802749033797 0.04540105384261858 -1.091459260107791
P 0.10397957060378413 5.548922738673369 3.680269665936408 1.0241043277019009 -0.008798572128236459 0.974983916026166
Ni 1.3866978717956047 1.0738137586818564 2.5587204278134412 1.3838044881792748 0.3821446055238193 -1.5862634355115715
Ni 1.798949308696824 6.393927523185761 4.888666491524366 -0.3788211975775412 0.06258065094569867 -0.5438261138284376
Ni 6.0546122484192875 6.001904759623862 9.344455767829539 -0.8945788353045367 -1.1995170695496826 0.43318948791577655
Ni 8.851606592920977 2.2575600194823906 10.251625697326258 -0.178034495741345 0.289748670988901 0.545034532314242
Ni 2.4531797610320973 4.977364806779788 7.327680716471527 -0.8093408519706384 -0.14550027055906553 -0.783557058138315
Ni 0.4833587302351831 8.975565280065569 9.263686801069932 0.7159509289535669 0.39980319914584694 0.12039910461606362
Ni 1.6887253533828024 1.215296069196483 11.365469641597326 0.5737221300569215 0.5620385230714062 -1.1739556761408105
Ni 4.104781263658005 7.108224657498888 1.627009228477552 -0.05053708951760329 0.20190744570420063 -1.521875813264121
Ni 5.515751721878321 7.961745340062727 8.074380159776982 -0.2939269707363067 -0.41483823910209844 -0.7498486101422763
Ni 5.4037426157428206 3.134351418111949 4.662543440708241 0.5045468566128407 0.37716926379641497 0.8217500242682687
Ni 0.9115289763495777 7.234086898325566 7.184711994660648 -1.260409277049365 -0.6004153230773918 -0.2979198939457837
Ni 4.868889570637829 4.47774116666196 7.007645070577034 0.15010588765187696 -0.7609568042402959 0.13991840559591387
Ni 7.9628200737205574 7.328353791194525 8.753201064678139 0.5608463025355179 -0.5716570199977767 0.2936482631536233
Ni 4.509464025392644 0.5704549637074517 10.666066676357495 -0.20044783043953865 -0.6355173089868474 -0.8451668605303122
Ni 8.408169664117988 7.187390631684103 5.1426360735731045 -0.2336428291342686 -0.7068317402611182 -0.616891466355544
Ni 6.83301997779566 5.75658314035571 7.1033437272681175 1.5666189218077664 0.8212355465256953 -0.3915152481054418
Ni 2.3999257974954022 5.2126950461950665 2.7953612958165297 -0.7905124064102256 -0.5518235302116173 -0.5573547444424917
Ni 2.5080185013184737 5.233625028785681 11.745998219767861 0.5005541905136799 2.048347237864195 -0.4254445538630351
Ni 1.2462083237276174 3.153523573618147 3.8695074932993245 -0.7587777943111061 0.6965046473034973 -0.009926515085092583
Ni 3.9471688403635783 2.793396719121666 2.6677366739492574 -0.4976205618066527 -0.2556509579742436 0.323359674175127
Ni 1.0470547121843687 3.3044963288061515 8.521772654915525 -0.9332970778103411 0.8510058358095924 -0.9383732067816678
Ni 3.856590651998189 2.271868549791292 6.742904471377877 -0.5430270149659099 -0.03424400878453457 0.4740042079392934
Ni 3.9760773541767254 6.477310460791105 5.806887051080786 0.8005692764255954 0.9021931573166849 0.6135675441886336
Ni 0.36928030641274195 7.361069412371847 11.080307281316935 0.9067684353921932 -0.12491139066412038 0.3320500028602733
P -0.000865251673676421 5.298054400781335 8.152148980207018 -0.18244548032484706 1.1044916678117171 0.5046296461346341
P 8.5987254063986 1.615015018697926 8.092162447857886 0.2881036791863103 -1.2643060410006095 0.04096204423465849
P 2.0443255754391023 3.422799002378604 10.656388608689614 -2.835759150972226 -0.5860762807469003 0.20794516725784828
P 4.0592963493596885 6.258146765805045 3.599674660302773 -0.010560034904033426 -1.006437506549757 1.669106950471364
P 6.495735767484236 4.1462678044327 10.423147724368457 0.5345647431311696 0.09402781371138645 1.0983140782460954
P 6.5494451266386555 8.098792097260718 10.283565324370977 -0.428459686540275 -0.1887984191260684 -0.5494146636598085
P 2.28535736798829 8.254537398522475 5.823483488973135 0.5900031266051323 0.997927669306533 -0.19094554737605826
P 7.116394454880864 4.203310659508863 1.825098125066561 1.294538614632906 -1.1111271708503638 -1.1879447913310508
Ni 5.413888830105721 3.0022502573224457 0.629210106306258 0.17784629098993887 0.2070373107315983 0.18205981485065417
Ni 1.3923629932800967 0.738666264608796 7.130671107496526 0.4611780027089025 1.2706607795740439 -0.558823101457902
Ni 6.66576227531783 0.8026065417110126 8.962234939543539 1.1530448941300722 -0.1336006909080022 1.981771863936806
Ni 2.858345242121525 2.046966870021904 9.157710776078044 0.477006742211043 -1.411197535480247 -0.04621120844873977
Ni 6.796642975851832 2.0050340415418386 2.7371872380259394 -1.7086008948009284 0.21184733052573193 -0.6061234292057626
Ni 4.027701001401967 7.131322323229871 10.43089218224348 0.7943860304330189 -0.9385236163166031 0.3101074371509111
Ni 8.381365078058728 7.5728556983507715 13.199779509219217 -2.0040031645311807 0.2569951307069639 2.0656384208444747
Ni 7.476193424532584 3.4136910900241153 8.606034506063077 0.1977322312805885 1.031118554236205 -1.292668651303703
Ni 3.062007270280245 8.406912772213069 12.538061442137318 0.49008414422029145 0.3095237967332992 0.6652593161359703
Ni 8.90063448512519 4.934912827295517 10.420614813942676 0.43203094883130105 -0.578275553755559 -0.2065454586968443
Ni 8.713639936575182 2.022894657668991 5.7775741459591 0.18783939764690877 1.1744902084880418 1.158842731758772
Ni 3.7337249143361375 2.590645482198395 11.622345558478381 0.4817216311882091 0.8284384920320378 0.3077939585263861
Ni 1.3616875444701788 3.697602933938235 12.874292777780562 -1.3104203188601689 -1.070780391602201 0.3796709471723461
Ni 2.8735372399288117 8.102890657820238 8.122581964330642 1.5022991766837739 0.6404823663016067 0.33507721972237126
Ni 5.560608190224178 7.813004023401573 3.3981466160087095 0.7677267759742779 1.1045703435684524 0.966018222192446
Ni 3.0802686345509955 8.328566510139758 3.533529357619535 -0.5381959121258538 -0.35860898429572435 1.0343113501418897
Ni 3.42287186567744 4.510110687169813 9.592400465855782 1.7835230980311154 0.18700044668538116 -0.3752892731648827
Ni 7.203812197659246 6.389719667677988 11.480844121347811 -0.8558243402441583 -0.9690097007206022 -0.26893559089829167
Ni 0.7244069170266085 0.1700155783387686 13.103467890026677 0.6536081050502872 -0.49053048772909064 2.1366049818610233
Ni 4.5391922513176945 0.4067866894885262 1.9742119553430135 0.4643376313838068 0.8778707785212365 -1.0982809110153149
Ni 6.152331040070596 5.683765381081574 0.3847601142504309 0.5673128840964682 1.4653118008261472 0.7259671755389884
Ni 8.057979542000256 0.1821309233527094 11.40056880343782 -0.5354358328822133 -0.0014177062831330423 -0.3807767786420152
Ni 0.3454275947475717 4.821355376059753 6.012734067413349 -0.8106906811303135 -0.7890023975236025 -0.24317905075947796
Ni 8.334641487680202 9.060132246276995 2.198534371886656 -0.13719509312747985 0.08803174402895161 -0.062261062822750846
P 8.587905206521468 1.6056156531480936 3.7175146519276185 0.4267625013435102 0.6625424314254396 -1.0949639308269399
P 2.1197026580848504 3.2398939064757633 1.595975838712103 -0.8620865191037862 0.5534957757077177 0.7238257037159535
P 4.532224698366511 0.7895858702090357 8.439351512854815 -0.24467851812313993 0.9038594892755143 -1.7663478718034094
P 8.91167327489883 1.9712163629696224 12.447108007782923 -1.2413795141114234 0.18033151930563782 0.5378377574554866
P 6.5466307817211185 8.108309865671158 1.435638328041214 -0.4176651670279323 0.3102118239392593 -1.0365317548319761
P 1.751606380278192 2.9668569099129027 6.23805744352475 0.6722612013751003 -0.12320392105471041 -0.5710831497721778
P 6.98520408532681 3.7639631833530394 6.298124125502602 -0.6930128321001549 -0.46656703493495777 -1.1829105713412529
P 2.4000168766189476 8.41980046819467 10.459819822672571 -2.1321279199262766 0.3350736201779455 -0.8983249326105304
