# total energy = -381163.03949721484 ev
CRYSTAL
PRIMVEC
9.24842556876043 0.00000000000000 0.00000000000000
0.00000000000000 9.24842556876043 0.00000000000000
0.00000000000000 0.00000000000000 13.53600566507249
PRIMCOORD
 96 1
Ni 4.322760230992244 2.2497626919501124 12.723980763943603 0.337278084028432 -0.10313183289518368 0.08493999247750532
Ni 9.258228638626237 3.2219016697541982 3.251334783296272 -0.707605128092033 -0.5034551662105587 0.9088132337363638
Ni 6.274927093387969 2.1743510319903114 2.647033425259314 0.3504555019506545 0.41136853538594315 -1.04672515042521
Ni 2.9210318976408494 6.27509356504351 0.37434111244357304 -0.7422785111045023 0.7569096307541158 -1.656709605248276
Ni 6.6437357978124165 5.857638143500035 10.128613666666315 -1.7382958507622 -1.7888283122941127 0.8859802950022484
Ni 2.3642119551341367 6.222026100627353 6.5267635642044235 -0.22488256644313528 -1.35346289977294 0.031713529053197
Ni 1.708970270501817 8.706402845785735 0.2905799741158903 -1.172836989155335 0.6695155203091631 -0.27343682120275487
Ni 0.1706667412600175 4.556606664899967 13.611942424281157 -0.9654597785858147 3.219819228351203 -1.673878917938711
Ni 4.250058359647628 5.01400603534783 9.17669452111267 0.3179503302340976 -0.3464849473386807 1.0519756001908722
Ni 5.8883891576484695 6.146226006804625 5.77385110958149 1.046118884299779 -2.2270545913028483 -3.008071913738445
Ni 2.453838444792026 7.874451498797281 2.28432313248283 0.9502745862049441 -0.6956291866770794 -1.4699469856053138
Ni 8.45302373762794 0.14706013566185808 10.285617709219117 1.505182668879156 1.2264791999608233 -0.5826024632656869
Ni 1.3974740577098062 3.696382881745568 1.549967643239997 2.2284740973581942 -0.9785140406666116 0.03276099648110487
Ni 8.323934217181668 5.224056270938582 4.14107029160786 -0.5291376585783274 0.5226258256017386 4.867019865667779
Ni 1.2461698196741988 5.678311176781793 2.9923908976307723 -0.5672576053785005 0.5747084052295909 0.18894137246183587
Ni 8.301284823602865 1.734995339317966 8.209100219504839 -0.4834393852102642 -0.18559893835216423 -0.1349212094916386
Ni 5.046726964086825 6.985113672773928 8.31214987365447 2.0337328303851296 0.5861037915507261 0.7327389470451833
Ni 2.9637596225628853 3.364466145873935 6.420411297377378 -0.805321189288284 0.6422795674113455 -1.2914998278065821
Ni 4.182896295062386 0.18875203694942033 8.24419891839047 -0.1712753226406405 -0.6637644767579988 1.4675574023272144
Ni 2.573115385986723 7.111539646731554 4.441474867928226 3.0052902372282504 -0.36524063067962903 -0.1713894796210016
Ni 8.447715141501261 0.8481416403322886 13.620063466543936 1.5203244096166009 0.21607191013004082 -2.840936067187475
Ni 1.1524555260302618 6.914011779007563 12.485624797855797 0.41138653310807216 -1.3604820114032505 -1.2734267723549553
Ni 0.9276448036482602 4.544685444678212 5.397549330972663 0.8024551805943986 0.6037413021268312 -0.9616861704759955
Ni 2.8119744664112725 4.194651043628599 12.853492937426442 -0.5795222816784664 -1.1446296734831836 1.4424588074873739
P 2.014852689131993 1.6794955390458586 7.578931015881964 0.2791405564557515 -0.05952360928692974 0.6130929185450602
Ni 6.500699652001982 3.7188288099675986 4.2061921535702025 -0.20599935638538716 2.0712724792018005 -0.23577375943434234
P 8.290316191187815 4.820491984207423 11.45795734966115 -0.42458940495159136 -0.24294019527579452 -0.04532649185094129
Ni 5.602751542017067 1.2351549451326091 4.569051345994142 1.40001812182466 -2.601716515296377 1.3058586676314154
P 1.6626726534109704 7.5257766162679145 10.266951612420387 -0.38679830224574674 -0.7701978632225897 0.4266450019290394
P 8.401713474020266 0.9341002045131045 2.0687885806845516 -0.38919225639922006 0.8817816835398685 3.457591506272813
P 0.1349123290200628 5.582765694926912 7.065550927045988 -0.07633091065225564 -0.4028394148690095 1.1931209362153514
Ni 8.57875607968748 6.872134909213845 9.753504010079661 1.6905962306933915 -0.2328424447201603 1.0613855806508623
Ni 5.992544923464912 1.237522542011406 7.076204188158043 1.7435182755034038 -3.0899918884427042 0.7296196846899111
Ni 3.9459238934006264 0.2898678453671897 0.7206465484090814 0.0008883161422242766 0.5655743041388066 -0.9110814609452502
Ni 6.236814332694525 1.2911356635207223 0.5438776961309774 -1.1268463813578335 0.46431346301409065 0.6667251020482194
Ni 2.301711096904025 8.886626909758833 6.690644735816108 -1.0534233883809923 -0.6695898251905242 -0.01842863901883278
Ni 4.083142779692454 2.7362853536922374 8.43883295383565 0.09105818956010124 -0.6562972218466762 0.0010636653778239747
Ni 7.4841494539575075 8.324905301838987 8.357874088376231 -1.5077568573642355 0.9331548958055219 -1.365923494133796
Ni 0.42718938917993443 2.396451965757128 9.894089323183529 1.1350314882717873 0.09521926291632633 0.030278339268567205
Ni 4.7656580705574765 4.835030508791284 7.027975499862928 -1.1362473629567593 0.5038994528368289 1.8369333953314557
Ni 2.3160461561311148 1.5738507767548595 4.61175779953797 -1.7419419321552192 -0.3304955138889598 -0.0901107380451674
Ni 8.999994107181845 0.21061346469199788 6.545159606984169 0.024003562003448983 -0.07846466916580681 0.9306033330282617
Ni 3.275339071182666 5.794508392348992 11.306611493711657 -2.4028180316218295 2.2957547248827237 -1.2754031793550358
Ni 8.136551872020332 4.282825530513164 9.015155050788922 3.402489937312979 0.18915425980359035 1.032918326449105
Ni 1.04841998974282 5.332743765155847 10.456510112056646 -0.3614138007343711 -0.9560053180411341 0.2511278732929094
Ni 6.821851220815336 7.944378842549557 11.00658610282891 -3.9229231261387736 -0.19265070299262305 -1.1849484277068885
Ni 3.320822826846427 5.180209486554302 2.166735878591869 1.5595262766270432 -0.7011033224177732 2.256995601836655
Ni 3.9586312297735438 5.055781172463162 4.867114221026573 -0.4744140417832023 0.844886610285732 -1.1987519092488839
Ni 6.510909913541793 3.223150207170751 7.997559137754468 -0.8538340492870069 0.8595357276574745 -0.14138110618436942
Ni 7.845651902388792 4.1390032685515665 6.072130397766124 -0.1428803164377152 0.1020789661506371 1.7628174900526479
Ni 0.5255565655962257 7.513994122425777 7.895240109204154 0.5761055426874336 0.24966542981477002 -0.22147585475443146
Ni 3.760409730151467 0.742893635486994 2.88922008910961 1.5115744313381128 -0.0806177109530676 1.4162916621737027
Ni 2.8569958008096425 6.912041864417001 8.5725550105186 -0.9437051605175425 0.7979763188874386 1.2265918142792875
Ni 4.45544738888325 8.054222389930297 10.4320776220785 0.613568315519582 0.017169826911067203 -2.9548716755663818
Ni 7.624272345795984 8.199246947181908 1.373106306708815 1.090757091834444 -1.6535384066091456 -1.2707872778495792
Ni 9.332955915113258 2.7825737223577764 12.210654315974413 -2.5195931663320605 3.0207232839538687 -0.22584338769450782
P 0.6164426907810375 0.922697820951118 11.842867562546479 0.7594781628122405 -3.1029119389384823 -1.318016128929556
Ni 3.8450420701431445 1.2249909257193368 6.199355435670343 1.0360553294161898 0.03241441177496353 -0.09535167472913256
P 1.4223893154890193 8.810641847429949 3.7829074495552213 -0.15551703136511927 1.8827023740364544 0.8928291996032817
Ni 5.487534659532495 3.0762944617081955 6.0372749324660875 -0.6639825063060758 0.19030328580636902 -0.7980398251355224
P 4.968041361568064 4.7199616011116365 0.27772188841045603 -0.6275193783830354 -0.12282725444158202 -1.067614849390026
P 6.400474466941354 8.239264883488758 6.190245736742161 0.022001443971755658 2.4387363427849933 0.5425598455215043
P 2.9033304116017207 3.5383642869364977 10.830225106106882 -0.11343167215929495 -0.439562738431972 -1.7441520524326608
Ni 4.296180256657627 1.4909478922957407 10.564553915872487 0.3087781768165263 0.16911302488199909 -0.6556529033944579
Ni 8.161670595156316 3.014903414515019 1.2221174399762034 -0.83055425282346 -0.205907053781897 -0.14999764420878683
Ni 7.083581657026075 7.502267119135487 3.6395207884256213 -0.2586720041887545 -2.2862393291931205 1.1070702271721709
Ni 8.56849957602113 9.131654689863685 4.374674416772518 -0.3404924772006716 0.9920879226963044 -2.2641862060478233
Ni 7.067766849749737 5.6892705607715355 13.562129480730814 0.6965056757447617 0.0062976600832536705 0.028666771807073207
Ni 8.38719344628702 8.014074975669137 12.27792828650588 2.326280404275406 0.44559557488961327 3.0487909887243623
Ni 2.1055150024243563 4.285156133690729 8.450433253699225 -0.9006162997478684 0.09018427159558016 0.4538282472120507
Ni 1.7196152080310947 1.3340483569489143 2.273832643656193 -1.8232589831681567 -0.29356495941119765 -1.0494744310355733
Ni 4.277110003672943 2.8660870028872103 4.046359017715742 -2.1067012523230555 1.1352518318127096 -1.6834927868793912
Ni 5.227394952474698 6.376844740279924 12.173795641752706 1.0361262918634415 1.378466106685497 1.0827504194798836
Ni 7.94894756465161 2.165777741729981 4.722022150270215 -0.14365781803368807 -1.5507061072322517 0.895905010315128
Ni 1.8526907997850286 1.8781332178067864 13.29893594363638 1.609060378801429 -0.20824007279044784 1.3975884293372447
Ni 6.569877873304325 3.3690533648266037 12.848213936260748 0.5202123310642396 0.2584295491606453 -0.14525858686190468
Ni 7.928443805744218 6.869480611150506 5.90089950256233 0.5096782643021351 0.008800629010765488 0.5336512301779648
Ni 5.739267547985502 4.689155096411355 2.2756055667876978 0.5810616011411284 0.656968793992404 -0.3727042860465259
Ni 7.099100514692563 5.825324145474581 7.810491239053598 -0.3161104488118814 0.3603735323953149 -0.06939613120563533
Ni 0.47274065834844164 2.5009406748846517 6.250142238405595 0.19592937374389482 -1.0040049858488644 0.8240971843442065
Ni 3.5057635877265025 8.0868323375656 12.279809416213487 -1.5727618014807108 0.5754941343556799 2.212898868627757
Ni 0.5968110583801705 7.474179651475699 5.285119923875862 1.4888024277489198 -0.4028193602643514 0.40817393970804544
Ni 2.1467999729983753 0.3567580062483837 10.243615985683745 -0.3881085364167381 0.14086997087590578 -0.04641278293658458
Ni 8.256383718733497 5.593290402927187 2.259836076795368 -0.9770531398503688 0.6567438224657915 -5.822141238442064
Ni 4.88132812588213 7.331513442677576 0.9454831663819447 0.9884971200212525 -0.41313694014027563 0.9817024656969222
Ni 6.629539464964943 3.036415251780962 10.23794392644247 0.014881030876890501 -0.7907803153596317 1.1904210207856853
Ni 6.057570601804054 9.132163353255615 2.6272843378570374 -2.078286705736105 0.7496665760384572 -0.34962503562955916
Ni 6.643005172213099 1.0759433034588326 11.818638537925102 -0.3872852691844943 -0.09301068530078174 -1.05143181187226
P 2.0136411454166714 3.6213504072233866 3.7366005840390666 2.252397698053327 0.18729432377671615 -0.38820572411623466
Ni 4.410037620621952 7.560541446999935 6.246988525375636 -3.181955877646526 2.3083492737182825 -0.263839664432623
P 6.095008227450028 8.614353268697203 13.22532680176907 0.042351468383017385 -0.8942381641356663 -0.9311682043927964
Ni 3.789459034043267 2.889097085053016 1.408733090679522 0.3398239903787373 -0.3381674286119208 0.26621844907744474
P 0.25853880463701734 6.851122486914522 1.005541515488267 0.499810627479436 0.17553384080667836 -0.5446766347541909
P 6.08718405963963 0.3159706009559244 9.718310052413361 -0.3005372769639727 0.6745494831886447 -0.39220867462804065
P 4.978556821143031 6.646584312807218 3.132623845730413 -0.4550960581808808 -0.14334337211706283 0.7092064111408818
Ni 4.923075517721539 4.319560275835745 11.291979560032187 1.1246874260333017 -2.111458050281751 0.25746487125453077
