# total energy = -340870.378754389 ev
CRYSTAL
PRIMVEC
9.25608967576270 0.00000000000000 0.00000000000000
0.00000000000000 9.25608967576270 0.00000000000000
0.00000000000000 0.00000000000000 13.54722286036403
PRIMCOORD
 96 1
Ni 1.6282571952447498 7.304304093918923 3.0983583680578946 1.0125809004433335 -0.9209791796749365 -1.224917254790342
Ni 3.794311695722289 6.773541416615928 11.185738730942779 0.0971866710553423 -1.2032243431979408 -0.2453061244048098
Ni 8.107084725959814 0.5232837570828975 4.393798059854685 -1.3749706919377287 -1.0135383792605963 0.4510038903893781
Ni 1.647972665626937 6.541444975379616 0.8806252693466337 0.9327314351148581 -0.7346580184447671 -0.06041038276725724
Ni 5.386534935005605 2.950915343476216 13.206238449072426 -0.7927454095058025 0.3982731356545657 0.28926633203584373
Ni 4.579144770452822 0.08238382353833676 7.5651073707624255 0.6279721496497379 -0.8027315741842368 -0.9810391210813103
Ni 1.903107513333326 5.177560205043801 11.618030501362723 0.4136521892137973 0.5933740999598942 0.1361900489017332
Ni 7.768746890804842 7.767284428682594 10.941536250404653 0.7443958145578212 2.053730356552979 -0.6430843227008279
Ni 3.6028217186017772 0.5297741269570712 3.0889699165984332 -0.8024181567088762 -0.9570198753485778 0.2831802737427639
Ni 0.48968045019299505 2.573757469456037 1.7712989493256157 -0.11525355585938216 0.19649347377748094 -0.1767024071934828
Ni 0.6763248645223913 6.8105194936942555 6.517230119949175 -1.3146706094960907 -1.4078173061541044 0.5149392555907584
Ni 2.8403420997271045 5.246601375738981 2.7658555716489 1.9236466776592998 1.1462371271796195 1.951971749856238
Ni 0.5762554310031882 0.2379999750437105 3.0513624254421767 -0.43392919429527843 1.2616858297689433 -1.5330750244140499
Ni 0.9948352306136617 8.06780188262554 12.605094319331837 0.3171347763113377 0.6155007566556044 -0.1983860628145035
Ni 2.3589143788264844 8.225423828699844 9.780390382614454 0.23100127774636345 1.2668671168595664 0.809926035050147
Ni 8.435305655421015 5.758870386458122 1.8750439759381365 1.6796034791273138 0.2732259907435295 0.5182256396515139
Ni 8.39954938214102 5.511168178524924 11.3043980943754 1.526384756878068 -0.47765800264179675 -1.647572418833698
Ni 7.800448996935823 2.2233959741947458 2.782802545697138 -1.6360376787212212 -0.5732932700496192 0.15946393182800922
Ni 5.876617099477748 0.6270408166116139 5.4974090016596096 -0.2011481989406729 -1.0191894068987868 -0.3399988253937048
Ni 2.9799331836866183 3.0825832149253305 12.657576346123857 0.5598965370277389 0.02873670581306019 -0.854321787556703
Ni 8.820479302845406 2.4356103354400065 7.861900174338332 -0.24077892595841757 0.3009921051132042 0.3899221925867091
Ni 1.2049021791224592 8.42847466145761 4.930674384194035 -0.7580113484587268 0.8003540750909958 2.5905813246151643
Ni 4.220739733519173 1.9607266697319714 10.905243123940542 0.03418538763245725 -0.03856346209549488 0.5314177128617558
Ni 4.379676044285623 0.7966345886917017 13.213405439080374 -1.7432035724764623 -0.05537127768145302 0.4369738946588732
P 7.824061280947542 0.9620131376675415 6.388666740878551 0.10370467467951816 0.041517145407180114 0.9550948904117227
P 1.482982872405112 2.302322648349164 8.826394869569 0.07232204660317866 -0.3210508235362922 -0.9147769075189665
P 9.098967264060837 3.939336104148631 6.341197812095449 -0.47929065314921326 0.2830368061863641 0.1764856631969864
P 1.833187014146921 1.1626481310967858 4.592196782089405 0.9375728223675596 1.316031237289043 0.46030022808963955
P 5.740089781103447 0.07055546691796256 2.635612212355569 0.1804004248703603 0.09740855725816128 -0.01425393881585287
P 9.04755894363705 6.379370850312903 13.44068686262053 -0.5486201927829714 -0.9512410638832715 -0.5935332512455779
P 7.5879662090985045 4.177948832309385 9.395134355994568 0.7824905645470136 -0.8232381787780209 1.2385520719649572
P 4.729565478988467 4.014847281321346 7.150576184647337 -0.4821317221424342 -0.40015158362420117 0.31327683601782824
Ni 5.137323984503253 5.834964697261859 4.343700401687291 -0.7785711748879495 -0.3806716205227186 0.0632203414122266
Ni 0.46678551310832833 3.564982825210988 10.556741177035956 -2.0839747572598175 0.5299131032917713 -0.8620178706493798
Ni 1.0689209700216553 5.418042663259579 9.07388881549112 -0.9736957933423618 0.07479544784433571 1.154903544605366
Ni 0.029466760545395772 2.608597389887282 4.602005460006778 0.5463769052747494 -0.22254543366952637 -0.6328580169871294
Ni 4.727630956307774 6.777789961641949 7.207190129739172 -0.8778067580525204 -0.1817224861158935 -2.108077563845292
Ni 6.621982209086382 7.594973068760155 4.105607865749767 -0.4399658874076617 0.7752901901438325 -0.44052895899998323
Ni 2.9091611242771336 3.687885180016003 9.626737447666855 -0.8493824412735564 1.5998437452991672 0.4064477010455581
Ni 4.899914547962069 4.026056405562111 1.7788176707300527 -2.111646769253789 -0.5844184334285032 0.3649948332174101
Ni 7.86585252450415 8.124643527516156 13.174727943991638 -0.8601635910494605 -0.021690340489240064 1.287828549602582
Ni 6.708063840332551 1.1406186383692714 0.5839722327203852 0.7140637392331831 -0.5496581471291824 1.8653098895916196
Ni 2.7599807317185836 6.92224049252665 5.574099404619503 1.8699484168048959 -0.6235711923685647 -0.46365371794290466
Ni 5.347964810553692 3.610513528877645 9.289479798142683 0.07242463361931398 0.11626631339461266 -0.5051176415146461
Ni 6.799180784202152 4.887909400034513 7.512734565825105 0.06198698322575776 1.5414709617872293 -0.07171526625711519
Ni 6.553163184536352 2.6223149143503814 7.150006935150385 -1.2734470840699292 -1.3945686686743144 2.1070468085879326
Ni 6.723771424012631 2.7782522521572863 5.024326570945177 1.4150778443712597 1.7324085387434873 -1.9797784876558615
Ni 1.2154170966596258 4.735350534851785 4.895803918667831 1.6036008983487542 0.9372568337890375 0.029557144831826514
Ni 7.97931366814023 5.425799266161115 5.244495615404734 -0.23445169818880915 0.3333604941415807 -0.9205739738167177
Ni 6.240788680095951 5.971056979435239 1.9516538509204129 -1.7852796757109062 1.9241873806541185 -0.025740856409529864
Ni 8.649112064039862 0.7623953884613033 12.021737616555308 -0.21127217474855225 0.5695649133554385 -1.1569668548922978
Ni 6.4338336802325236 6.127049853778432 10.153656996658732 -1.4130495010873214 -1.4011002991452453 -1.1756526042272593
Ni 7.103548771327722 3.802299700858358 1.173841519985602 1.5895076534804817 -0.28184021477510174 -2.428710583117875
Ni 2.482723830390867 0.3157937038578563 6.625011727140883 0.05842986200211872 -0.977886691495258 0.03812611744776015
Ni 1.0298417606537706 1.833908989118663 13.173590370606675 0.5691026290070391 -0.26145728024337556 1.0274210507799595
Ni 2.4774941398904278 5.110027776917774 7.324075100837398 0.6806594527411245 -2.358719755751035 -2.6293617878174715
P 3.2926686756128904 1.9367811665025265 1.2057824332226217 0.20901834571736905 0.1928779885120807 -1.1113485428325505
P 4.584106034361203 8.136852309410102 5.354769887466829 0.5565597593450221 -0.5192908476912347 -0.07835411172987151
P 5.617983449985225 7.69941878133884 11.796447177841074 1.0616516898280555 0.4402091137667193 0.4728698372245339
P 8.939956904579338 7.352000722500806 3.9140225509086286 -2.5048121513681445 -0.20934461870853624 0.06524431382079086
P 0.7487315493166156 6.990707785680189 10.680806096667263 -0.768506848673412 -0.03379303729004503 -0.5520515870620235
P 6.6597563098515025 4.278904999191317 3.143728015769317 -0.27140642103628737 -1.158472750013863 2.7762445405463603
P 8.997603829246128 0.2817174108005689 0.914814486694373 0.7739542449412283 1.4242890785568825 -0.5699114980615798
P 0.8250887330587823 4.622361451774152 2.763606341929242 -0.2668077459220115 -0.9467336629312212 -0.7568780061852319
Ni 2.5061509926149594 2.6596354667358177 2.9712852193776618 0.2029104330474183 0.7553754534977765 1.8300047865324225
Ni 0.08339551410771377 8.9735009724972 7.346631265050709 1.1551547413842234 1.0576150578648367 -0.7477428766531832
Ni 5.0793716088868806 8.093441250211765 9.527503839018786 0.4513504750955194 0.20065814667813184 0.592713840668076
Ni 3.646649301822274 2.141146363952438 8.091783484603573 0.0027539085960533215 0.04190152532979235 -0.5427979296742393
Ni 1.7196055413488838 2.4950529414467706 6.448586035488453 -0.34214338254053334 1.0675788539457678 0.49348365682014367
Ni 2.236613669831254 4.093135285308454 0.9452272195745385 -0.6906389325513396 -0.5344300173255183 -0.10230753722167542
Ni 4.1086207228433835 2.1614171996975036 5.584394952838332 -0.7431213187207718 1.0567845915437413 0.3391817288090481
Ni 5.262040532827004 2.086285522189422 3.451344890267725 0.32094566541699565 0.2544003733965941 -1.2655756517416525
Ni 0.13933283906577573 4.260022576853447 13.040488730912395 -0.43550322365061767 -1.3622900111462668 0.8971813059243903
Ni 8.646177883705986 7.183345517883982 8.70425336531113 -0.2467243449085751 -0.2728783775961236 0.305864345603841
Ni 3.4797342420091364 7.802938884979396 13.150112299890987 -0.5679767429327122 0.5524323674402098 0.8737174184744952
Ni 1.7567687402148375 1.8682953611702242 10.91809983209118 0.9143825002940253 -1.9544837176448147 0.36136109311956477
Ni 6.896730710191764 5.731407569263779 12.950439939757397 -1.199547922787618 0.6650019487095256 1.310328273366995
Ni 0.1923119178575715 0.6519406226562721 9.432023574614835 0.009583015702744786 -0.6962148839772203 1.1498464417974326
Ni 7.366079234449776 1.8097135714759225 9.994585546987315 -0.06633086201675027 1.378458393376013 0.18581979611371868
Ni 3.6425951346732606 6.002833134281271 9.024035518083393 1.0094156153414744 -0.78009198240785 2.1413512382967577
Ni 3.9701496256990074 5.4105822552182445 13.321200930406155 0.15723478538717436 -0.876210102989362 -0.5462185253200141
Ni 1.859428027542931 9.03822880554069 1.3000714389231973 1.6216474714378202 0.27199880320464764 -1.6411752570581024
Ni 6.4720150489304205 3.838620595590613 11.370902170971165 0.6236146440119905 0.299798084805103 -0.207902486945371
Ni 6.2032274693866025 0.7585642930663796 11.889922573285032 0.293143812713379 -0.942620669204112 -1.6343767460790302
Ni 5.657895707397427 8.109713455344105 0.6210808206589893 0.23103830163188596 0.160351219528969 -0.024642738249344657
Ni 7.634505826507724 7.80884427000467 6.1751759649076075 -0.25930783800054047 0.06747988801952894 0.819797271417272
Ni 7.071069153688709 0.12345401773214092 8.373375938197494 0.2210217979361484 -0.9893239867979219 -0.362849247629317
Ni 7.6542768334261995 8.382268263266116 2.1397024140089536 0.26902352262640766 -0.34866035772344467 -0.023152783967379482
P 4.2459162966363335 4.363570448762146 11.185968281959434 0.12444859209508888 0.6193872361942043 0.9231697595683521
P 6.527838523989092 7.13380692751522 8.042552196402267 1.6191925821394242 0.5917365643564712 1.0786451390622585
P 5.322140321179841 1.1130169798342093 9.341514755817585 0.617405172767169 -0.0035720336219744932 -0.30871261368591346
P 4.1951373902904745 6.744440271601094 1.4846397124043664 -1.099870881210254 -0.8914246059462712 0.7482846080892661
P 3.501976624792421 4.665689206168057 5.284961386961938 -0.390497862584521 -0.24413601535610857 -0.7304537505554323
P 2.117154580276086 7.08620285982715 8.059039142808254 -0.5695510293983675 1.0789459581321288 -1.6804144050643832
P 2.6455291865187034 0.13646622818438447 11.801785164587272 0.6716150831506691 0.15338378707220038 0.35980891814109645
P 7.611356346965072 2.595574072127781 12.817826095973514 0.7635569608673043 0.5650603406168656 -0.5615476994779167
