# total energy = -340867.171332246 ev
CRYSTAL
PRIMVEC
9.33304334053822 0.00000000000000 0.00000000000000

0.00000000000000 9.33304334053822 0.00000000000000

0.00000000000000 0.00000000000000 13.65985232735603

PRIMCOORD
 96 1
Ni 2.9625692969792725 0.48812750230387025 13.343722791942987 0.4331213536820025 -0.6742823455701871 0.4805499794776111
Ni 2.334110154273861 9.209595224391446 6.41954350124606 -0.7092971710824753 0.7250356648636546 0.9356434665553305
Ni 7.933805525247454 4.015905906939256 12.515279862013312 -1.1317731292354896 -0.4709348249853503 -0.7414773553594456
Ni 4.861488971053383 4.654108746943098 8.649473558686841 -0.5291104048848178 0.14315131071091475 -0.7484190767846014
Ni 5.9141816010195045 0.7297702620006206 2.1844566701350856 -1.6311199297046295 -0.3406601131267875 -0.07786534501891106
Ni 9.284268904549249 2.278242556545501 2.8566299214673085 1.2437670405069936 0.6634487452897929 0.3874734739359004
Ni 4.196976281735099 7.191921906231859 12.326650655376474 1.3786435128036256 0.33383743377799924 1.2352443477479629
Ni 6.5894086241487075 6.757562066893756 8.756730759925373 0.26649921354265715 1.615386578129773 -0.9422509445695193
Ni 0.25551539539060836 5.880143991778722 6.122578193554884 -0.5497841311840854 0.0886925175414021 0.29257482758378645
Ni 5.3587535228353795 4.780160830959007 3.831533501392278 -0.20852520813103442 -0.782793440499413 -0.38609381997955444
Ni 6.5214267361010325 3.9185809304756174 0.5586974432833975 0.4729094322132178 -0.8398418487729731 0.04045013759524647
Ni 0.3302049417221734 4.675752074562889 4.207740080675981 2.338150673350431 -0.7869365161335092 -1.9746720196672312
Ni 2.234339920442226 3.1861423513699956 9.509142051884101 0.40685599222757024 -0.27000285582054145 0.6815076596740327
Ni 4.088703645375809 6.5406621385263835 2.118889240412224 1.1269029456273818 -1.0952840331705203 0.5880647719318388
Ni 6.968395517058083 2.7531264702799523 3.427366057418566 0.038216106058405155 0.23689784573645656 -0.9839683789129635
Ni 1.7543228328436586 8.69507387538263 9.615279287915918 -1.2961686940371613 -1.3284316678359251 0.571321491035229
Ni 1.3895594980595787 9.223641454692345 2.2038945996019845 -0.7033820911496208 0.44004070650965504 -1.3544738575359576
Ni 6.218177490295841 6.491859654643726 -0.0033944278806890427 0.05915671286581425 -0.08307105758956661 -0.03879383293874609
Ni 4.281934975707913 5.096579000986504 -0.012643473879487065 -1.561585473148917 0.16694661335829958 0.14534908969318194
Ni 8.426711545766647 7.680142738969622 4.849056423954495 0.9046513890491904 0.15652438958371107 -0.4258870407170923
Ni 8.612047121391402 3.4807305329099156 6.450920259816553 1.6616700345773445 -0.3598109750236255 0.7904152187107291
Ni 3.023430072920909 3.601434783063755 3.821658208182058 1.6548861788862919 0.615923703125636 -1.0329491796870405
Ni 4.008542135705097 5.09142716103561 11.163063737163009 0.6355188516487442 -1.002722005371383 -0.21999181400973722
Ni 4.370916211381515 6.921151651421437 9.654783260669817 -0.4705507021730541 0.04159556405359933 0.02721718384474022
P 3.817112082747129 1.6058154464330892 10.398016437759503 -0.15965625034447342 0.9595367282331604 -0.13518937555136074
P 4.854629184162246 4.0419077658218505 1.685175247676661 -0.8672120132558097 0.2605512234893384 3.82182683561638
P 0.3938646973762616 7.874578031898946 0.7058562049242126 -0.3102907568063108 -0.27927296826855774 -0.2888097041143994
P 0.5334338281328966 7.990811754269309 6.51285340244362 -1.2022838336615425 0.9446477269364699 -0.0047580835102756765
P 1.3029955206238053 1.5655993624685882 12.14392273207469 -0.04415586858160783 0.6158321718530942 0.05224558756827777
P 0.2573101396343711 7.353999537730473 10.581372474881388 -0.4151020342864464 0.1349258374773289 1.2910732817921249
P 1.4296635855034086 2.4527984670556116 7.481706370339306 1.3938950396460577 1.4077013494015305 -0.20486884232536975
P 2.7738084944306447 5.322541314484889 9.454940402400732 -1.1403428731823717 -0.6487811159752891 -2.218235450349322
Ni 4.793413752571817 1.646731508651788 12.271628631379183 0.6308314734754039 0.3069771190520455 0.2802219624453884
Ni 6.540494143745376 7.036312073802031 5.995185884508271 -0.7632653977688144 0.32964113630846453 -0.33613420023197593
Ni 7.701954061370421 1.6574085102891494 1.296313061557065 0.35197502391897445 0.32845071554478916 -1.914691782458857
Ni 6.411203493673379 9.003446962008548 13.31985913330088 -0.956770735452249 0.8698229685160955 -0.7776579190450607
Ni 7.215646502527464 0.20659158194388863 6.135077005261838 -0.09567589083777071 0.1172379332792626 -0.6745325139077802
Ni 0.49651324178915784 6.98541898820017 2.8367822713956197 -0.34003353528638214 -0.3740600287434719 -0.7618569474570621
Ni 6.324406190152874 5.308056431144692 10.41627933706369 0.7918933459181523 -0.714289482090744 1.5021544235757938
Ni 8.729643468096603 5.327543825741554 10.502951577802781 -0.9933966142053989 0.9468509052353757 -1.8152803358380545
Ni 3.6401949122595254 8.962829557178306 2.4647970276368976 0.41787599748715776 0.7560840495290269 0.492388623983752
Ni 7.399600787730601 5.264667112427828 7.165289133616148 -0.38598480520551587 -0.6311618602316291 1.1068884501786678
Ni 8.631151861209302 5.860395271966959 0.06846627299957864 0.7712790121019104 0.089778037296097 1.2492239498565065
Ni 0.810561752100111 0.1501070700474956 4.377108685670317 -0.4735370384948877 0.12505357266893946 0.8201829368914648
Ni 9.453532979457625 0.34325906951078977 10.836907469663112 -2.250137955484873 -0.559516785090817 2.595405485476685
Ni 1.5955304326180788 2.4809189267875773 5.098854396964816 -1.6606264238041788 -0.36334752742197424 1.0561438726359489
Ni 1.9812184506809731 7.355054171633465 4.776877466294651 -1.271525184456868 -0.6394408124109697 0.9458108940066356
Ni 5.281671917483137 9.16928580999305 8.968048595041605 -0.07266888841963613 0.12089147087144987 -0.0778558319372143
Ni 3.2103335998350655 1.2631434253514866 8.374350372439649 -0.2023843853406192 0.352989838336734 -0.5759340501065758
Ni 2.9289796738211757 3.2295036709566913 12.03264952226574 -0.2135727978572709 -2.0852081154462865 0.8097581420137151
Ni 3.530503653305062 8.811316930796384 11.00403521093968 0.740180490924893 1.9467590953070475 -0.3174595066406081
Ni 5.944056672908659 2.162559483735106 9.87422924327379 -0.8408859737667712 1.1557422384565772 -1.2438074068266256
Ni 2.199583666860466 6.369867444502162 11.30860974890615 -1.7754490627737294 0.8802662753366066 -0.6036546559502959
Ni 7.493397873793084 7.988487826465374 1.3586839239190909 1.5731196990407619 -0.3569372530202562 1.5129831387601813
Ni 7.242367005751035 5.435284478627654 2.2810452694753085 0.3791564694297728 -1.0615804702704879 -1.4581967870479209
Ni 3.6945972221757652 2.3280903412877616 1.1065834891046278 1.0069458136447431 0.12709014348299402 0.4688825704420118
P 8.152273404904228 3.7405437947812974 8.675262624180158 0.21048567429151493 0.5951674444148912 1.011990318047186
P 8.534069543873786 1.9727440472834872 5.000298392078129 -0.6979028132026045 -0.9076788630216046 -2.34716161859979
P 5.589055701509789 4.281813646143852 12.210651192395181 2.282860642528875 -1.2630852812196312 -0.08832484978933822
P 4.660613878185441 8.299614160891135 0.6909662675009207 -0.1553349972613002 -0.6124074624422614 -0.31210672696912706
P 9.14041870678994 4.444115270683809 1.837482116051015 -0.24715680446030341 -0.8603489675873892 0.38379988173905516
P 3.509121650900172 8.772435472036552 4.737277363193844 1.0484593595074976 0.5927714333788887 -1.2813087462061934
P 2.168933952369999 1.9546286100648527 2.6864008098724788 -0.0013801681769782682 -0.7720734829787478 0.564155569414409
P 3.3162449762168618 8.466731635819974 8.418566598800805 1.3152485934867477 -0.7389440474146306 -1.996889436304535
Ni 7.6552981774673015 9.077094007393528 8.66079734023108 0.897630734756983 0.5126517451081622 -0.49962345116929435
Ni 9.176397589055698 7.086355852455467 8.556558445224647 -1.1866358427116401 -0.27426497353100504 -1.1105167909598745
Ni 3.82792908003533 2.450269212297111 6.041739104934108 -0.385005214901066 0.8964081752037916 0.15994447100885356
Ni 1.9578391769907721 6.783059941433328 7.602854873358476 2.0763902600443402 0.38989236779003816 0.6859726374239219
Ni 7.592029476331224 4.972841511731142 4.754120706598516 -1.4005968771462654 0.9627089553135549 0.2721661820204474
Ni 6.398370559013089 2.947188441473703 5.640972621971458 -0.7008503258667027 0.01030626702201451 2.05797936163732
Ni 8.220255292951904 2.656305478159336 10.671841397671244 0.37179257286553385 -0.7009986785191089 -0.9562012361020242
Ni 5.673454412879245 8.780919208477426 4.213627364445952 0.40624201279265515 0.33053150933321784 0.03470629313293378
Ni 4.495493674541915 7.194441827946971 7.161369255392642 -0.0492214560299733 -0.7681314676118642 -0.3839148100503646
Ni 0.12333896830263927 0.9954810739897022 6.654902322828793 -0.25951969690103044 -1.29576631639242 -0.48451770587610743
Ni 9.114948831380536 0.37979140124953353 13.32702971053688 -0.9470707345556657 0.3606728088032885 0.8522196536120356
Ni 2.5100286891188097 6.986044302107252 0.5453026594110717 -0.8529141085758989 1.776525326557044 -1.366631575944414
Ni 6.773708231957248 0.2877955925611863 10.818643637054588 1.552947594968261 0.6981902625360363 1.7735353906907843
Ni 0.9476118944459735 4.652830119998764 8.035995817229937 -0.2519909926241531 -0.7531172535912192 0.8064427044872369
Ni 2.7184728801754745 4.836317753032437 6.19378651470224 0.5940950372863187 0.031234018313617176 -0.5531268224040733
Ni 0.4668145644200608 1.0487820847860043 8.926139497006284 -0.2583891828410131 2.146448707424323 -1.8921884591500184
Ni 1.9056114661842398 5.0485791588353255 1.5200139786422218 -0.4921675091118814 -1.714636816582363 0.5057938416460643
Ni 0.6805169921222585 4.147987136984654 11.750068301046158 1.8945276488061564 -1.366187289318144 0.3255265999194587
Ni 8.083638203819305 7.621801884743098 12.254048910851095 0.1771083843826498 0.008075063698650608 -0.8660478177443794
Ni 4.390879591191232 6.803116651676938 4.614284650800948 -0.3670157203021808 -1.0897304503421428 0.41018762770396455
Ni 7.935168149582292 0.2257243208919572 3.354449789330969 -0.030641636145256904 0.26440170758368015 0.11576237717500062
Ni 1.5132783212281626 8.332559804055371 12.315791659393023 -0.7250112393836223 -0.39613140672121455 0.23857394788729883
Ni 4.647108964401122 0.3175782673207871 6.4219066278322305 1.8269685708092602 -0.38426550852156405 0.5292075925843144
Ni 1.4568507408964444 2.1265619353825693 0.6338853741319512 -1.712153130928561 0.5559414090347328 -0.19377761750821465
P 6.88247551961617 1.7292822774301622 12.768697189250005 1.923584971183429 0.7514573493902929 -0.14334620033054024
P 5.01456021568132 1.9110152983066455 4.295831877314583 0.20386045566551345 -0.2378226715435711 -0.7997467805243
P 6.4060236545923175 1.4194065708185657 7.71766623991631 -0.6852095340056522 -0.16033399313778837 0.41165624182969107
P 6.847271279951724 6.923400914878259 3.5410845245955134 -1.064553951076515 1.9184741323194248 1.8089201979479814
P 2.40536794055118 5.698532300466299 3.556246986885773 0.7144337209780921 0.0539042062176233 0.3819003507234971
P 6.038899059830744 7.718464215126096 10.897407056825584 -0.2689330197951304 -1.5450208839220165 0.3970634316171807
P 5.157878429967439 5.074674348151813 6.43448757032101 -0.06163757030613901 0.05898316340242745 -0.5591504028903338
P 2.156838328137464 4.991554263726692 13.016678018712431 -0.14719025666697874 0.6702575406815102 0.26183934617314264
