# total energy = -340858.051141972 ev
CRYSTAL
PRIMVEC
9.29885776924911 0.00000000000000 0.00000000000000
0.00000000000000 9.29885776924911 0.00000000000000
0.00000000000000 0.00000000000000 13.60981828824739
PRIMCOORD
 96 1
Ni 7.87992622219785 2.6796145655290786 12.405362138388037 -0.7159892383906701 1.2027584593051157 1.1024867215665464
Ni 2.48717470991244 3.365340212919162 5.4003756455359575 -0.8621145441282443 1.065777796181287 0.5176515123155988
Ni 0.9216757870567737 0.8308129310445764 3.488917379443314 -1.9892344908624384 -3.0050467537588763 1.9989373199724993
Ni 2.027439195938697 1.833734695704331 7.384319435596575 0.5477069369400825 1.6623066397200792 -0.8311144962023042
Ni 5.882429347355338 3.787926791247171 8.911667935855558 -0.016146527852875417 1.4716480274568202 -0.42290764637379424
Ni 5.590277842945406 9.175368655909624 0.4986326348263354 0.09219718826055089 0.6505693182239635 0.37854891775276095
Ni 0.7878066450701192 8.113113671306253 5.366923005739829 0.5407027377081075 -0.4483122024898279 0.08900336391360156
Ni 7.149017426296471 4.876209277946262 11.706947270076258 0.057067434436953335 1.1360686712870498 -0.706833282923015
Ni 0.34757548466757204 4.5348854151647044 11.6732900554155 -0.5402993316221018 -1.0265687300819932 2.739669055415172
Ni 0.16982131467428965 2.9029359268477157 5.959712151898943 -0.48225796330765325 -0.582750558807777 1.6331066211173553
Ni 4.468965814465678 5.085228996455602 12.992666818403507 -0.26936033714053614 0.23292472002132145 -0.4702162016517708
Ni 8.1887040837879 4.592640618993404 4.815330587888926 -0.554883914304496 -1.520076555271853 0.46380772702226575
Ni 2.6419262961493137 3.57358812625739 11.54957712557209 0.9742028148857674 0.20828738108861547 -0.8078113026999895
Ni 7.885431145827956 0.14560708978780854 2.4094009256937183 -0.07381765731209868 1.4756995718183747 0.8109634751757259
Ni 2.5040521362446073 6.112492380349359 11.191013181016519 1.378934304571167 0.5901291106600353 1.8474798033887343
Ni 7.614685611344551 2.635603073060678 7.520622088586607 1.3575594384398169 -0.3332594497873422 1.898377104459234
Ni 3.0372951186237396 8.296161680864772 6.044433112543428 0.16827921612679408 0.47305109999740463 0.04386867635849219
Ni 1.640337057766914 9.092701812883195 10.591391234378685 0.9040934596631914 0.026325268158090144 -0.5565697866473511
Ni 6.2468422732679 2.860821401305906 5.901026132436166 0.8343749121211307 -0.6146386657656253 -2.6541245965844484
Ni 0.8133459571479688 8.626801156398033 12.636198836324667 0.12011628326832217 -0.583942265123033 1.3045301786279793
Ni -0.04965589896075623 7.708492485635958 3.1972866110524456 0.6002147770308115 -0.8527428731053572 -0.6694054770938601
Ni 1.56848478599355 2.2676193858745344 9.79312151486837 -0.21181801994969326 0.8325466006631403 0.38912695037892336
Ni 3.710634687846084 2.754182103687562 13.57752217935788 0.0171482296445124 -0.028804840046834257 0.16302593814765473
Ni 9.158426137575074 1.253197724165198 11.286690055547812 0.2757834670580605 -0.5329290072999595 -1.0400973606960473
P 5.166584700576886 0.19468459981310426 3.1043175638202833 -0.33652037992680106 -0.5115801093105382 0.2002215733613455
P 4.7132746971240955 8.314517625536784 8.09314623463239 0.976565401580673 -0.07635276502912657 -2.690316730234289
P 4.866166511864311 1.9154344575524969 7.613318679294508 0.8706619194776232 -0.5702074320354438 0.8980274559747695
P 7.821826960642268 1.4433035665535312 4.832492559260081 -0.22067058524431674 0.8826805412050541 -0.04222419877653373
P 1.5674061185254886 3.774768907908319 7.581907138715962 -0.998401523619158 3.2607231656544164 0.4648667644143994
P 4.464483765158733 3.2583196621440043 4.681899422089734 0.7762602673665856 1.1535884253383681 -1.5943811795226994
P 0.8994096728130414 4.803668890719135 4.172144423827638 2.210564049846993 2.906852467374626 2.473979996478636
P 3.6974489079347816 1.1050204301690085 12.041844692451116 -0.2770312234222325 -0.13956076514617902 -0.13245937821470738
Ni 1.419498491396315 2.27877801485448 1.6174999936737076 -0.1754093994136721 1.4290661882305518 -1.038352610090799
Ni 1.5480830926752167 1.54065330554607 12.824000421828641 1.9381816380506816 0.6146353233315157 -0.46643179490867415
Ni 8.327331451148753 5.038455743314665 8.32935860208011 -0.6097044616888015 -0.13948774581639847 -0.04945414086606967
Ni 8.531878419208631 5.702068707609491 0.2107381473722521 -1.2312503960972216 0.5356734028143161 -0.5442362047826628
Ni 1.067248471071894 5.1434305454435 9.796251510297244 -0.08776074975575207 -1.451427072424255 -4.168699505311782
Ni 1.794195953685392 6.044638617293809 7.096390542369804 -1.189350670539642 -0.28190629212634677 -0.19393651168358214
Ni 6.589393585237252 4.436680181283703 0.50787755893622 -0.8203073782844711 -1.2552220764214705 -0.14664312591425713
Ni 7.132911805135417 8.576568728273312 4.438175437567016 0.4244379669753916 0.2962041968062576 0.9163149414300478
Ni 6.715309414418449 7.508771624609905 2.13272643967897 -0.4129448787341275 -1.0475515029812474 -0.7688125528392888
Ni 3.496370413716169 5.219978740245924 3.4392149861951413 -2.279812342620854 -0.9220143058076702 1.9053288531867187
Ni 2.8041355660877842 2.022789767197053 3.417724396665515 1.0500575572325528 1.2329331831162829 -1.913207484603847
Ni 3.976879575307577 1.5587767787809976 9.719043096613508 -0.6075077111477989 0.37785831944363957 -0.456034253724434
Ni 8.893129733576876 0.5029259173263694 6.482220533199368 -0.9102196271655874 -0.15212394652317027 0.6580918518532537
Ni 6.930949919455891 4.413990969024481 2.8705284786327097 0.9747982823779212 0.7879130211141656 -2.814277584059682
Ni 4.923298692241631 2.1655365284230026 2.0763818725304852 0.6200163851377708 0.23266786681550897 0.09405223919141865
Ni 3.2970494035618976 0.6585227697084738 1.1124325494689373 -1.8327772070712371 1.1744855805023515 -0.34220380346482354
Ni 7.27335244970551 2.2452928290571608 2.8479629411780154 0.4615207307603019 0.31912403882722457 0.21116161731261698
Ni 0.1867833606095547 0.7266415502022977 8.827858263244435 -1.608325300407617 -0.25386069884304024 0.33145530669906786
Ni 8.992125370343956 6.823157563509621 11.593863864221998 -0.0868580354358246 0.5924585301241603 -0.3434096508474666
Ni 2.145097639674736 6.206959473522079 1.5293486845036373 0.8581923262557026 0.26710882210219805 0.3614081443074163
Ni 4.548722115099836 3.8800598711915857 6.876646451524988 -0.30876712107293275 1.7393700576629851 -1.990270902546753
Ni 3.468743508133321 3.808495864000203 8.6902221540913 -2.006758101568499 -0.9120273697982874 3.3573272247334116
Ni 4.785247854044742 6.286371716429356 6.390625857103236 0.600357730366579 1.491775908554947 -1.364580092732024
Ni 5.250218624781576 6.797055670554032 11.283410348513458 0.11357411127443019 0.4152578431380203 0.843678963130876
P 6.632400801097457 1.906358772648808 0.5504886434676375 -0.4941488012079683 -0.316913404329151 -0.07006281825535675
P 3.5491321310763433 4.412298576962523 1.3584635805332594 -1.1501976544892645 -1.5610974777689048 -0.7386560838605665
P 7.312593628284985 8.036156326774567 6.987633894902516 0.10063786282873634 0.9465819678447053 -0.9472851645593169
P 4.761703146897058 4.824061285179985 10.588410950555291 -0.9415734588865203 -0.6395169170645437 0.03668887078060133
P 8.657189822653416 3.669096691468238 0.9171816492351007 0.27204945393692503 -1.0848417547912736 0.45120263666374555
P 8.654772119707761 3.3291583584516897 10.247989076949612 -0.6865079411021017 -0.7248034942481903 -0.9985244223502676
P 1.700361182821536 7.093856603705609 9.416905549152274 0.19855961227789026 1.162905846084552 -0.7526508554777619
P 7.599165818204945 9.357068331133064 10.447685760946209 0.25599162914311396 -0.590342512222422 0.2983677801164797
Ni 2.6965477850061457 8.330269890113472 3.3656944993892757 -1.2560741400091207 0.08446022462760938 1.395961178146467
Ni 5.408262006567534 0.08914907657802734 10.746693312978568 0.20772662348913903 -0.9886285033927941 1.2620118456497944
Ni 3.6292510871523502 8.028001228761722 9.721125110804016 -0.11854302524393134 -0.3073111053526965 2.2411627485694563
Ni 8.582631583352416 8.149481502923392 0.7890750092308396 1.4015013912384056 -2.21362520527082 -0.24178962661111905
Ni 1.5069635448841188 4.085025287838213 0.059151892222689614 0.2623476532681288 0.553116280881112 0.6566443207734498
Ni 5.646694011296512 5.2102149398884725 4.355794999351073 -0.38537571086660727 -0.36573505381754434 2.102488756903605
Ni 3.776805357697159 5.989059346116198 8.256423013409943 -1.2874667953877892 0.454106954794734 2.408086479109621
Ni 4.941989395783039 7.389523076244223 3.7790789283518227 -0.5280117725040003 0.7083849436808509 0.935658636063982
Ni 3.3347097763692126 7.930372524044684 12.936131624676614 -0.7690447234547529 0.6586929757723623 -1.9211174834795428
Ni 0.6379471877552032 2.9272524391665127 3.7547447482038074 -1.7422188399656897 -0.2323397940521289 -1.620301498932887
Ni 8.8607325141051 1.21335211984931 0.4840576056070304 -1.275681629827403 1.543578237938219 -0.695290315280422
Ni 2.2667452932711054 9.267492436996555 8.110076664452214 0.7311024398830247 -3.8445942112198823 1.7744856704191956
Ni 6.611645751194759 1.9436657888717583 9.874807328430313 1.1068162021798358 0.9106677704465994 1.4429856265251213
Ni 5.5912170275512185 3.1639083621161848 11.833124397152737 -1.3229081669145346 -0.7288745789937705 -0.19471169928670984
Ni 5.95687600036654 6.461078650825365 8.980207024707626 -1.4602210165668013 0.14540282574925278 -2.110412896846688
Ni 7.039932529160024 0.39489365085702977 8.350834313437762 -0.6317326451334345 -1.2728289908699564 -1.2001493038170425
Ni 0.24289173677796427 5.206188534598208 2.2958814034234907 -1.082869204445935 -0.1651247296582124 -0.37459636086291614
Ni 9.244859017882233 7.503229505549865 8.163685507729115 -0.15031491833888952 0.2936991709962168 -0.05490642222989254
Ni 4.826683562990272 5.928644669047278 1.8845111069918234 2.929748398136193 -0.27143316050916483 -1.4011607200695353
Ni 7.480577488720576 9.166525442443017 12.721613491737406 -0.2729709373099299 0.34270079770590006 -2.018419597066827
Ni 3.804701930147022 7.907320656343615 1.5164465197455754 1.3847002605206666 -0.7111257396507817 0.785388454920099
Ni 5.277985013226672 8.880250815962523 5.892370755890722 1.2347591805814282 -0.5321476490492448 1.4209800687883076
Ni 8.426475869635565 6.480494665250469 6.023542299321474 -0.13180477534984397 0.4348936150910768 0.7523456655325172
Ni 3.902023772567111 1.256052473412567 5.042342665742679 0.873577036241889 -1.7034522607204534 2.136136012644405
P 1.583679119121242 0.9504269245093508 5.539685549036084 1.0705610765025433 -0.8534360425176398 -0.404002324828859
P 5.234856912219185 7.057488772088471 13.598725434191271 0.852528443101706 0.09437491263816004 -0.055224981911575856
P 1.0348791481725697 9.507616833787493 1.588388060550779 1.199854141174127 -2.965107237251461 -1.9204345984799054
P 1.1001106334178326 6.3417650104573005 13.30838720699058 1.583180168600557 1.4595355604640026 -1.5385604730086537
P 2.7711525185945627 6.396358602741682 5.148159014473752 -0.2209174111478002 0.2072345143440689 -0.4867689638041294
P 7.539978590323818 6.477407444566018 3.890243979907282 -0.25512105361270254 -0.29478057698585364 -0.4894040874341313
P 7.595864723798377 6.358372769922453 10.062990167091101 2.0721633664471866 -0.13541794662239903 1.058445781296248
P 6.61093903802603 5.0999490878516465 6.721031931313665 0.39862897633208766 -0.9929345869673157 0.197903209640814
