# total energy = -340861.2627337154 ev
CRYSTAL
PRIMVEC
9.37780419767412 0.00000000000000 0.00000000000000
0.00000000000000 9.37780419767412 0.00000000000000
0.00000000000000 0.00000000000000 13.72536436627173
PRIMCOORD
 96 1
Ni 0.7334830934457524 7.301652262587096 1.8360690647554134 0.6903825935661595 -0.030698714635437455 -0.5892791039549141
Ni 1.1817721514322967 7.332964751387366 5.681683446234098 0.5492760811994153 -0.45445842459688185 0.7260756760923947
Ni 6.092600078234768 7.942193812456413 5.678389023557987 0.7507022163918232 2.459395928016874 -1.3149146071860967
Ni 9.007840612342216 4.3257092007755 6.291501433417746 -0.9678228795013525 -1.1470408540278374 0.07710918357917688
Ni 1.0568410415798866 2.8005874978474594 2.2519071684908485 -1.3051624128953394 1.8086283777391754 -0.09499660538255898
Ni 6.576382250210909 4.721386900670618 1.1548784840524182 -0.6656172136960214 -0.29388788996825516 -0.3498901163654877
Ni 1.1928754718095116 1.8851918796202158 11.860403653144637 -0.5085652337436144 -0.2911694625958276 0.035934766223396176
Ni 4.799935390095913 1.157849372477673 13.363302773050815 -0.39128359171061 -0.6474356576909882 -0.39629724287511753
Ni 8.631875057238403 4.976725758129065 3.7728698151796203 1.6398377691936015 -1.4486597940917632 -1.7318202703401848
Ni 2.2886156459271403 0.8970460684112842 2.3392548517589993 -1.6166996405142415 -1.996151529697246 -2.175626357429543
Ni 8.08747475779747 6.314619596757198 0.9160689445811998 0.023007259528450702 2.2116444273953655 -1.2836247959338796
Ni 8.795808455476655 8.930473726267874 5.440638238200441 -0.05983856942418727 -0.5901540503606998 1.7595563028028731
Ni 7.506032131084576 8.702471168555693 7.70443177373362 -0.20053936171208045 -2.7852436587211775 -1.1983078797329298
Ni 8.87045577828293 2.752741939938212 8.796407697176067 1.1098285066435984 -0.30072291061221756 -0.874258892800262
Ni 2.308046456587266 8.579406241773441 3.9260721918742516 1.1391308551521415 -0.3146410633552065 0.2729614242282331
Ni 6.375594080788153 3.758924082297056 12.615202495929417 1.1372333810191124 -0.3198634880964104 0.6292548730169033
Ni 8.73429943659646 2.7099697741945663 4.022561358844859 -0.2562572240996748 -1.2938616431705394 0.26655474937094087
Ni 6.806025923688302 1.1451424475527356 11.330371087783035 1.3141247642949498 0.09498452119770093 0.2503727402944398
Ni 4.830582054785726 7.601010533770751 13.496507919701212 0.5690707473278392 -0.2753522930579129 2.977836769002988
Ni 6.741919252996882 5.933421226813448 6.34018536703791 1.3284517224405832 -1.0804153435888038 -0.027341625237746463
Ni 8.259051066599428 3.0993174561381465 11.091989176191209 0.7626817573512026 -0.3801520005738227 1.223355566730177
Ni 4.046747654102354 2.7410947069073837 6.617231966058161 -0.3415769685141021 0.15688408691597497 -3.316867831166785
Ni 6.330271152255147 5.873243856154168 3.83552573953459 -1.2966608031822313 0.6587734513013106 -0.6837648311393256
Ni 1.725337826284066 6.388329139126207 3.6678702907408347 0.35514493700652383 -1.964479909625578 0.5500013894012141
P 4.656201782476344 7.579891718323548 3.317146033886441 -0.44042354377037046 -0.3059278518519247 0.46119137244534125
P 1.8961920441493312 7.194342047150891 7.879347518672678 -1.1860277768139962 -0.6139318695065878 -0.6585541362016529
P 4.9373202241552 1.7657374075214316 10.665912385641718 -1.5729194101044977 0.5728626102701038 0.7261808342116912
P 1.3748611434651095 4.909937035387069 5.35816232430388 0.8892381398179138 1.4871738910065615 -0.8032162271301392
P 3.2496249046229413 2.5803872733733226 2.6805637930232558 0.8206544772112447 2.3835172744106887 -0.39382229897206367
P 3.6899972201580966 5.1199623421168825 -0.3147791326940362 0.4700922744793969 -0.7309494592449282 0.4114580097759559
P 6.745492196462862 7.479971212732989 9.570545448138121 0.05403404692726823 1.604681275897127 -0.6223728011850894
P 8.732058141351397 8.917438578189893 1.8014405843289751 -0.7181939593514728 -0.55929875554274 -0.4300123757393756
Ni 3.221257046395683 0.5177410771703722 7.610357391388968 -0.8137274110741082 -0.6185619120794315 0.4401682332264549
Ni 9.4566717074215 6.253185600311984 12.189812160660004 -2.208892318571525 0.2991491383671945 2.0284695251036613
Ni 2.38428800613689 4.997375683357634 1.9088005021283558 -1.9792400986538883 -0.30815519852054674 -2.477752833257507
Ni 0.1060123273110313 1.2297302429940165 0.6322506330234595 0.406753405211435 0.18221048149590555 -0.02881589579042779
Ni 3.38113923314495 8.33125078246444 1.2942823593931359 -2.031909661133462 -1.1217640817389196 -0.4259351203462084
Ni 2.732138903731505 2.4738366600913015 9.837847570634754 0.8578267153861678 1.2598042964755143 1.2642700455563516
Ni 6.150995666063244 7.72335336961631 1.7518094924671752 0.5962056558714184 0.5392156116396197 -0.46226197980170064
Ni 0.7534550034181797 9.106382580689996 7.640746166458532 0.11531706210746592 0.3420680492179076 -0.3236437810744491
Ni 1.2340815442229247 4.41004379549872 8.3843310307745 -0.7202572696384048 1.5731253554677165 -0.3938562375337927
Ni 3.078958242845129 8.003027629421778 9.38795678366136 0.6124002633534098 -0.5793039950200733 0.5759857292801177
Ni 4.395742643830433 0.25707093792607505 2.633842633858288 3.084973095071874 1.6126900051342163 1.6572045426068231
Ni 7.393957991027065 9.37198075613212 13.433672879282724 0.3048898975057136 -0.13172018605583766 0.7787087289070782
Ni 7.030736872065681 0.9014686409534248 2.144491921645669 -0.42660232161656203 1.248888678004275 -0.37331492304733127
Ni 7.31955449113448 5.597170673227798 10.575324670962816 -0.47081706846056337 -0.390503776121792 0.8299191903426222
Ni 4.096168683146207 6.873611759801972 5.390458544782841 -0.7266986543883742 -0.405437771723805 -1.4035505604579506
Ni 6.483448208877971 3.3174826970634186 9.675064828993026 -0.4831205684182647 1.28273750823292 0.45350608798594155
Ni 4.995781456614284 1.9949684576064277 8.459491319479959 -0.6306424973930493 0.27857671353248153 0.3167701938830674
Ni 2.955527581692342 5.54117580331872 9.59903990672441 0.3290616096559107 -0.19421753325911068 2.0714799672269164
Ni 0.8255562523372804 8.71191461755895 12.921950476958719 -0.2477802969769152 -0.40389536693734956 -0.6433838562191178
Ni 5.3085687436595705 7.428871556706432 7.829236283226999 -0.2535953609967955 -0.47244689075450247 0.49009982794957535
Ni 1.712855968664072 2.440339142872204 7.436622312020426 -0.6266058654298305 -1.6526434055987023 -1.1667720139081776
Ni 7.4029419276160615 8.527912717963233 3.604500715473107 0.2714251900893648 -1.3733334134446218 0.014726507576897217
Ni 6.765119941014812 3.7045890837619364 4.862595065572632 0.6779073439172841 -0.09534961784660352 0.12785041868778627
Ni 9.046355254900678 6.812806076249725 7.4133306593000805 -0.12139103621568771 -0.844612530688739 0.6390705735557446
P 0.8297106196743632 3.6063003161322174 10.359658614902855 0.7355692174051267 0.8693948798397415 0.9824429434073725
P 4.893535255539309 4.527800885006055 5.434283837957534 -0.2890925254621408 0.9259920595084957 0.47928473961194223
P 1.5364500906101994 0.9145309846640857 5.617228859000455 0.9725398253610477 -0.742468001407489 0.5550523215615601
P 8.163163016889106 6.6810479248140275 4.625392881770885 -0.3463077983308681 3.615058976496084 2.731393445669941
P 5.176829347832618 0.3046285972410825 6.814615992493646 1.627825061003442 -0.29082776298569263 0.4233249364168709
P 8.573413824779319 1.746409752709405 6.199761186581449 0.06906754422162299 -0.24071773370317898 -0.5079653953760865
P 1.562210919221862 7.359485182153213 11.234279539717829 1.6830693261887273 0.29210714391874854 -0.1699118666342106
P 9.001791928521857 0.6890304251585285 10.223969287874143 0.4057655873768689 0.7642473020661096 -0.16752125491484698
Ni 5.35287886932033 9.35505381923949 9.3707597660028 -0.425244522037087 -1.9796121372813262 1.218318775637218
Ni 3.584712610466383 5.81242879479755 7.408580801385335 -1.5125799897844918 0.5435983140883477 -1.116150335096568
Ni 0.4330398102961824 0.5151284208721526 3.619145094781433 -1.0518228766630917 0.7127684174605272 -0.6883246825958662
Ni 3.8667125657562673 0.5908795112530876 5.1672836807617 -0.26938604817214895 0.21350877738855487 -0.6223108375989025
Ni 4.526478614589512 3.253122825653939 0.935505381923949 -0.25595743347106886 0.9930785687443476 0.05880575728429873
Ni 3.77615110892961 4.627890191075322 3.5492691988399616 -0.050710381870673955 -1.022763240292974 2.990579156270321
Ni 6.902017129246721 2.700882681757471 7.117082068046396 -0.25617417746756527 -0.2473295825927418 -1.3836718192561526
Ni 1.8647013770659808 3.003044916448547 4.455706200550015 0.5424253768261691 -0.602301227246195 0.869836081142218
Ni 1.819284670489249 4.772964824720179 12.209219526809198 0.9114956656645333 -0.285387822917044 -1.8066684257993275
Ni 9.156600723105523 3.9822471156272847 13.214465764291651 -0.7854432194174344 -0.053771794404817067 0.6941626294338819
Ni 2.1958597828772835 6.724739115386193 13.65024576902552 0.05300200611832807 -0.03263552664683412 -0.27346870288195485
Ni 6.866231427760699 1.0303299886184119 4.891280831368124 -0.7262150298837364 0.8189454649399379 0.5333046454718234
Ni 3.5507462030286536 9.216778093764802 11.543401980814282 -0.562575883632115 0.9455722956332684 0.6856193678495611
Ni 7.268323545846706 1.1287406677049752 8.697173646865586 0.5643586865641507 1.121524712034604 2.4273985491746712
Ni 1.9271294207746954 3.159175981448756 0.09413721363394774 1.4969278850695316 -1.1110767772284025 0.565267314421349
Ni 4.612163613142392 5.803735570144106 1.9129998829264274 0.0540139923226102 1.6065111300170138 -2.180385469381084
Ni 8.203581353735217 8.199895876616768 11.044416512389207 0.3235674193105589 -0.3530543730260823 0.4980062272808455
Ni 0.193267170315893 5.988281382393437 9.981825938948448 1.089211344613879 0.18387758478568333 -1.4774895738392617
Ni 1.9199929116471108 0.4937104534654629 9.86904471244124 -2.265517266154421 -1.044343794677227 -0.3561373828267802
Ni 5.404606838239854 4.478454878397184 7.657779072540572 0.49537958829127593 -0.3675991036094766 0.5541542352273231
Ni 4.455301079401117 4.015069430931551 11.480800447724674 -1.1503460071416705 0.043152624128074066 -0.6040218094817275
Ni 5.187154310446903 2.6040943628273756 3.5490225625849607 -0.47208719342223854 -1.0649110773056176 0.5279248692171489
Ni 5.814182444215235 8.386532939241198 11.771833104186294 0.955057095195252 0.9705832158553092 -2.3879182316918617
Ni 3.9322259071035828 6.837535346380396 11.749584263312187 -1.8328962491476046 -2.0605905740079224 -2.685215404451982
P 9.320065231125144 4.796221779564346 1.5909754585740838 1.7426222460516956 -0.5580252881469552 0.346969343174267
P 6.907550033826584 3.1494980873361835 2.452215194329725 0.7887740835628803 -0.6303159672915661 1.2739497347379607
P 6.682351439621825 6.584991074624998 12.57681257816911 1.0664126015518085 -0.6489865471178758 1.1679462367219369
P 7.83347692636431 2.1919023494320258 13.353434509509478 -0.8997976605013149 -0.17006433305167487 -1.2133732587064845
P 5.293498612032725 5.666838381912196 9.559167358092786 -1.2547775326848842 -0.5230256321433187 0.34931676036052095
P 2.361593719555083 0.6443161161293078 13.633747397792723 1.147398237367256 0.7366457382987571 0.09167859675291952
P 7.692340970555965 4.441318773081499 8.029091361114677 0.0974052148240516 2.2585117813708653 0.9433837726223818
P 3.359073259456111 3.738471090960312 8.337253515043374 -0.0057384451456739885 0.7741596760838151 -0.7394042748805008
