# total energy = -340855.14122012 ev
CRYSTAL
PRIMVEC
9.43913474851240 0.00000000000000 0.00000000000000
0.00000000000000 9.43913474851240 0.00000000000000
0.00000000000000 0.00000000000000 13.81512782680909
PRIMCOORD
 96 1
Ni 7.879969202112532 6.483269842290356 9.414167496877797 -0.27354069377047086 -1.396911457874878 -0.4147827032738147
Ni 9.174150117212985 2.773189531710533 3.5600207187551227 -2.62132863310035 -1.209667013499491 2.9938046051861535
Ni 7.234785449822759 0.30143027949433565 13.837370677483241 1.2638005621191009 -1.619991423891636 -2.2795763153506483
Ni 0.9470000924036756 3.5678514251119173 2.07630291771712 2.14761444559765 2.1763403527774328 -2.797522733198847
Ni 5.957925347360587 9.078607193221337 11.865827055125626 0.7055438746876301 -0.8663728051839659 -1.4332830545253765
Ni 4.168737317068475 7.7711642935122835 4.8116575647965805 0.3356618885812477 1.426139244391744 -0.8768433656979866
Ni 0.945159461087891 5.905698613667069 3.213827229574402 -0.20360154557717192 0.4517199426197962 -2.862469313273561
Ni 0.8856853595776587 8.961042767384946 7.43436274360954 0.67891110259145 -0.17464912420887985 0.27613519397052444
Ni 0.9624047606465492 6.907908206409328 12.916854909929967 -1.079333937599167 0.17862096437243433 0.6369298730636579
Ni 2.1204827888634257 0.6190618902215566 0.7326807576477035 1.6064684497045365 -1.399542467739822 1.8424167870435302
Ni 1.9024576497250074 0.4030000911533083 5.317595198263513 -3.2847395831736717 0.07605117462830774 -2.6311188797178944
Ni 8.124650458357491 8.73803376499148 8.442659634482823 -0.2642150454941708 1.1060605549607339 0.8588543853197339
Ni 0.7504168922239044 1.9938945500122123 11.231491700637038 -0.8636518067083772 1.0784605338552782 -1.6598018710203546
Ni 3.823727495410828 8.695585975109001 1.994158845790889 -0.9868942943105069 0.9967912417092446 0.7718428550251804
Ni 0.492962598560895 7.308089771865748 10.517001099956763 -4.128753818156779 2.968726322061287 -2.0572183151015797
Ni 6.174846107709533 4.14568694951388 7.96082955168519 -0.1465762772320637 -0.2343992476843189 -0.6497851317597712
Ni 3.244721518274724 4.829136954902066 13.475648867391765 0.5164937445620719 1.0157515848618313 0.007447200306664594
Ni 3.1474323543168197 7.768058818112832 13.587316665623183 -0.17092231017659595 0.32210471872210333 -0.7798664966606053
Ni 5.8552841938844775 2.1027088977474135 11.772312601235322 1.5799475205958724 1.7072078711081438 2.1459159748493044
Ni 0.8149692483387114 3.925962766083969 13.388613435733024 1.2918965490243686 1.1592463949550937 -0.7885974487756999
Ni 2.0696247297380554 7.3830459425254675 4.525103361987765 -2.013837119902467 0.34952142017215937 -0.4443362485612154
Ni 5.462087588293087 8.06761920497303 0.1932719516383496 0.0749851952576386 -1.6053034828621577 0.9631797243023864
Ni 8.138356082308873 8.66159565014418 2.0213048540014777 -0.09720569721873583 -0.7332261710942469 0.2659672522985871
Ni 8.171647911287192 3.044611857276609 10.43608600340138 -0.8904265036990601 0.31303155277624156 0.8209164726233797
P 0.96898383770861 4.176515164269533 10.982944174715437 0.5184472687440168 0.2453122950523969 -0.5928549942316307
P 2.8430957651705353 8.21771088985657 6.463256044450058 -0.1737734064721459 1.19619726114783 0.35672025191344375
P 7.845204868081586 8.18067172430201 10.6358945559945 0.5089485852249622 1.2722605199609962 1.844390108719817
P 4.173881645617719 6.896477413981558 11.919471546889044 0.7503702869737013 -1.4269285730622587 0.17122184369488577
P -0.0017755012846106368 8.690979677252063 0.09861819415925047 -0.7374582068977235 0.10516403283386405 0.6883249397061822
P 6.4663737907249494 4.635936740689358 10.041622665899329 0.4710147862936662 0.6813623923454202 1.3456642296641275
P 4.246553545618874 7.174101251211585 8.694205973578912 -0.4399031524905263 0.004596361121430794 -0.02482554368411208
P 1.519549701232104 9.112144439708429 3.043707588148137 0.2953657600653623 -0.47736104022666814 0.6830392658272108
Ni 5.938754464271569 8.009728990307867 9.665036106084278 -1.0506301419065711 0.5341711072371769 -0.27637302101294337
Ni 9.089575468036424 0.14474063927883024 4.168452255192902 0.27007201849558005 -0.08321323959438572 -0.6076660911025341
Ni 3.96219016603259 1.5326040248717454 3.868525629896538 2.2535184419213317 -1.275787816387964 0.4936122119782079
Ni 0.5554015323597834 4.683274002477355 4.881934756260224 -0.5047833981036791 -1.0027513159474215 0.25157935900803124
Ni 4.747110872162745 1.4298024061014398 10.24970650810552 -2.1296722592969326 -1.3598716315127615 -2.8250793026608765
Ni 7.661811915084775 4.570976613944593 4.371575831981428 -0.9113174882154563 0.7267451913555936 0.6932131210364191
Ni 7.952150267096145 1.2871959552354244 11.642602840455238 -0.11163601371145289 -3.3923317658330543 0.6720004915145459
Ni 3.6646969497270425 8.694028517841799 10.952703074153844 -0.5173697194091219 -0.11602720080061309 -0.22570017724842423
Ni 2.8758590025915 2.900712244922068 11.041423391401649 0.8943695475072081 2.921329835055195 -1.1156808516593173
Ni 5.813818074037085 0.8470245506382209 1.678331053753137 -2.422589300711486 0.3572511847162493 1.1425316533035743
Ni 1.4785272207274904 7.65934830086211 1.4320904524139844 -0.530284370588261 1.038680939964495 0.7819346920435436
Ni 6.297290566316494 7.176668695918732 4.650641969032233 3.9001246401870184 0.8349122726818395 -1.0519966832367946
Ni 3.3430395479424777 5.344192792733347 9.079620012401767 -0.7473471838766613 0.06697106670391045 0.9140667688258193
Ni 6.128462198551763 2.53266149484478 5.194142640043601 -0.5773072763050187 -0.49712228201399555 -0.09750805895050305
Ni 7.566476652062088 7.009605446390164 0.13274444266739133 0.7310656731078184 -0.2783748819343206 0.13101776067217438
Ni 5.628433463565247 0.3466805485442821 8.03621897863924 1.6189007619306184 0.80671678408423 -0.14325724016115973
Ni 8.16544639962324 5.7281296069361 7.028557341548277 -0.08487597200878931 0.8453869469609182 -1.6996303158712018
Ni 2.5781958818568036 1.1081544434518276 12.173366342761375 2.2798305974532993 -1.9416755101365528 1.7418234042994842
Ni 5.212507421007654 7.05412040682729 2.657201441411248 0.7132726107904555 -0.9686487178367575 -0.4083009522042129
Ni 6.666389060373538 6.3903038021408065 11.675896557260547 -0.9426168125493702 0.6024356959415302 -0.3908272208994818
Ni 8.38991846793438 4.2826865542179675 8.769000735030938 1.7572014294174512 0.4677767389723428 -1.8296407183247843
Ni 4.015408008896145 4.824681683204373 6.829867326447054 -0.5414758684287061 2.5610717451918217 -0.7465084900254498
Ni 4.794391499141026 2.944830761691181 13.606727302739998 -0.506834881316069 -0.9565601621033396 -0.7382920156529285
Ni 8.665031495266978 5.035750179882621 12.013483443191358 0.003202051877065453 0.4489668053546913 -0.4908174228418902
P 7.780169228257199 7.977116779046145 6.536406508593317 -0.003256045043452457 -0.2931350709626307 -1.3372117280214004
P 2.958913951040671 3.4376479975738037 3.414519285199102 0.037754335930638205 2.8371912554330625 0.4544982766958817
P 6.864063424553844 2.428292979672319 3.2077342679624077 -0.11347435247177232 0.6406006370470259 0.14835445217840904
P 5.8385108510734565 9.035961181504852 3.41265411213244 -0.5973649662868421 0.1128392899909347 0.6130335260620345
P 4.918176314911275 0.6000099402329435 13.439439401799554 -0.9316860245694794 1.7387997869818117 -0.04507220974829012
P 5.299130362468961 5.693790033978027 1.0213106262326266 -0.7165713361463852 -0.16760018778189845 -1.9365057930101555
P 1.5518126645005736 5.64814237734657 0.7955010324986825 -0.1550298073160556 -0.858986540022224 1.184408238932702
P 7.283255407805086 1.882843127293211 8.689149428984727 -0.09540283968204216 -0.0928618184277433 -0.6537713701010289
Ni 3.6753820504935457 3.124514134651564 8.684783829069085 0.8550342402426953 -1.1392966913060443 0.08275918277610263
Ni 3.5262437182402335 9.275290448231608 8.662582983660236 -1.3224808495691287 0.0023903546090474964 -0.26642747976445724
Ni 0.556374707173411 9.307223041776732 11.966622857718473 -0.11370189510154612 -2.0735016256426353 -0.6901054286453727
Ni 8.856343882489139 6.953178297642675 4.839080139661284 0.10997456684862997 0.1889269742841327 -0.04403039874733707
Ni 8.33891882178472 0.7950422905399793 6.335189637065246 2.269512246246427 0.2936402927338233 1.4121506434221356
Ni 8.731275344365317 4.955262676140596 1.143580460842961 -0.547973817448224 0.3644405033758369 -0.33757916020861867
Ni 2.641834529708185 2.876387594148854 5.471315286622886 1.014653466701646 0.531240306743627 0.0833443658556113
Ni 4.769481622000741 4.4875063435575 4.123055679551188 0.3402687912256398 0.2374879139119716 0.5878444283909167
Ni 1.4081773479247097 2.6994038137849548 8.820047576855362 -0.6955188863514602 -0.09386120622653513 0.9855233821049091
Ni 4.453270601083908 3.2853569942462757 1.9866566213304502 0.2532611175858283 -0.5116518430887381 -0.24610342349512454
Ni 2.297891330300198 6.330450247405475 7.0242606473177895 -1.5032576839423013 -0.18926815967363533 0.6909901452431713
Ni 7.974124573266127 3.080065248159105 6.444895039139986 1.158752743148127 0.9282294334794466 0.8661696880342243
Ni 3.3481178025470526 5.519317063511557 2.337519650572292 -0.962916957559303 0.062273661228241135 -0.47777215962215774
Ni 0.5669956218222355 1.6760694370184601 13.523753530851423 -1.6912454342416163 -0.7288408975423577 0.7183505395339951
Ni 4.63150034726157 4.736425771396241 11.439769045109761 0.5285056814212833 -0.022800028613651057 -0.592753949877392
Ni 6.401413663980183 0.06857720325865603 5.678970592102223 -2.4643093061580914 -0.8744059599010877 -1.314359248903259
Ni 1.1238517248782365 4.107713309599002 6.894412131253899 -0.04115333430985816 1.1705245389720744 2.7506888035644437
Ni 3.5838130023170027 0.7942295810205483 6.429547005706829 4.294184766201502 1.4490871114371688 1.7945148211559288
Ni 6.455197854940904 4.471469253272794 2.3021257262399977 1.3200293027048429 0.32230269366552233 -0.030251856906005965
Ni 1.8437745477238148 1.8235653597899957 3.074017594394884 -1.6762777571881904 -3.421285215642611 -0.17999033391613517
Ni 6.7988861977051664 4.335120948880445 13.276780452639937 -0.8657032899207671 0.6418877312895654 0.7949002510652762
Ni 2.0067034561430823 6.188410144636623 11.00792201362738 5.348696759660982 -3.6543446614695836 0.9619024002518595
Ni 5.334338335842686 7.175583195399166 6.755293440752922 -0.20693138128135327 1.773068992577327 2.851317667532115
Ni 7.8092889595864055 1.7979097909884447 1.4684651028678681 2.9912093336551515 2.296413698622961 0.25068461510790374
P 1.8120779325525094 0.7100117311451999 9.788294218124163 0.0974167847882774 -0.4212557125926681 0.06997617207882142
P 2.604965268582778 2.802941685081574 0.27808446701572065 -0.07994099660101715 -1.3231002283206825 0.27045562708724386
P 5.845580763153059 5.523451404620858 5.712500287281351 0.6675062031886182 -3.6741228725377755 0.6112584364394827
P 0.5493623738170196 6.054903019865051 8.451736306653379 -0.40749593980441434 -0.25706609315421536 -0.22745315538378894
P 8.181285268073939 6.261384096956267 2.7675845733755953 -0.23898763838594975 0.4868651230623615 0.40208402476022365
P 4.677148003893026 2.988184708529122 6.791392468466185 0.2142212300745472 -4.081960769062642 -0.6540652471923639
P 0.6420197542536139 2.3012139058035634 5.930516931198311 -1.6868966703546175 -1.3878385490393323 -0.39712899474779345
P 8.362516659166571 2.847371693304127 12.982545625720077 -1.5955294341945296 1.1626078552281591 0.29098382894758273
