# total energy = -340858.02510761656 ev
CRYSTAL
PRIMVEC
9.39104043548096 0.00000000000000 0.00000000000000
0.00000000000000 9.39104043548096 0.00000000000000
0.00000000000000 0.00000000000000 13.74473693823627
PRIMCOORD
 96 1
Ni 8.712603239210928 4.782321460625456 10.621767894567796 -0.15849668281873347 -0.349658717080972 -0.024003562003448983
Ni 2.590386951638183 4.955708234969978 13.02477354382548 -1.1712812146324407 -1.0335325629943362 0.0980112238391667
Ni 6.369923753687974 6.640611095057553 5.923926352950542 1.1013312678058647 0.8306051606660534 1.260987775260654
Ni 1.4133891071845337 1.0591590726140199 9.70324810018083 1.1496687785689876 -2.2085861001850153 0.14834313932449936
Ni 9.059592781823492 3.183111841933849 5.0027132082477035 0.43372684847648524 0.2903567368865451 0.3828686281740374
Ni 8.52481060927173 8.186855247286335 13.087985574199221 0.4428102988349923 -3.301035492120218 1.1832167897277623
Ni 2.4464410881732617 5.091305463738897 8.617084152502892 0.011904721857385949 -1.0681776638720313 -2.042783113512856
Ni 6.3041395174163295 5.591622518929213 10.909568528408153 0.3025244825973306 -0.039402670167338595 0.9471481247608204
Ni 5.9668509192817965 8.31947551632676 10.09645752511433 -0.8626344211874563 -0.040649912310878375 0.48467917115463627
Ni 6.097142210364281 1.8534344666730052 13.751746170420082 0.22819826107992955 -0.7407286501188791 -0.45483174877590055
Ni 4.977758397249182 0.1565627259104539 12.297965260433553 1.977584822438652 0.4558920717196149 0.8062444724335017
Ni 3.149548264427089 2.8661736278108307 9.38372359359968 2.4889929249477007 -1.0035617276638586 -2.2035832476537855
Ni 4.9841724776736696 7.358218037307585 1.987310317781883 1.829050135928637 0.33473243478844283 -0.2542049695563364
Ni 7.405389231996018 5.7255950977516665 2.1635867151814785 0.02725806438500467 0.5414750970977579 -0.958496459894104
Ni 8.848360115662448 2.672145347210052 2.64246684301458 0.6365809743646714 0.4829953556943102 -0.2363401734607736
Ni 6.618833272942785 2.3722049157639318 4.57457850498526 -0.06193093317684173 0.06676666400258824 1.3799545183055655
Ni 2.621321037902108 6.798352396507205 3.189699656601167 -1.6374620698725735 2.516850570589917 -0.3501991629654743
Ni 8.91914038529548 1.7043141400837902 7.886372013719372 -0.22951620856040475 0.4332267689116152 1.4867581436253814
Ni 5.148309077467504 2.881743972384476 10.81699728920414 -0.2903747346086741 -1.2064415645836575 -1.303888174168606
Ni 7.2012561921906295 8.557256653000286 8.113916916626147 -1.1737723564854108 0.8156673084092986 -0.7041228259703874
Ni 9.15797331846614 0.5676827426237226 1.4142643521267917 0.9062824968947102 0.29037602016025477 0.08445893907602874
Ni 6.242778461056739 4.7129310649350655 3.905663166824428 -0.46927594922568855 -0.24083009091132715 -0.5724090676724528
Ni 1.4344344281673682 6.770639437015753 7.028205617083584 0.002875264665266016 1.0568853787876638 -0.69509851098459
Ni 2.305030805549645 -0.06177426212632131 0.6536145164395771 -1.6027087255517882 0.33711276209516133 -1.156037658209809
P 7.520983545239085 1.0340286491646378 6.3305367921823485 -0.18875651014453942 0.7070376856243371 -0.038832913706797645
P 7.010101569876664 8.024155476635906 3.9771768766934077 0.4648904185634833 0.040589748496904283 0.36345551375474827
P 1.7041263192807306 8.169979548131424 9.799131559246801 -0.07844847121589069 -0.1788431076855694 -0.410658396692796
P 7.095437951746819 1.4029274884541107 11.19492279628866 -2.17180852634535 -0.18167260671456453 -2.5691828043347305
P 0.9474526499942888 0.51619918229704 3.7022682627750636 -1.3571292928809335 0.5281043322178066 0.19997217635470077
P 4.467900045263436 6.8815757943429405 11.23401300092545 1.1536904981338711 1.0750517652840452 0.683489465990752
P 8.500008872227701 6.931611256278033 7.370944774922908 -1.3809971006374668 -0.28622497410635866 -1.552733679185242
P 6.687885591187668 9.149427471926927 0.34254945882823373 -1.4085716678216258 -0.2718249966309448 -1.186757455891169
Ni 7.139913917911346 4.226803871415907 6.037540095825344 -2.1476802658385785 -1.3400165444600471 2.097137005673388
Ni 0.9231279777900325 3.135377184836238 9.651485625961605 -2.112273604204511 2.45856803279894 -1.165942833138663
Ni 5.168293210913052 0.7627102298967792 3.4150855593767715 1.5921255507193033 0.3522989829172965 -0.5788435104438869
Ni 3.1161349435627756 9.53228139688373 3.8739674672040953 -1.6702994281175685 -0.6741751305683615 1.2555622333697085
Ni 1.212674405994831 0.4443408212544457 12.361740753216477 -0.5888461301825536 0.2662107357679609 -0.2923352007691546
Ni 2.481281847140828 3.249112072129013 11.403554144327327 -0.8555386906829394 -1.5985407102170277 2.6086471809779392
Ni 1.763496475127888 3.120999502362021 7.349970825845236 -0.7783202352194081 -0.9041217417979655 0.7074783727061816
Ni 0.30284414106142216 7.481691433239003 1.5522760173190433 1.8463865703245554 -0.6533196272755909 -1.3846256985289893
Ni 9.065368271517576 2.1565678517711393 11.477981893955777 2.6185657256432324 2.9775117815634013 -1.8435552715233479
Ni 1.2944234105265466 2.8201105758604497 0.6923206275341114 -0.2247558110572839 -0.2339271931439068 -1.7107598501254602
Ni 4.928896815333212 3.8369160573845167 13.031645907009432 -1.1797676548368974 1.0334785698279492 0.18358165081181932
Ni 2.0954791355759856 9.032790753226879 7.238802509826271 -0.4072329159510148 0.2435040381990645 -1.0693302894192358
Ni 0.444769991789437 1.1626858992605031 5.962260578855019 1.321659382109098 -0.7066389075240217 -1.7255208104847186
Ni 3.5848793217587627 7.021408382220855 9.087470084517621 0.012771697843371552 1.6633435656250257 1.3036094665859226
Ni 8.68843070185715 5.631017932370977 5.535157011801373 1.8723290012219305 0.9066535070808838 0.13513178284054791
Ni 8.392331205833601 5.813551579824503 13.51374246609493 -0.6563884960089018 -0.4500757221481539 -1.2222980719999401
Ni 8.099049021855945 0.6829239527570367 4.039701482927952 0.5945169553150857 -1.0986359803618886 -0.4375678194891303
Ni 6.882120474671813 5.41691160792312 8.788439644862326 2.388628884605641 2.0099506403638676 -1.7317991872942624
Ni 1.8563644712007357 4.482474939580865 2.70671000959712 1.4058475840222435 -1.618238445756271 2.258847567443729
Ni -0.0027055586680743648 5.0609254488439985 7.7695005190155015 -0.21249319163984692 -3.052491577504401 0.8268338665490793
Ni 1.7601438737932733 5.415991285988127 10.623073249149058 -2.342556772837927 0.28847031849710963 1.4248423799571912
Ni 3.1123597454212764 8.5563551131456 11.693499691738628 -1.208481477831822 -0.22281642794272596 -1.2158127213859127
Ni 8.683650662419282 0.02959398483409492 10.180176769870142 -1.7935084913786017 0.4350249984626185 2.676691683251687
Ni 4.449502997603743 9.349193678061177 6.091145092122586 1.3681724380689728 -1.9367505620311098 -2.588072956371014
P 5.0234645896737495 5.023257986790384 5.627273724661982 2.538183270629422 -0.04737746084269905 0.573624942357425
P 8.897127787176888 4.8267410805490645 3.4977332864511275 -0.060389299721334715 -0.2772770208844515 -0.04107697254596797
P 3.808649026524038 9.09016061752145 1.8936534743361848 1.8562948305772031 0.20310789377020502 1.2666760838946831
P 4.009410682914506 0.8277018623795124 10.468843257612606 -0.42409318204146323 1.0783294075940524 -1.422934107190885
P 5.591697647250437 3.9313993123636775 8.65691624931177 -1.9305439189997653 -2.3687056633191528 0.4739766971354676
P 4.1021096402646 3.0742978596812374 3.3235050749088972 0.13816902700497494 -0.5375541647767969 -0.034072001983044546
P 1.5163994266226029 4.898282024434488 6.027616583695687 -0.08526292303456284 -0.9870393045288035 -0.10925542929441828
P 3.430443666442959 1.6187523732499631 6.536804415414511 -1.8383223052591824 1.5810227559379224 0.05724355500350141
Ni 7.64230639297547 8.16372511538954 1.8559653519942338 -1.5357263459939678 -0.23164919574300752 1.38225077053891
Ni 7.431693535464523 2.882382563114879 9.30712463548786 0.3546772533414859 0.44879788387699476 1.3812151301855438
Ni 3.9029820248607514 4.973128614453761 10.7682174093375 1.3710219917026258 -0.5359991615848511 -0.5756013493575054
Ni 5.769639076069156 1.7332667168754363 8.014597275968201 1.0440321769740792 0.5142941658075917 -0.9207107565048982
Ni 3.8432080542870155 6.222052435439107 6.9071832826320945 0.11194146076701368 0.6611756329849 -1.226528308031204
Ni -0.17806820786078467 6.8508483109623795 9.28162796147251 0.5391821872985231 -1.9457031432387073 3.88370069030304
Ni 2.496542287389425 3.0625027132490903 5.1337961640150835 0.08012457336673297 -0.4349625206557993 -1.4853484077620485
Ni 3.611540484753081 5.051355978928108 4.191456935384094 -0.2943735713554221 -0.5497296237970661 -0.21740836955327716
Ni 4.000695797652538 0.3645226145781831 8.150930762285114 0.019810864078340075 -0.6368365420189032 5.165181443310724
Ni 6.0690723913470155 6.848913756690866 12.927900269127385 0.28845566320909033 0.6015856892364091 0.7406396899494987
Ni 3.7060425218125475 5.510746881131725 1.7741985044862274 1.3844513777346545 -2.3560766617012328 -1.8176398372091662
Ni 2.139973883820818 1.9886842269562643 2.671412846078119 -0.2427337356919433 0.400335160389917 0.14348066902587547
Ni 8.217873852911637 0.7688378835966004 12.806521075150082 -0.5980439946317379 2.246262531689867 2.300672731009631
Ni 8.545583590090128 8.461599518002002 5.8970275966403545 -0.30159142926009996 -0.35311016596468214 -0.8616574019861676
Ni 9.68197457692228 4.878898917558731 1.455759602146762 -1.892430914178128 0.870977650945829 -2.1818455988663783
Ni 6.450057499313377 2.740277343519942 2.3174316740716594 -0.5045129180511118 0.48799075202637254 -0.7749405201138976
Ni 9.12261605229016 7.062400272488626 3.7213733948622925 -0.4010468417449609 0.6109691873338381 -0.11616269793721284
Ni 4.2610905590144466 3.5716567372233627 6.888050916528422 0.029879304057935638 -0.17031732960274537 1.6381274713707141
Ni 3.6335436918315196 6.948270961509424 -0.26292470757912256 2.473664007900114 1.8443330302296366 -1.2427879644231756
Ni 4.248675603932203 1.9828242179008029 1.348641641745778 -0.13294068872650008 -0.4692486955321789 1.2254764697279217
Ni 4.915054422147715 7.749495725281617 4.519146012274248 -0.7733209822326037 -0.7252562655148929 -1.533136730889921
Ni 0.9621496278337069 7.368707829158468 11.747283117798776 1.5455626153580995 0.7117142651644001 0.25373342923655656
Ni 0.018474993292963197 8.73251224433525 8.303126654524432 3.14826054227661 2.4325641525360107 -3.150289142670865
Ni 6.952515711658572 3.3839955818463063 12.0389735204705 2.495885538302476 0.997557687561624 0.8364683043150496
P 8.019112488073755 2.6159211898141432 0.5567525109896658 0.8104744513544493 -0.3715398334247794 0.8536085635397621
P 0.26772822461737333 4.139316941350718 12.511875312142212 0.6675591679137406 0.011646068879360587 0.15091989891274007
P 3.2751722085535406 2.456996617305214 13.352503002188291 -1.599177315359762 0.012007565983837386 -1.0919973919994483
P 5.2741584065576275 7.779753656654528 7.732142961286935 -1.0957386042094355 0.22913311418937315 0.2285682428248386
P 2.7255146283994534 7.777330768295059 5.085387230234487 -0.2859542369434753 -0.3899864701657413 2.110732999190268
P 1.989980190497376 6.481742868789541 0.7288724340175513 -2.1886225125788954 -0.45423808105595964 1.7987872232790378
P 5.8516885938857675 5.08256240535647 0.7181985777796709 0.2149470524969782 1.4103665549385194 0.6519690267849675
P 8.410446522288703 6.817491336338985 11.352162616194144 -2.684818426123879 -0.3093839287213252 0.37901583008685047
