# total energy = -340856.6010661017 ev
CRYSTAL
PRIMVEC
9.47908729588427 0.00000000000000 0.00000000000000

0.00000000000000 9.47908729588427 0.00000000000000

0.00000000000000 0.00000000000000 13.87360241835572

PRIMCOORD
 96 1
Ni 4.0205359213057985 7.317713211448026 5.145649553349912 0.6724450352511322 -0.05997843743616122 0.779937973328489
Ni 2.8643337266347086 3.3717682281279187 3.9262294296390237 -0.8706133256278747 0.6973250863222636 0.14303689662023752
Ni 8.54580480422351 7.782008386626216 5.757989114023152 -0.4437749767411067 0.9507746657698142 -1.377548479967234
Ni 1.3939566623997885 2.9029136119570835 5.859252307861448 -0.4637514198630336 -0.02637694733163199 0.443073836909024
Ni 6.117120450937947 7.9571534827199555 10.981719805303646 -0.5091136500479166 0.10853500618862598 0.24100441170566236
Ni 8.208548357077374 6.830459686822465 0.40703485250819854 -1.370362503741756 0.0642464686838958 0.3913229295889777
Ni 2.2440127744525156 0.4310956198088825 2.4024358126353946 -1.43990750182043 -1.713728445835481 -0.002497569610873118
Ni 3.4678482570290465 0.6459040609037058 8.523025609526165 0.6399316360044591 0.6617027091329637 1.413692791098275
Ni 2.213641778734361 5.09568244045069 2.5695995172201807 -0.7948133477784247 -0.20746771340079753 0.602667095226046
Ni 0.4989611453532417 8.053138720748056 1.50860148378344 -0.25385118576134347 1.4940924725032656 -0.72977317954864
Ni 2.3604728410546523 2.0859963891149267 10.523016343725375 -0.014386350628659093 0.9643891712294551 -0.16254514185649427
Ni 8.250199466685855 2.9100229274341793 5.218320028248058 -0.24550049980380298 0.01034071980437574 0.28792910128165894
Ni 6.975546597079042 7.193707791352864 3.6558744848585536 -0.30010661718445736 0.19466413387822604 1.8668679781073592
Ni 3.715110249322448 9.258708002092101 0.6035600300133912 1.0666650838822471 0.5087431540823755 -1.1967181666483067
Ni 5.037168034530539 2.7670593327334285 4.265327663448092 0.5452934424025835 -2.10236688661376 0.2488149088890166
Ni 6.640356590964916 2.613450722991639 11.794573343419094 0.08584399234901345 1.027681760640514 -0.5014623041502461
Ni 1.4690120756633176 1.698415467478254 8.136549001560267 -1.4493781603150264 1.0874182572691982 -0.3144662283402391
Ni 4.439369393779786 3.603816285300335 7.365939016009723 2.0637602299851556 -0.3989969011944677 -0.5771247279805674
Ni 3.5854837304567293 5.179866214786811 0.685401521876991 -2.765479845830689 -2.726790913900923 -1.7845970478215847
Ni 5.294240882182332 5.444351708709391 8.652411359574392 -1.1212421477971788 1.3939192080157734 0.22810235893201358
Ni 3.0704280427720723 1.1388270276450672 4.571171363181495 0.5372669725536812 -0.42382655864363783 0.9551560826669614
Ni 8.209439391283837 1.7450999724445184 7.7577580375794755 0.7857908325648403 -0.5104845622535144 -2.0413880329375425
Ni 5.204170594631176 0.6473581528959544 5.997170184390921 -1.798881839875373 -0.759729102480782 -0.017654994077601852
Ni 2.718858173798717 6.567955322146169 8.076572920378025 0.4254556096066286 0.7805036160239719 -0.52745127201484
P 7.830029442902174 9.102909723183366 13.877625528017774 0.48583025403994395 1.2181441977325664 -3.8450801497173646
P 7.428201453049401 0.5045357965960153 9.589294963411989 1.137728575487976 -0.4104473091232544 0.520279179746433
P 3.587967251330062 1.1015078609339641 12.520121643749611 -0.5422867943657758 -0.19197527419215324 -0.2681066672390931
P 3.295063453673703 7.884003366004287 3.2314398196973446 -1.5352938864422399 0.6746469279984575 -0.5049734026272981
P 9.046300613811075 8.781293770086842 3.4288607709526517 0.19077842567057468 0.07388553443555662 0.1095909582569661
P 0.9135669448901823 5.913879340078724 1.1540836186589154 -0.959072129891916 0.19409746274147863 0.37634908188796473
P 6.024955285092873 8.11342571599383 5.825845160480209 1.1287153162457724 -0.5572660413834274 -1.554067310395001
P 5.917424518729969 3.7964408183804275 13.398764787290107 -0.058686972318247314 0.15276749364444014 0.54354303537038
Ni 4.856089029785249 7.6744397039141 7.679011467720239 -0.17486201155063433 0.24863158923361697 -0.1010052734704841
Ni 5.801409969231064 1.0128689155655302 8.453324932679983 -0.9204816712132275 1.4238306508632255 -1.621551312179588
Ni 5.183733682406351 6.15186130590269 12.139471830748743 -0.9213877279672648 -2.3495735704753926 -1.337012724636717
Ni 8.314439241336895 6.222489985395814 11.837485171638846 -1.2281524738981882 1.3181750231049232 -1.9602319329825018
Ni 7.130207385511441 8.863306833430622 7.518549477858529 -0.06523377229782959 0.44046905229632527 -2.1922778499432956
Ni 2.335675548670541 4.3086527798742456 7.786711909745863 -1.700120625244059 -0.9464873512483699 -0.8313029580640263
Ni 0.9351328164127707 6.864603359287132 3.5436231330188575 -0.7543493262261074 -1.721814565277725 -0.6726880044998736
Ni 0.15923539596472833 7.063967523439511 7.62400242828466 -0.11760791502417166 1.0954930638575326 1.7577999822333985
Ni 1.167510745823324 0.6114580055540797 11.749207379496648 -0.5188141651651323 -0.27624060920013715 0.02510142305331806
Ni 5.546830121539905 0.8134706266988604 1.8356442143608138 -0.9711138915477985 1.0024114161094995 -0.3866558631306115
Ni -0.01402525757321515 9.222497888595424 8.527423906034661 0.9095290288564658 1.2645430967120803 -0.31891089437515396
Ni 5.110384504857325 7.966613611848144 2.0977855299934127 1.2584511248817294 1.3332812826187426 -1.1096672984753857
Ni 6.225172567102504 4.633027147375883 4.070015809117657 1.8803546997398843 0.9706284672709478 -1.1265129092778148
Ni 7.005007600416128 4.073514540241118 7.733826185866111 0.8509644410486958 -1.0382574792738313 -0.21350877738855487
Ni 5.585021364282865 5.59626356182398 0.6632564781202019 4.364874162297264 2.10433403764246 -0.47437881766989265
Ni 0.597861202726951 1.5910837619487088 3.9050446174260074 -0.28051018310976855 -0.08736659964112696 0.03849198542761112
Ni 4.483248088904423 2.853707669768276 9.761244659175954 0.2852929492103925 0.052580345199877185 -0.533735562361655
Ni 7.903492369498834 0.3003837454469939 11.674164289046612 0.5756229466240602 -0.4448278434856532 0.6434095672507306
Ni 2.889074144495003 4.926461773921199 9.866281477669494 0.14184261920182023 -0.0999061268690344 1.4361151246575332
Ni 9.156030528428227 1.3259442110022361 1.6275536024374813 0.5364650454776762 -0.3876395672001195 -0.5938631237811708
Ni 2.780377450393855 8.229667763588001 12.421577052149757 -0.31428162313325875 -0.24232210207582142 -0.43522811561236013
Ni 7.79026467166695 7.8796335067577 9.320827304913506 0.8240005108653421 -2.3501533542382624 2.6573847553929593
Ni 8.941897946258093 5.523132403282918 9.486755884422736 0.36419213481045665 -0.36577567724749266 -0.15531031467095185
Ni 5.5777414252343185 3.6858957022552343 1.9234366772331084 -0.3439094733020206 0.10516274728228339 1.6876430616023386
P 7.315656249503318 5.785229167205194 2.1812356229722965 -1.4662759645116297 -0.08652482046612195 -0.3392318653206932
P 7.152066160831686 2.4973982571435225 3.3169980616923707 -0.6022778302074272 -0.11356176997925603 -0.7904003063123937
P 9.627908973448655 0.9341403559721682 6.0127775016349725 0.25048509750258796 0.2362452997541222 0.9026119900216585
P 9.097392894373138 2.768651819400298 13.406741439255411 1.9465086698591383 -4.602444351510396 0.6602970870346886
P 5.4081605533873205 7.556548295129242 13.529508890548826 -0.42740656268541233 2.386235187562484 1.1922580739944242
P 3.245819595135684 1.9824373603318937 6.738838620588572 -0.8071602993795518 -1.1077590257090792 -0.9341797375256105
P 3.859581018904343 8.372527088328422 9.604347754048828 1.0731010693155776 -1.0086327144288627 0.6377873359679467
P 6.275961516870879 2.2138503186550227 6.7149901848434705 1.588382024516471 1.921599051101652 -0.538562294326337
Ni 8.455952535680318 4.5735648327254514 13.431006954841832 -2.1298674060268734 2.8048537196426215 1.9384379770358615
Ni 1.7221700602590577 7.875965099971518 9.77163563467728 -0.038423594083520925 0.2671651292614302 -0.3118419033435145
Ni 6.190384316701248 9.482404983350754 3.843986972382516 0.33354252824539976 0.2028464125787023 1.228948230326606
Ni 3.898293611448957 3.6323672962563522 12.00108189567159 1.588378167861729 -0.07407631029012404 -0.5287707621572119
Ni 5.832027421219092 0.8218662543229458 12.94753937768501 -0.4891652319504479 -1.3768673947398093 1.3128204436612294
Ni 7.818701933575335 2.640466121804604 9.765837276974159 0.5226121987549839 1.2977589213424165 0.9224848176861855
Ni 6.167046803761767 5.6473368842114375 6.077913997944858 -0.6275815990795386 1.6719868431223204 0.7896328320187498
Ni 0.04913010949038532 5.022503886473114 6.935941074510504 0.35440471640638965 -2.289770996495463 0.8491050192424539
Ni 1.8765749133342817 3.6718002994359784 13.044349296308452 -1.4844456934421209 -0.6483951933907801 0.8993204637545803
Ni 1.700491387597566 0.9640705741307427 0.09356996658334779 -0.17993814052196105 0.34806540445192313 -0.4352029188013795
Ni 0.6900112020323401 6.5264274406726255 13.02371901070265 2.565389398730569 -0.17826203837111881 -0.7434342219755004
Ni 8.731310542739203 4.2701013318137795 2.397455500166506 1.047051166306061 -1.2452050585051004 0.037045739899387815
Ni 4.2833720540376925 2.624313757040642 0.33950488665435824 -1.1637190860144668 -1.2182498700724955 -0.7316518846285915
Ni 2.7327260785227057 9.13643725497335 6.599922596166115 -0.5364334209087923 -0.6430354717407635 -0.38370038004671336
Ni 4.47360785711748 6.020831882116158 2.7632335730980206 -0.1663902266341973 -2.3563430279887423 1.7297829281951822
Ni 7.045786633992751 2.219016421235046 0.9074169130481291 1.6331313037077035 0.572697288336833 -1.11096339157899
Ni 1.4939894707061818 8.676388710906812 4.561279935581029 0.1431428260704825 3.2825320339993915 0.1879083032116312
Ni 2.772765743289711 7.199783886313955 1.1454282640427333 -0.5754794790676605 0.7269105132888642 0.3828166918901794
Ni 9.406515410404579 3.9729129866965573 11.473358355715478 0.08103371544456367 -0.3784766697539288 0.4411809907616854
Ni 1.622516415444776 6.942038023463662 5.858129036016067 0.4101989405578742 -2.007985289107381 1.0801626041480494
Ni 7.490024060438228 8.78295261036483 1.8660692408765942 -0.42446727755143027 -0.2628752436368247 3.257255004600158
Ni 2.061142222206999 2.887453220566225 1.4968369885319415 -1.096435373166144 0.34653456962969353 0.01234412338764971
Ni 5.242276525588411 0.6378354617915669 10.552858406372032 -1.2734054321987167 0.013839991206885841 1.772269379494167
Ni 8.725063824206662 5.559494182176439 4.963530692727508 -1.6355208869858027 0.7498642938715602 -1.327461590613172
P 3.7447797925801956 5.372263249771636 6.192482038721356 -0.24702259287528427 0.3819255475344777 0.7168459299640105
P 2.6037441375935777 5.390737990924784 12.000097018500831 0.2637234505697329 1.2030093989736572 0.08399614050699727
P 0.363873724292383 8.152564867467069 11.384095686402521 -1.0567354834733607 -0.4855137512407896 0.6746178745327349
P 7.31227221533622 6.198887058011855 8.095662854297123 0.49596451426046845 0.4440619118539062 -0.5552839779563921
P 0.5268173392099648 3.527054636322302 9.577739008081151 1.3725865079762682 -0.9341594258106363 -2.3939168724774578
P 3.66251079387924 1.9088796428622063 2.4198612188241224 2.0679691258601802 0.6444470073763096 0.9320071553543239
P 0.6346865089895785 4.241550320857761 4.258766239217097 1.6480138772464907 -0.855625593969791 -0.6399768874200978
P 6.168298043285737 4.141413242591038 10.004254332905322 0.5327649709182696 -0.8464336430578776 1.1946219462409104
