# total energy = -340892.12584869645 ev
CRYSTAL
PRIMVEC
9.08530391928707 0.00000000000000 0.00000000000000

0.00000000000000 9.08530391928707 0.00000000000000

0.00000000000000 0.00000000000000 13.29726064247446

PRIMCOORD
 96 1
Ni 6.3371901831182 1.833804972368039 11.595516895024844 -0.8253084310434883 -0.37591945054971393 -0.8006039863182728
Ni 4.862781657973672 0.39072530027373553 6.01436390069989 0.11574695055603292 -0.40430417233999405 -0.45021481882917946
Ni 2.8840933461073437 1.6122870954227029 5.089832484925559 0.18472682015985606 -0.2277256923188852 -0.7615890385076561
Ni 3.625654011845685 4.4937457034316886 4.964904106666 -0.012268018734075646 -0.5875798618756204 -0.30197709473429285
Ni 5.316465387903223 4.618459668521863 2.599587966534072 -1.7240575956756308 -1.0773189640516674 0.09178401198253225
Ni 7.175027813092033 5.910335355272957 2.5808249971522526 2.024011746442624 0.9015197853987441 -0.4133626829978365
Ni 5.171609304316296 4.379670629076606 11.900250703480848 -0.19804873407974277 0.11573743747433614 -0.8407566472777583
Ni 5.523564887737894 8.005579029428338 12.507695931769774 -0.286913515532951 -0.1852983763926099 0.016797788283629135
Ni 1.9405936330855966 6.498636031420991 0.285671932579579 -0.3651915226092485 -0.4735167267799135 0.5713330609994547
Ni 2.538733693235427 1.368201323869368 0.21422964624705287 0.13029502357353687 0.9675423721464561 0.8788313426622929
Ni 0.5465945891117956 0.5142354626120743 4.865214702327948 -0.44013172356156455 -1.1203476610073675 0.41711186562762353
Ni 8.888606960440892 2.391906098726626 1.247246857486436 -0.7920548111966812 -0.4801568578042505 0.5619225663188323
Ni 7.162880761928227 0.9667944319327405 4.980595334837286 -0.7930236028678536 -0.6648409976516292 -0.8304820048246278
Ni 0.7359822892128541 7.3821909100532155 2.3496794237833676 -0.02764167297666852 0.18928127229975789 -0.2625847089795994
Ni 7.82210131944101 4.111626911435795 4.099200032915335 0.1809933212593528 -1.3125831308394427 -1.092364802641196
Ni 7.575062824156758 3.5251887225641854 12.615031527775335 0.5039891843371578 2.186106431025261 0.5224479052629776
Ni 7.983628935477887 9.064989048170233 6.951953623607908 0.04487192081202594 -0.3380555856244049 0.649380697232501
Ni 6.803974921109239 0.6858804729466433 0.4406045265971541 0.7534355561625863 -0.5620832602664125 0.3236298971173781
Ni 1.7507107839281226 6.6779526722736735 9.110365597936598 0.5611226961253561 -0.42172519602991887 -0.12870582470954606
Ni 0.4325694839275431 4.66068816052588 1.3621050850279965 -0.699301493322344 0.904115056929746 -0.18719893584943245
Ni 6.411326262023703 2.1083719381282315 7.004198663037576 0.2453179514793517 -0.34845518369117406 0.3307652226105787
Ni 3.6704263889101845 4.13910087008901 0.340956006126145 -1.980745479554821 0.6723838429958936 0.7189503779015232
Ni 5.915314101748474 5.5529649307940465 4.775073043740115 0.3932905948383098 0.3535845344979395 0.07643452610965547
Ni 5.084808311931105 2.854902265038302 9.265039260796229 0.5296181977591717 -0.36489661707664894 0.7464794365597273
P 0.14668858936085297 5.4876597671699345 12.549501957147674 -0.14523724670566598 -0.22467816374181301 -0.08002430034344284
P 3.92703170908261 6.105142439083223 12.73498570221127 0.228247112039994 0.6271830780895391 -0.8811589623542049
P 2.3941683393696986 8.47518929689727 1.4215702153775418 -0.2182259803585661 0.16641182390075213 -1.1592111708417843
P 6.6731011200511805 7.819666458025975 5.632506765453074 0.2189741713785003 -0.14400388851919715 1.8678912771655507
P 4.560068421079992 0.9566734035135336 12.789850034722857 0.5821239809673716 0.050263267030926345 -1.3874174023415138
P 4.271482831575782 6.079403773453409 8.026572440889973 0.26764155467721645 1.5732302564766971 0.7873136969672699
P 4.799275384499473 0.9106835957415177 3.865300703968477 0.31859567712758036 0.5980568501475442 0.3919435938921121
P 0.26964182257702174 5.574179115137716 3.4539372276111955 0.7282531433596876 -0.2244112832336716 0.414135556608119
Ni 1.4117835261377127 1.028420047522939 2.6540134788727245 0.7035119318592657 0.33433468512939196 -0.5114782936253514
Ni 1.9998298137796984 6.740150662002481 4.611490331986519 -0.0976705526702963 -0.06879989238253312 0.6734953308925175
Ni 5.826368977669446 5.456606198824469 9.655606476784063 -0.9801955421340924 2.135044322242123 -2.032790263966202
Ni 8.570566816057804 2.48437632067518 10.351172792098495 -0.04810713991987199 0.02673818732579266 -0.32470950333480203
Ni 2.5342909796833695 5.50708414666748 7.02555457812033 -1.3257872882345425 -0.5983229593247373 -0.4351730940047086
Ni 0.46284444173842587 9.088029378575177 8.987631320541704 0.36794517409498567 -1.1202918680687675 0.66456666094432
Ni 1.0855393524345676 0.7810799201529436 11.27102345936154 0.24518939632128744 0.6831613932273719 0.6290252735046006
Ni 4.215308398258047 6.844940555886801 1.6606154603896055 -8.02184186321199e-05 0.23401692464423568 -1.0898281522622715
Ni 5.616016939078873 8.020242709741265 8.022064313150647 0.6119958288261396 -0.8476945120481723 -0.13181094599743107
Ni 5.619523866340824 2.9386324247433393 4.861664165607816 -0.5544337141409548 0.17750690537264913 -0.20381006204355223
Ni 0.6282196839292833 7.381055247079786 6.842637431376685 0.23291417849836016 0.028458769561325183 0.2659883353445096
Ni 5.017895049536617 4.266286037809368 7.188379575538053 0.9935485664022308 1.0098316198329704 -0.4720185449678322
Ni 7.868618074832697 7.347839376432908 9.143621443920136 1.26483465981057 -0.6766490460301509 -0.9332153167298121
Ni 4.674198007257801 0.3874273349988952 10.42307116068115 -0.7620163558530618 -0.5338479195698033 0.25136544322501225
Ni 8.548335077689941 7.324462889787829 4.4685839545923765 -0.7802094818223209 0.4675790211392399 0.5834684108104081
Ni 6.987243669109457 6.123522008645212 7.236715208747985 0.44166127283221357 0.18214594680655727 -0.7513293084528608
Ni 2.459091920234737 5.187781145057937 2.6248523793061818 0.09634360632875666 0.016910916822725715 -0.44929976321407783
Ni 2.1334837177967128 5.099390224509944 11.33951847314542 0.41917954678992975 1.0137769776339638 1.0817368906137046
Ni 1.4113837727710654 3.283737689109208 3.751928832126542 -0.8416755595476021 0.44011938226639036 0.46939499130205614
Ni 3.923506611213084 2.66990730931847 2.9716847599220424 -1.0039263100921292 0.14838299142349928 -0.42575617156618284
Ni 1.2205651373234851 3.558032095755777 8.321332402848128 -0.7527680977819164 -0.06766860699156732 -0.38431898746731874
Ni 3.4754921108468944 2.6559341120933895 7.425668631328005 -0.43895672941685693 -0.020629246214577374 -1.4071984416231829
Ni 4.3173272744872 6.996928602946867 5.864278316252913 -0.29537398759547845 0.34070639298369065 0.18297615601733647
Ni 0.7132917430037253 7.1548766092914935 11.259228917984686 -0.45671636739312305 0.6096666664723306 0.38416240728479645
P 9.231213766265215 5.571762424330258 8.151992334084433 -0.47622486973969597 0.8168764982260511 -1.5714237993955775
P 8.624142852492332 1.727043567561844 8.219581543080706 -0.9894607694861024 1.2641690012021132 -0.5240715569093297
P 1.9382132834932875 3.185698175938954 10.395120223579095 -0.8189781179500863 -1.1072741156528607 -0.6814968610407554
P 4.07407735088231 6.220771100385957 3.691638756193097 -0.6602515785087338 0.06391376793482541 1.0192467424992833
P 6.648516288002371 3.842456616125341 10.50866562472337 2.176097126418375 -1.945827327521397 0.3448075596362578
P 6.1102938063307 7.767271511083815 10.198387055365892 -0.9077153726864947 0.13086452292376172 0.9599141661772371
P 2.202041420176727 8.67963588802601 5.844545036426596 1.4290379060957776 -1.0576443684408752 0.08399382651415212
P 6.969581838546676 3.887092713633028 1.4723125455607673 0.7952491497642626 -0.015164366445264206 -0.28670062819119657
Ni 5.214028587699849 2.596152813172041 0.7980830661911356 0.7931601284457179 -0.22185354980882435 -0.3635961530976706
Ni 1.393994501321907 1.2454134431821307 7.105670603978724 0.24055549709370186 0.12746809564770303 -0.38698419300430775
Ni 6.791691590388621 0.7394465155470046 9.272711799844721 0.9448300181506051 0.5549330223748765 -0.3057411897624154
Ni 2.6944194589369808 1.4355779367570154 9.155748507415613 -0.19198607282543065 -0.8530799447298016 1.7023145475715846
Ni 6.445732307466733 1.7509197459152337 2.7489294646008573 0.4930149447138412 1.271204825002972 -0.39779645312846335
Ni 3.955614074797893 7.018170043201899 10.607610034150852 0.2302564291605389 -0.904628763341371 -0.5708666628859975
Ni 8.096559261555754 7.28894843728273 13.584082749168877 -0.2124448549004148 -0.4652593718671278 0.09158809392164227
Ni 7.391639625992153 3.7932960373315088 8.31368621118062 1.334934244841133 0.27806146445895985 0.5180582608357142
Ni 2.910268106318955 8.330587601816394 12.420279864318173 0.5600860273307257 0.11349620684864324 -0.0632985029483297
Ni -0.21412698231425478 4.995345325536193 10.13796433399715 -0.0672852555102196 -0.4007843321121936 0.949020916303501
Ni 8.719583968779379 2.6594137834439784 6.051450110760215 0.2702411970835926 0.5654614327100261 -0.019952788972843055
Ni 3.741927729717329 2.5679156890006807 11.405313334643674 -0.32122720121315645 -0.33374615961577364 0.4343999632841099
Ni 1.0661149729370232 3.1220828788193065 12.358021911584368 -0.39368320229103815 0.33165199609090623 0.9426618068546927
Ni 3.300808974925806 8.363321951362536 7.780479725729995 -1.3533801102511467 -0.0230450547449216 0.39573571394469265
Ni 5.821135842687881 7.7263603881289775 3.7091906545800497 -0.8364413077318562 1.2355500519138398 -0.3705373603021941
Ni 3.265657934572204 8.480740417511395 3.3729163054955724 -0.12006537542572872 -0.16657945982686795 1.7850968702761385
Ni 3.3691577153187087 4.52329111134844 9.390206582545398 0.4706198648480927 0.5861493000766809 -0.5069693500114043
Ni 7.195369808272108 6.352008313595514 11.448861012757625 0.4644908691322194 -1.6584222170640082 0.7825011060699749
Ni 0.4250650229991185 9.182334831888793 0.4960812085840138 -0.05485474305635069 -0.3023823005925115 -0.3842464823581705
Ni 4.676333053647849 0.2040368439279251 1.5851792745121212 -0.1605301683089945 0.15845657360941745 0.22733462752805364
Ni 6.01408952452551 5.7331265048989595 0.2595862083450843 0.3692368963232157 0.2451202336462488 1.3288587280710147
Ni 7.895637768296541 8.582068810652702 11.195123014460517 0.18371072019051587 1.9870521384991393 1.2884013913869166
Ni 0.21419966474455432 5.1716910720503835 5.7819809089551555 0.21854736825372684 -0.46850204717414157 0.5355944699472647
Ni 8.09887601402155 9.114376759558752 2.6916847824969614 -0.06474294870434011 -0.7523508077388398 -0.27337280073403886
P 8.66927864170833 1.9677314354986766 3.6843786899365543 -0.9986041265482674 0.34287074762486114 -0.7270215849454317
P 2.086321905836117 3.165365266062666 1.5949132689899832 0.05140149440042761 -0.6967990386154644 -0.5079003464661059
P 4.908671527404025 1.013211248982766 8.162895607159738 -1.2897203673086561 -0.017866081647143425 0.009458831420054678
P 8.40679512998543 1.537760348454341 12.429161657300774 0.5170812416344256 -1.22933183891827 0.12287070608500773
P 6.369915447360556 7.769533751726888 1.627345077920004 0.9608945278126354 0.14415301250255175 -1.8228571197440475
P 1.9722195755696714 3.469995502055494 5.9484763691030045 -0.7421106180680703 0.022210988879400456 0.9267520776029717
P 6.970299577545885 4.303617551071954 6.110756248293481 0.7362240773803063 -1.9090106729136802 0.5412424122616614
P 2.2730067280604125 8.436186087737795 10.240472908100445 0.8777244827513594 0.6078951763942047 -0.6479637622803163
