# total energy = -340886.07857850473 ev
CRYSTAL
PRIMVEC
9.15307181451236 0.00000000000000 0.00000000000000
0.00000000000000 9.15307181451236 0.00000000000000
0.00000000000000 0.00000000000000 13.39644580722020
PRIMCOORD
 96 1
Ni 6.752413287470467 2.0538852422736515 11.300919739808156 -1.8543765305085678 -0.29185106204388445 0.5967332462401143
Ni 4.819220450060695 0.1484664859589004 5.826061094892193 -0.4336250327912984 -0.27826689560154655 -0.6271738221181585
Ni 3.0930151785231925 1.7887299050598107 4.664267182111272 0.9600648328224886 -0.8742285537829588 0.3566035238299214
Ni 3.7748549567368226 4.587803335532145 4.998616080966928 -0.15678484233394935 0.25061108155749096 -0.820101175810936
Ni 3.6156830379909666 3.18356651792243 2.695378279956418 1.5421139946878668 -0.2035264693648624 0.734148168687884
Ni 5.752394427057674 4.654492616727217 2.412726845981064 -1.8361216980634378 0.7163443077372438 0.8408754322438099
Ni 5.2095531973244675 4.656195088083557 11.24561962586412 -0.23853769533272468 0.05022161515971351 0.5318532577372777
Ni 5.938577060709743 7.975410130204582 12.555577973234266 0.21141409964305524 0.2959254892235742 -0.26718981185177854
Ni 1.792876246588958 6.77390470007629 0.411006790557118 0.017782520794401634 0.48042939473934687 -0.9294242251184961
Ni 2.9026221318393195 1.722058930008355 0.37735552205400474 -0.528916800816773 -1.3139126482841437 -0.6524883896235472
Ni 7.78294848929204 9.066200003740011 6.720929466371554 1.9324388220296331 -0.33092437389626234 1.9825506510843598
Ni 9.117191766783897 2.0925295114481774 1.3535773110724703 -0.3694778086894282 0.29327905273966265 0.13086812246818752
Ni 7.079461696251846 1.0137850804124344 4.854336210053131 0.4462980002732765 -0.7292707859909247 -2.2214501006318774
Ni 0.9114610600533963 7.741183022630894 2.68872033552308 1.0907012988958442 -0.4272224716990642 -0.6383570924284876
Ni 7.8344802835726135 3.8953002286618776 3.4517149096175763 1.1944378552545623 -0.023029885236270014 0.5001011621366613
Ni 7.844759183213303 4.053886350812004 12.204845075841803 0.43134189318407656 0.2038252315522038 1.330362566310051
Ni 8.705120473975477 7.379654992347753 9.416977751184337 -0.46613946047923593 -0.04354394602922178 -0.8810617746547085
Ni 7.202158623841736 0.9280116444971145 0.2523703265120462 -1.550994327896632 -0.5573997387478142 -0.7150024489973686
Ni 2.028421396503038 6.447387169459792 9.526561072794516 0.08540664770127872 0.48144446626742243 -0.970431006548161
Ni 0.06684671403017443 4.45162393316867 1.2128845290003356 0.053954085618952236 2.032667622345409 0.2834695228484086
Ni 6.398930807306798 2.1364093376970352 6.655863024808087 0.1374390908174859 -0.05475241315053152 2.223656364254577
Ni 3.621339636368479 4.871154979500831 0.6523073920242396 0.4120262235746001 -1.0988470679314302 -0.9538617893355702
Ni 6.627016203697137 6.053191825892927 4.267491587601655 -1.9503807512200346 -2.141964189290408 1.0608021973435666
Ni 5.217379073720541 2.7227093523759187 9.088872162609103 -0.44499393674987237 1.034137800678503 0.9190639649300945
P 0.3572416467553263 5.762343816113267 12.411231284896271 -0.45995030094938855 -0.28804325826202004 0.5288062433808377
P 4.448456970323008 6.262934466379488 12.488461243585748 -0.5071488130120622 0.4762919755322055 -0.025391186379594977
P 2.326564404513893 8.735801570676806 1.227642026676813 0.6485476598082444 0.563851665020745 0.054857314159511984
P 6.518497384338261 7.830928891711004 5.697602308598995 -1.5657658297788517 -1.0261964343442391 -0.7342173313629227
P 4.857800647732563 1.3616292683422075 12.49323090930504 0.6778060424527295 -0.035796955093951255 -0.0101766834226857
P 4.154057568681736 6.050546588140337 8.176360329912116 0.08980966186498081 1.1357179728158506 -0.2333600077865271
P 5.222111211845418 1.0333451948667123 3.740703015205797 -3.1265018104432802 1.0178658029913568 0.5622606663845413
P 0.1447192183605937 5.814937366723599 3.5974546954847924 0.9813947046485163 -1.2812174720439677 -1.156803589841556
Ni 0.632702427518101 0.1792061623198022 4.896776258106548 -1.2602393271304038 -0.23204077475447135 0.15662543393794962
Ni 1.9770177452277806 6.827111506497778 4.648526644522586 -0.6343991362220042 -1.558340483849058 0.20282815774625712
Ni 5.998712742490091 5.770792101392303 9.226547176906049 0.7223609462449688 -0.5912771082215494 -0.3045415130273594
Ni 8.488787621786962 2.597879759054701 9.870313837625991 1.6759365717986878 -0.6776803155081426 0.2554614676712568
Ni 2.491759044509591 5.281487188665681 7.113111134140597 -1.1647783805169167 -0.09847247974630137 -0.6541837750480991
Ni 0.6991903411333913 0.312709206486539 9.065307579238706 0.7619104264028168 -0.7823352699160719 0.437123275752544
Ni 1.6340796037872414 1.0957416853837048 11.510949786749496 0.006451412052298567 1.06060473662078 -0.6232390058401266
Ni 4.44643414145338 6.934870620896568 1.3726532280280908 0.032102536961499555 1.6244905973135702 0.12307716566885901
Ni 5.772091837589077 7.814828638400253 8.191136133732211 -0.82027292550211 1.8088101547326785 -2.0995271031721194
Ni 5.631381664680506 3.0699036722073045 4.5763601651574435 -2.250958651613956 -0.6812610908808655 -1.89588621971658
Ni 0.933375344576762 7.671793585252381 6.922466377981997 -0.6334995072258703 -0.17722536957648832 0.11271304882571555
Ni 5.366757205631545 4.224545374677242 7.267210420490308 0.4499348256949154 2.0341501204282064 -0.6473847498483948
Ni 1.0358439834703708 7.709403557312572 11.423483947856829 0.35261394305455396 -0.402138789257559 0.4427663329709342
Ni 4.9585302029826 0.5182405186341132 10.346744954854277 -1.138522532144181 0.16970386438846258 1.194101040740434
Ni 8.276509580409508 7.493583277145318 4.407096069435786 1.1838785916814771 1.7276463414681535 1.0229468170586897
Ni 7.130398540864881 6.2468067538533125 7.013012225538151 0.822350633966745 -0.9721415614813645 -0.46027503127865893
Ni 2.123805557817044 5.5377731992973045 2.3272307481415346 0.1220978324747252 -0.5911305553413561 1.8877656474919746
Ni 2.4605470696433827 5.252471951033457 11.761664322571427 0.913854395704697 1.280920252518523 -0.885527780845862
Ni 1.330554589553123 3.3380612169742587 3.6543492745378323 -1.0581819861119002 0.84782949496414 0.3070254557914777
Ni 1.596286570290885 1.1254525564733566 2.8220412335608325 0.7998509102023322 -0.5209720920483996 -1.2842300336180463
Ni 1.147712827111075 3.6493388830299844 8.467129623274227 0.3027538249993173 -0.4121550358429805 -1.134471244892943
Ni 3.6104840932038678 2.7713853882523107 7.075600930563117 0.8875160149204844 -0.43837231766829665 0.4613361255533216
Ni 4.0125510785258465 6.873444355991252 5.8624317410295435 1.1521216109848547 0.4591900257445963 0.6007559942462621
Ni 0.4608754716901281 0.1152115454650854 -0.03423340387011932 1.0582809735836096 0.05608553013965825 0.9099635452907231
P 0.35927820523266696 5.84619510694885 8.094962977628331 -0.10292125954627435 -0.7077660791499295 -0.5073329039984101
P 8.627044771450914 1.5191353280189577 7.940193686422255 -0.41010920905754533 2.3279274529605263 -1.7598473516807305
P 1.7641539072545995 3.1467162508223256 10.43658143934529 0.04758597730907934 0.005140920770991146 0.7815644531883185
P 4.144666517006449 6.363435194834318 3.451044904761211 -0.4113636502899367 -0.8318428897278964 0.9419382984251068
P 6.973954237517891 4.1211614286028055 10.148142518065566 0.56288570156305 -0.2983832067354474 -0.3276801559273518
P 6.674923381541634 8.122518300307135 10.078681686726949 -0.19349402482952482 -0.3215483319980011 1.077802588556305
P 2.4668260769038577 8.712854819653467 5.592989104980709 1.816779288981084 0.19532876404541846 1.3959264682537895
P 7.201618592605048 3.745977015181723 1.2609189345429679 -0.06012216210287711 -0.32756959849141654 -1.2329840909588765
Ni 5.144365019905952 2.750644527534766 0.7603182158977572 0.23672249650085683 1.62080337826997 -1.3539544946973778
Ni 1.6016045050114913 1.3660044366665618 6.7779723251878865 -0.21733072223780633 -0.4668169461622347 0.9210815095807556
Ni 6.7063092647722 1.0071307972078205 8.956930632492856 2.023579801111528 -1.1487704351244346 -0.5206926131347678
Ni 2.8341846139288673 1.5837377088417437 9.048816489761741 0.21455624481646277 -0.19885580336207043 0.7298870794186849
Ni 6.518451618979219 1.8355021020000821 2.338456990714381 2.516672136030524 0.9287619089441488 1.2216565817611993
Ni 4.32129334369068 7.419260334062147 10.067120441725919 -0.595001094040356 -1.1155998619097367 0.9948659996620737
Ni 8.330338795713958 7.401869497626429 13.34397232159672 -0.5148834626521585 -0.3711549392815349 -0.2579739496804654
Ni 8.048836072250543 4.023516458552157 7.929825086677844 -1.3632055809820005 0.47730910394281023 -0.3584529183338343
Ni 3.623737741182246 8.730886371115764 12.62736917665527 -1.1014508241028644 -0.7483846240022402 -0.381300255245653
Ni 0.012469229724409388 5.083323184016584 10.358574384859288 0.9562554863787273 -0.9550588949674648 -0.8899829884037382
Ni 8.903705519927753 2.7755042705660333 5.8757485452033995 0.015398079722625095 -0.2546993926942517 -0.4088354845514443
Ni 3.614008025850053 3.0186830823682125 11.615482443335871 -0.11454316005591886 -0.9056939713810919 0.16086981103660034
Ni 1.2968621322268725 3.5593275748674342 12.781937100281565 -0.9080555296347329 -1.296230143402716 -1.1470992180695985
Ni 3.065958698257939 8.44736081878272 7.8578865188007265 0.5869990496714859 -0.045610341639947254 0.08671353943816033
Ni 5.87909124702778 8.202049341249213 3.3952084208092073 -0.8183541112128423 -0.8687472189534136 0.8646794766419431
Ni 3.1798412176964637 8.518745625815436 3.494985141284003 1.5767770932876908 0.14605434329032266 -0.6461051118050227
Ni 3.3108948998473067 4.344716054448049 9.324676344455355 1.0437382998827445 -0.4369805795270926 0.4314375382216763
Ni 7.36684984488798 6.344598173052893 11.219148026887414 -0.4546366020459589 0.29125585166204676 0.7841962343842107
Ni 8.227156217219305 8.942523697466637 2.3809373122837534 -0.487060012681987 1.3975999993014705 -0.3393143977321705
Ni 4.709502578294934 0.5718436530648984 1.5079310528184515 -0.5627656310454179 -2.06074612574918 0.18197034046064145
Ni 6.305825760873053 5.730921320595468 0.2716585947336185 0.15019947580694776 -0.5013987979021624 -0.7106788819213502
Ni 8.34785777515499 9.195175938590376 11.06439246528905 -0.5002472007962223 0.40860819903198664 0.5433753994442642
Ni 0.13838071613336514 5.398051558144028 5.764061847691679 -0.17489337900920202 -0.735655606471346 0.31154982602439246
Ni 7.785685257762713 6.469830501533676 2.07781594851638 -0.12472061480955296 -0.5320684590718772 0.7118369067851934
P 8.764798502165412 1.528654522699561 3.635661447826883 -0.017826229548143495 2.0941092745906578 -0.8112126150720546
P 2.079541302552239 3.3267663263628506 1.3814410922712128 -1.8819768087243396 1.322326840489768 0.7989152857619403
P 4.763157885235026 0.8198250816448781 7.8964813613874885 -0.1842372821179472 1.4347393273559292 0.531704133753923
P 8.656060009083138 1.9088090541125353 12.412664655941446 1.0753554125673932 -0.017509983859305328 -0.5408788582746556
P 6.490196086307082 8.237535800649885 1.3784672592407052 0.09886945807440392 -0.8469982573120961 -2.2282123590563754
P 2.091714888057241 3.3679643025718846 5.7903988965128015 -1.8590649371231724 0.8079779101848408 -0.3443059374094909
P 7.012085934671153 4.063057728763893 5.612052207635797 1.9096179674803757 2.014968662403749 2.3078527936978386
P 2.544517350412473 8.735115090291185 10.170675550243171 0.5198462059740724 -0.44532843727115556 0.061274530539765434
