# total energy = -340864.8406429315 ev
CRYSTAL
PRIMVEC
9.22792006469658 0.00000000000000 0.00000000000000

0.00000000000000 9.22792006469658 0.00000000000000

0.00000000000000 0.00000000000000 13.50599378713839

PRIMCOORD
 96 1
Ni 7.685731737120986 1.0613676999613921 13.329119869693121 2.5045411570949447 -1.494605150473626 -2.4590845674240422
Ni 0.4158672982254806 4.284283432291534 7.024346393518103 1.3591869467409108 -0.08174488257897534 -1.2013662069432793
Ni 6.695806595504022 6.523650515876839 9.361895779869775 0.41947162410905176 -1.228077911906511 -0.5480769186849916
Ni 2.253125912633553 5.725619975237966 2.963498593517144 2.394062911137019 0.9661730026027554 0.0030503567905495856
Ni 5.74151045385707 1.6772575512948755 3.2760270271572356 0.14913838153228506 -0.36433071727085 -0.30875477977775856
Ni 2.5580071687872037 3.1274436697324344 13.396163478468601 -0.4791831810370715 -0.680532440244957 1.5437983243688251
Ni 7.019725051071849 2.45016969309449 1.2800832510593598 -1.0155682652064315 1.5322137048550193 3.1038033404045002
Ni 6.025333596068331 1.0316999364535988 5.717560309717684 -0.030451117401005617 0.2526396819517456 -0.50981607543158
Ni 6.660915829151621 1.0116107541343247 8.950922047737041 0.1318474556623213 -0.01228755911810142 -0.810511732350288
Ni 1.19952812149753 1.8444028702425153 1.8657719650963247 0.2901212238369713 -2.432060216316399 -1.8952105338057943
Ni 4.399927728490498 8.656591995563113 6.8556563207256085 0.19745146681537606 -0.8453077569835507 -0.6459305339003715
Ni 0.25017629950453685 9.0621775450793 2.8440791551561158 -1.1080765569494981 -0.9503607181608471 -0.4622570947056942
Ni 5.713023864137457 0.10721182270178711 0.9637658333768729 -1.6019222250947507 2.323136459329786 -0.18968210728260235
Ni 7.4353413498673415 5.2718739100928 6.9987795177561445 -0.7233562202787026 1.0703980685621177 1.0142526317188016
Ni 4.025098837068084 6.691312598356807 4.962034492404861 -0.9778288416741289 -0.9733813474257365 -0.06993966241393117
Ni 7.853615289686238 6.109067744146004 12.449460992370815 -0.05799560267817754 0.4621601641165137 -2.7547994832987075
Ni 0.8728948118009336 6.286511422059335 -0.14333913036368798 0.11910558261562067 -0.44680065094130794 1.5423271391399374
Ni 6.971084683591421 8.353740881857895 7.199653807900468 0.3132148724316412 0.06553150604390649 0.5485461450119262
Ni 7.315655224611951 2.227619941145049 10.875728709649776 0.744455464151163 0.3194443982811208 0.36322565713212923
Ni 2.2453929154890644 3.4270926951212584 4.64140209922743 -2.3304003399810513 0.11675353744367635 -0.1865474183083626
Ni 3.419525800540732 3.8710294810724015 11.420195381271292 -0.0672842270689551 -1.7358892982032361 -1.3466237653639195
Ni 8.909769214723244 9.57756611729509 6.314781155653775 0.5684379988398468 -2.607591743130232 0.9186423040116437
Ni 6.298452350824213 5.840609089101299 4.699140273252908 1.3168511620871775 0.3050091966923973 0.4861045907472532
Ni 7.677029808353381 8.53075084752088 10.618142390208455 0.8366683361409978 1.1553131213389587 -1.8238626781904268
P 5.709240416847194 6.764397726500423 6.640059806662053 -0.5832799489486858 0.153305111315465 -0.06895184457936512
P 4.983362984409702 5.749898633337191 2.9531393302779994 -0.1249730971399912 0.9595932925027086 -0.16356766958373767
P 0.5982091561916691 3.0424822082654814 3.339370239924435 -1.217159465221794 0.3776639440446463 1.3154501679745927
P 1.629604571278003 8.119730052995024 6.347843871010563 0.37190210186020467 -0.39360786896841243 -0.7774738280587126
P 0.15944185114785578 2.0660944256114826 12.032732729188794 0.03885811051777823 0.8097427153947473 0.13233699370423013
P 9.068803191797368 8.032101722584446 12.128747393495447 0.32304908491324363 0.13847473117085185 1.669844599968337
P 2.519775895315108 7.507116113339695 9.931969930102216 1.5525151354165327 -1.644635190582245 -0.532553883348728
P 8.545801585399952 4.751299246713281 5.262813015228631 -0.5617510737379744 1.1234934057252006 -2.1793521430205627
Ni 2.4500497301316284 7.6937692556327395 12.461305027973381 -1.2508851396090133 1.5294729088850885 -4.803602577753398
Ni 6.650340632579326 3.4136660712009346 4.8595510560238795 -0.19101856670583878 -0.2723497587861632 0.805530991306245
Ni 2.512818043469112 3.689294820256699 2.3153728484785985 0.4341536516012588 0.5974750095021453 -1.8591808938757466
Ni 4.384784711409226 8.600560063986341 2.8645134616916232 -1.1724909186698258 -0.44127509313738844 -0.5462933444220076
Ni 4.212028816967733 6.000076778425771 11.475071054444477 -1.7410926967810467 1.6493104845707272 -1.0141035077354472
Ni 7.0337053502053815 4.7286354746525845 2.8978059522618933 0.87418664480143 -0.27350675520874185 -2.320930452817403
Ni 5.913574254282053 7.4717178113751865 11.479162714270094 -0.5754031173037704 -1.139265580957793 0.4470665030081849
Ni 9.085653374119369 6.497655464616667 10.584904344367484 2.0451194749555164 1.55036620739433 -0.09854472774513351
Ni 7.798543061812363 3.1521744959224454 8.275203898448215 0.46142251461954087 0.16891453571794782 0.13528373503737992
Ni 7.935872970528687 4.6223206057961965 10.375602194686095 -2.6149394417445544 -2.4160003346400587 1.5594234325005918
Ni 3.4071972991266075 7.239940139205592 0.6905751008432733 0.9158565137363904 -1.1275971434809289 3.296849221953012
Ni 6.76001446439585 7.6956517513576514 2.6285500049101667 0.28759974296669827 -1.397845025432741 -0.018696805078554896
Ni 5.887025527808671 5.101664921632069 12.595474374014302 0.800160471022951 -0.8504671896973031 1.1743832505965321
Ni 4.591730050266388 4.877094255154414 0.9728654855059663 -0.9786796197101985 -0.7867801930613031 0.838992356288484
Ni 2.2377060579456765 6.150030482003265 7.738543124540925 -0.6161813276623969 -0.15052214925368915 -1.6284521530644793
Ni 8.14603885354268 7.5970237400446505 0.6553512065709256 0.8902030748343442 2.0882870114819263 0.7526940500108715
Ni 5.825862872589493 8.12909639201848 4.6145257815862335 0.803179717465249 1.3941215538345668 1.8647871843189303
Ni 2.2041625679454184 5.42037883019573 10.007428479326455 -1.4236756133425998 1.4551562004493843 2.003099935990621
Ni 5.117813782017338 4.739792030198751 6.453501711947276 -0.774879327858659 -0.5829007112323961 1.6790262664676052
Ni 9.32139905198363 6.198135630110925 2.8779382400279028 -1.652866577353102 0.04342361840127361 -1.02852611091868
Ni -0.08040840563032932 1.6749690270802775 9.544767320456598 1.003546043934575 0.09234759779548611 1.3890806489765497
Ni 0.09103158738777001 7.138036216214437 7.663570886712287 -0.958256575969156 2.3599392299804327 -1.3010003110978496
Ni 3.1157149831326194 3.8982241619611937 8.814254703692523 0.048134136503065486 -2.6830515640314436 -1.4475930433901456
Ni 4.103932959508855 1.3313120501615419 8.139495335314571 0.9834289614697257 1.8701101391937405 0.6907667163784554
P 8.728874294647575 9.205090345528816 8.508817003949597 -1.0889465209882665 -1.6203614056365452 -0.29618568486349633
P 0.7839072087419277 1.9744150382242578 6.9167839098479496 1.6520147708757678 1.8870639934392597 0.7223830577321559
P 4.314283400927254 8.859246351517903 12.422934412905962 -0.9245967218228657 -0.5207142104013225 2.185922340038913
P 2.191870978212174 1.694476850425682 9.49833334870081 1.1573329799824648 0.5805365818755938 0.34804792095042636
P 7.903261500470664 5.461830647824659 0.8025789825153863 -0.2666624785933988 -1.6986245003145068 3.3202370047493335
P 7.614769030628006 0.27155831344665443 1.7685419836966776 1.1532588099130912 0.9607099226056551 1.439961752097133
P 6.207704983379224 2.592362715766835 7.074642249886026 -0.8899076550811126 -0.06880014949284925 -1.1046600750687814
P 2.847099453444172 5.245620477066463 12.991078082228348 -0.8280643965220706 0.6902905480729854 0.5290543548359017
Ni 5.402144459840706 3.6797162390681795 8.654492643713027 0.18341555754760022 1.0331263286948529 0.37501467934725735
Ni 3.8229058771243007 9.247298852615797 10.350601913225656 1.2433726332820523 -1.3350769410665846 -1.7802901929161143
Ni 0.6341362179847927 4.515821178535405 11.848443780056154 0.8289023190423337 -1.8244388624088708 0.1483361973459639
Ni 5.677524055050526 7.2394326035934835 0.42704969194826253 0.39164945969046094 -1.9624803626970457 -0.8453357820080085
Ni 8.544749602494853 7.308577409803093 4.835199497354917 -0.6892963024805162 0.5711847083470485 0.6558423936974447
Ni 7.666233141695802 3.4598887235836835 12.80854428352158 1.8277288460140522 1.3539079577301585 -0.14639321468698013
Ni 5.059843987194333 2.158069106445752 10.443145033945488 -1.3046335369750628 0.23872718563571144 0.18955278079358967
Ni 3.077686723905367 0.683936535036895 0.7950360805274327 1.3445288305081038 -0.3984466851179525 0.006713921685065856
Ni -0.05026540423119799 3.770297503949206 1.3843781281795564 -0.22624062313292653 1.0755855263003282 -0.12175073354795161
Ni 8.634232744869681 2.458705519298132 5.339796939665261 0.39982093975765975 0.4993509142341981 -1.1278488544804188
Ni 2.729378875195674 1.3124686370719885 11.74983699295966 -1.3342590731509796 1.3050513412387716 0.7879616149639139
Ni 5.622258040852027 2.4151866475398887 12.87373769429292 -2.052130616166027 1.2256376778961342 0.4275616002060378
Ni 2.4531503113256 9.011682365634618 8.288317695873074 -1.2962327145058772 -1.2125011405141763 -0.4589113181619129
Ni 0.6951724506969539 3.783216592257421 9.196514839268227 1.7554751907549637 -0.6813935026936717 1.8850505625536569
Ni 6.096019464954707 0.455516903035414 11.88939452161713 -0.27994454041428557 0.20046428549977088 -0.9901377409484688
Ni 4.171389056318177 6.032946630249958 8.821912954683228 2.493585172304073 0.6163965289969965 0.32817586461684767
Ni 0.8927394542343737 8.676607354520625 10.31188063718987 -0.24548764428799658 1.5516569011812955 -0.18722798931515497
Ni 1.346353560120392 1.0725888509490988 4.5868244878773545 0.26510079053323377 0.6085425801702165 0.5963000153574375
Ni 3.909842113518367 2.684568094606609 5.937248483606856 0.6694656409078341 -2.4810888396092756 2.031811702103017
Ni 3.3152687578934383 1.8843874485564405 3.25309379982611 0.9866675230116815 -2.3172275500445187 0.45272267285269774
Ni 0.947107591795452 0.29259797154860434 -0.215673105801383 -0.8237580558372329 0.6052708513974802 -0.13014384270765328
Ni 4.540736563129819 4.004216053609876 4.28053597389013 -0.5260808740298746 1.403393980275428 -3.0438871236648417
Ni 2.081246670612974 7.954854802421542 4.155375846360145 0.7488510221156974 1.5639192634884163 0.2174150544214965
Ni 1.342690075792991 5.990165992109326 5.076268762394184 -0.6673784193615022 -1.4825420486615049 1.8575847530332201
P 8.873706502502884 5.5347589013245315 8.798169515956774 -0.47024216979369976 -1.250294557212866 -2.092304874392068
P 5.543479285932577 4.339826284096638 10.721908507500038 0.10380057682743415 -0.6541950879020088 -1.176888019296257
P 3.0043893535966877 4.81073628085129 5.912410613542291 0.3637895000553993 1.2637753653081203 1.9474502078368008
P 3.954828224591615 0.34199687407112994 4.7853899523825945 -0.14401622981437132 0.12506154308873946 0.17233487425340643
P 4.4785588366864255 2.412399815633402 1.3804747179264314 0.1011356284007613 0.08905092932208535 0.17090971177110567
P 7.789324369512428 0.17338892976859574 4.551115205001427 -0.5368244856996239 -0.07400277673971126 -1.1941725174083175
P 1.7665930469461812 7.636685341150871 2.025197205987784 -0.49897938982739226 0.41051492913639626 -0.497849132877691
P 5.644561924024138 8.31915463687276 9.214491750649108 -0.9244841075044015 0.8057731892240381 0.12056236966680527
