# total energy = -340874.7781065753 ev
CRYSTAL
PRIMVEC
9.18841177712117 0.00000000000000 0.00000000000000
0.00000000000000 9.18841177712117 0.00000000000000
0.00000000000000 0.00000000000000 13.44816941471024
PRIMCOORD
 96 1
Ni 4.206987872715564 2.522981690947538 3.5734744409089343 -0.5731593155749161 0.12743801374071598 0.10802695620395589
Ni 1.7708366737484267 3.009103808271882 4.052255936006492 0.6292034509536777 -0.9085923759748095 -0.0685342974259723
Ni 7.661738844113519 3.8996354963404967 0.6366825150536184 0.26836300622427334 0.2230411423590223 0.16040906935009794
Ni 2.5757783054363608 8.613796137928247 5.471454844787477 0.6752241406581662 0.5523248953280682 -0.586331591290816
Ni 4.732987697467944 1.0635311063762312 1.6790306567513715 0.3755088453748565 0.45475075902632006 0.3653229059807902
Ni 5.643816587312718 3.7016895398607335 11.042453268190705 -0.3746344131897032 0.48246982220814333 0.03537426573423585
Ni 5.486373150266775 2.607165920315202 13.306856510544167 -2.704408689550981 0.8849104589768373 2.094218803585329
Ni 6.576559839419211 3.498359174037001 2.7041174479481325 -1.9342475931035978 -0.9412870379943532 0.14398769056928104
Ni 6.104450050165778 8.401975679555319 0.8102819366550253 0.39822068515007547 -1.0870832425272827 1.4248801751736622
Ni 2.046461464006211 4.344529209694888 7.73287185328976 -0.649770733582068 -1.2175142774580516 -0.09357529955500014
Ni 5.4409548304933235 0.10109550137718025 3.980469630747732 -0.1441661251286743 0.09598673720997017 0.3491779207898115
Ni 5.704432540285702 5.324170115882647 6.47304778572554 -0.6429074308033315 -1.1929882672922294 -0.2749167481823911
Ni 0.35708465551198976 4.577887305443695 9.743951499786032 1.425929442373783 2.111172400720532 -0.4416430179997684
Ni 7.702259740371039 6.44551470961768 6.653037747768467 1.3898442666154516 0.3238787799033906 -0.0818469553744784
Ni 8.023697952111817 8.306682660261274 1.9471604594632925 1.296566443696212 -0.23612420079522561 1.32139558692475
Ni 7.528212843112549 9.289668148362352 11.322027237861523 0.5973248570775261 -1.009216611956791 0.02824896754336425
Ni 8.101845394894177 0.8626981508932677 0.35131708939388423 0.19499529196539964 1.2420755117371836 -0.11351857544614644
Ni 0.16460488524165942 2.184517352049123 2.1955618230925555 -0.9450629600970176 0.14733063889958498 -0.2739618404682895
Ni 0.40808217896062654 8.061866614935793 6.024201217593374 -1.371602032575812 -0.5238568697953624 0.14293019583904415
Ni 7.937455518489802 9.086549116011163 8.751086631264071 1.039828423305377 -0.12234697237105382 1.0825778984577614
Ni 7.307847161719327 5.860782556321521 2.1360935027596084 -0.7550977743563576 1.5596165223480043 0.2932502563842562
Ni 8.096819333612348 1.5202319289575867 6.284087177193675 -0.22145065794345087 -1.119561417660646 1.5012563372415566
Ni 3.8147437592604 4.062049864197169 9.609469903952682 -1.6140159230344913 -1.05749730134005 0.8420925924803626
Ni 4.218307996114491 1.6413995160206067 11.37283456118487 0.4170784412865269 -0.39988598866764036 1.0371871290277879
P 7.57401707618369 3.6856925148302704 9.641342666977192 -0.9897813860503147 -1.0116432191204126 0.8360006206500119
P 9.060591852535541 8.246967171649567 13.242775607462631 0.10658456733047451 -0.022541118525309566 -1.2076607817027396
P 6.2296972920901 4.821196451225811 12.790487060251538 -0.0815438223117628 0.2131259401278394 1.1766262809944381
P 6.995569796592779 7.1165260501832535 9.95200838466529 0.9343625429603779 1.8228913154160928 -1.8008024539368535
P 2.3443130225286084 4.9795679178685806 11.343988461023677 -1.1131071773948702 -0.0030974079784011174 -0.31899085568346996
P 2.1481863715951013 6.218726328341465 4.570252654037715 0.6439572122240845 0.8563398464279961 0.07195437885111479
P 7.355498265572275 8.54083095942916 6.702876612482847 1.3131341182469063 1.221120249641755 -1.3748184826305807
P 4.370256762874266 1.840668603806738 9.25270408633188 -0.8026122749975532 0.2565086779888486 -1.3506429138256415
Ni 2.2773938190266767 6.4806879501786305 6.785960070110908 -0.008899616482474995 0.3015919434807322 -0.14872777635742773
Ni 4.464327723392291 7.148354708830884 5.856126788037239 0.3733020675315248 0.5992632117508195 -1.5660324531766772
Ni 1.29969166773922 8.057244843775354 3.486894792572033 -0.37304392877413173 -0.6227569239973855 -0.09123353879570095
Ni 8.553483402546306 6.928090099968011 4.212692957633092 0.35122194780303384 1.7954453033899984 -0.93108361509879
Ni 6.623191029556835 2.7098923647957176 7.732536476257243 0.09219101761296382 2.3824829196089032 0.49471984322008994
Ni 7.230682879004894 2.2947782942464565 12.140617336511118 2.311513273268561 0.6896439156279219 -0.21076103944008862
Ni 5.904354005313167 7.57980577564905 7.930937259123569 -0.22461080083898735 -2.0851296967998674 0.7575542063166503
Ni 8.236354555963073 4.05787832521737 6.5472552375067155 -0.669843078851911 0.5088886785213043 1.4674668994959372
Ni -0.16627166315120911 7.174367102777605 10.898706077848042 0.3330653314986651 0.4814812330426288 0.02731257177202393
Ni 0.7678866043801506 1.0582937116218578 4.854910571985015 -0.23392410782011328 -0.8596290587022292 0.7353984961552174
Ni 3.2854177294184 4.312948638167201 5.412619606030979 0.16770431745993053 1.102384134550411 -0.4810585436829135
Ni 6.713191523625408 5.204004065711254 8.549579246351334 0.4275649426401475 0.6849405966149816 -0.1320282042145597
Ni 7.646256370146643 6.5766241583021605 13.136427091030932 0.34571027395618525 0.048201756516207304 1.8374568719350932
Ni 8.195530442114512 2.8928428331366436 4.387465739427714 -0.15720393214923892 -0.9698311681806329 -0.3991326554413836
Ni 0.044978194845847315 5.01725878327637 12.282495603883538 2.8362250348650506 -1.2443270267755215 1.1022149559623984
Ni 2.6411814209830795 6.418105677069794 9.541892810162308 -0.47878491715738836 -0.019829118910785207 0.10570627849057923
Ni 3.621088791114483 8.350143848310722 7.769868074761705 -0.6328251068666649 0.2645557166630412 1.022410999159878
Ni 4.232779744777891 5.362660373121367 12.4141260355199 -0.24247071183854374 0.8706292664674747 -0.3515615905306397
Ni 7.826624894757782 0.22308269477720027 4.335582453076759 -0.3593828863472714 -0.6300837966761019 -0.3824991606497606
Ni 0.47345037854231575 4.792225388663462 4.827597098920366 1.1646027741710008 1.0675927379028387 -0.023806872611610613
Ni 3.9573938532282003 8.636638529786794 13.485152129441994 -0.5570531540416729 -0.8700723655227401 -1.3648577718734431
Ni 5.18801622909264 9.003090771179632 10.039824793237171 -0.2765810232586914 -1.8002270410493575 0.5767280067627809
Ni 2.1241127325486833 9.181594048185264 1.467840523431339 -0.4340099269345429 -0.5690272956844136 -1.9755063426430688
Ni 4.3047341979735005 5.514921545884034 3.2400940502870013 -0.28896705562787006 -1.5260397148338234 1.6390479263024547
P 8.622084085416747 4.362446612801955 2.790979180528822 1.7639318061627491 -0.03980710469460886 0.037535020830980516
P 2.5472942287020497 6.783795280279101 1.3220516679756544 1.10454926052253 0.63830978413032 0.6540703893986864
P 5.894752114930149 7.116480108124005 3.750358719746637 0.4631577521430927 -0.14016831682319086 -0.3996391627641569
P 4.064025372744871 5.544370405862573 8.006165543461256 0.2812501465995866 0.6263976060737664 -0.786644181704071
P 0.34604018446855683 5.74216934775274 7.696629081589496 -0.056126667790238824 0.6959906837815562 0.5077612497850803
P 4.201088912308007 3.839662732196997 1.6808729333272523 0.4801915676969278 0.5542611931188325 -0.32839723659903447
P 4.49782867299658 0.3498836971453189 6.19926986624956 -0.05399033817352637 0.10090397200592945 -0.9805974055582016
P 5.377812064261651 4.095275161445966 4.634266481712746 0.23075805138730582 -0.4424238620298509 0.7114617828339618
Ni 6.421000026802473 1.8272443340942126 10.006123536254556 1.0779758809093758 -0.3467145468509835 -0.5626396469905148
Ni 8.892884959453397 2.5305988843710034 8.505012692356356 0.2738057745063994 -0.788477635368384 -2.4817712103882807
Ni 2.426870902998862 2.658602649850258 1.554716038629803 -0.18777126341313466 -0.6265212761358242 0.16856280880548388
Ni 7.3605059500304035 5.218236915666559 4.640143389931865 -2.926367397479102 -1.2782496476648955 -0.6531501915772622
Ni 4.96799970734971 6.375572518617172 1.2665849010032857 -0.14174825971580104 -0.5134724412372447 -1.6829451419060373
Ni 0.3662308006672586 6.614746879066889 1.1552976132023318 0.46615411576725524 -0.8234582652086271 0.7550700064422157
Ni 0.91925466351102 7.887709456735105 8.469011575887743 0.1554735797216935 -0.7801454613536049 0.36634980458340777
Ni 2.3278933305530556 4.842789219072789 0.30361361159339284 -0.35161558369702667 -0.28948744690771433 -0.33498928799425537
Ni 3.8606582532737392 7.798214325318269 2.931768621097042 -0.7795674773629477 0.6600533464549987 -0.5066790724644951
Ni 1.343244739907167 9.72731220476727 11.812738048063649 -1.3529641057596504 -0.4593463488168025 0.9994525905914916
Ni 7.442898439087361 5.333055310141383 11.089535609350152 -0.7636590336628073 -0.3350152561361843 -1.7198867521273928
Ni 1.8700623333141773 4.897212182459023 2.7425259283213883 -0.5379004923726219 0.9368086905080253 -0.5399679164246121
Ni 2.0315762368095713 2.307660447659845 9.036577938166147 2.597077473862469 0.7946192294897476 0.3565078787923215
Ni -0.054104125495046625 2.5648900373943744 10.771405225875295 0.3200637770326746 -1.3216388132838077 1.7947544479705608
Ni 5.997405052115868 7.236618593059849 11.76678496272054 -1.932274785647943 1.6960582822492276 1.7613594174498826
Ni 5.103170434071792 5.949432353848177 10.070594946839707 -1.1751509820004922 0.8551550820912757 -0.6748125070420443
Ni 5.800377936821082 2.0630281705713607 5.492609325389219 -0.2690320072668399 0.27631979917750477 0.2503277459891173
Ni 5.90964653053864 0.6701393602810293 7.983222997913545 -1.9316821463692668 0.34767845342614956 -1.9791115434958235
Ni 1.8571066726059902 7.42929040113784 12.756234498557935 0.34050610404742643 -0.545656739279273 -0.6314392822627319
Ni 2.755751728337959 1.9298421408088313 6.274377782392015 0.9484275056938761 0.5360374710219543 -0.5719418982280472
Ni 1.1472375383277067 0.720478074600037 7.324196102923637 -0.39429641039500485 0.10202240188108881 0.3044510101960821
Ni 2.1770104195678543 2.7867074878598603 11.660208573674966 -0.5888142485033537 1.2395478602193233 0.6104649940039099
Ni 2.6845691017377304 9.08835923314557 9.992715805683359 0.5675525109110999 -0.3259821993996386 -0.5684696234087306
Ni 4.380988827914806 3.4385885549541957 7.366705371505449 0.09977088684275076 -1.2144796043967858 0.39589435100974396
P 5.872699926490683 0.4479534545003673 12.715957095214435 -0.08425350793344198 1.518980751104513 -2.068589790163315
P 0.7485596988953279 2.886622278314344 6.150776185029989 0.8848968321300824 -0.4917867287336949 0.05982854212185826
P 6.9983446969714125 1.1811887201126359 2.350377374349462 -0.23662453747041184 -0.49486433921775413 0.8385724951422462
P 2.013217789933715 0.9508444234505562 3.217111075727152 0.9046722149847968 1.389836810416284 0.7084767320637089
P 0.6949113186280302 0.8208449349175299 9.526279860747165 -1.1622944377527982 -2.24240176318288 0.9560634249725793
P 2.9854987782298026 1.4840847167405609 13.282797572956708 0.23784915390613232 -0.6644422195513138 -0.43378238430476906
P 3.686004920833163 7.463094568333173 11.286739142152452 0.46617931257823586 0.562479981484199 -0.11015660095244899
P 0.17119022001439518 2.901829099925726 13.348828257032766 1.0078318157941224 -0.6888160204099879 -0.9567563372745458
