# total energy = -381172.9490581695 ev
CRYSTAL
PRIMVEC
9.18405544281831 0.00000000000000 0.00000000000000

0.00000000000000 9.18405544281831 0.00000000000000

0.00000000000000 0.00000000000000 13.44179347911143

PRIMCOORD
 96 1
Ni 4.098972619175573 0.5978379401940288 10.113363621776044 -0.10555304074216659 -1.5213754765889347 -1.62346318449032
Ni 9.11883968373568 5.0287021261079135 5.743813109873904 -0.4477794699148095 -0.29011479607906815 -0.2562394834878619
Ni 2.696328533988443 1.7131937433757654 4.8589936351336265 0.30600318517455044 -0.14952276145489732 -0.7167765101786558
Ni 6.533463726211925 6.6097464925487905 11.974621792145108 0.13424783757369785 -2.4674008005992216 1.4657414321643982
Ni 3.712581029321894 6.153060140650521 2.5757033100994864 -0.7788280280937618 -2.8562546998224163 -0.33884568562586803
Ni 1.4632037482289424 3.675752966113269 4.222887571803016 0.5625512010417667 0.27121024586508125 -0.6624753256329301
Ni 0.19709167133908329 2.474175411556169 5.8618052650042785 -0.20380414850628126 0.9745190605746056 -1.1473648130261596
Ni 8.282447734506395 1.1284357352569794 1.9469095918877546 0.37856383015109646 0.8730021375750255 -0.1966981335891193
Ni 7.434217537527505 2.707303480505727 11.730868689199026 0.12271155479932416 -1.915787072405565 -0.8385655531637106
Ni 6.0561224331275705 2.4972549434372846 3.0493783281631712 -0.5632831941117847 -2.3358122550252416 0.4247871227846942
Ni 2.4631453607049076 8.33388763027485 6.0763356212362645 1.5899210868688167 1.3771849259802282 1.6380387683116497
Ni 3.947601013738029 6.290233196033069 7.4239699682187315 -1.4475735030061199 -0.5764711535569684 1.085128689904073
Ni 0.6165476983906895 7.366981066018692 5.539443992827461 -1.9608083743112616 0.10879185939443844 -0.44118407608547894
Ni 2.239385028531609 1.7599865069787433 9.148417853403934 -0.8719803811787306 0.32559987635955534 1.091664434140062
Ni 6.4362596810747466 2.0392644556348687 0.5973870030609755 0.1577240663187671 0.5948463136300466 -0.25752066419313074
Ni 7.096409602131089 4.3876825929975976 13.183631084544706 -0.9964500563197418 1.673377295711944 1.4766791621228246
Ni 8.316777734574684 6.149349782162671 2.4509232194285895 -0.002527137297227906 0.2906657834865317 -0.738900852881521
Ni 4.174355348057465 3.84056084498578 3.816877920647605 -1.4359922259264237 0.7647273270263216 0.975157979710185
Ni 3.133443663268863 5.028711310163577 0.32384082354412747 0.07300955958850652 0.6212032063570204 0.6617752142421119
Ni 6.971772782728535 4.267591881148228 2.1750837812126904 0.5328156216505469 1.0464883518240558 -1.5909338444040473
Ni 1.5367496659782356 1.789586718380588 0.7365805506893828 -0.1574381596472321 -0.6685055909874099 -0.6184580395117155
Ni 1.741388794261171 8.825794835640721 13.04167221775617 0.11896314350048544 -0.04672671463257759 -0.5325055466092958
Ni 5.836357165167676 0.6143977109599815 7.865290476587238 0.2797193117773569 0.9142727141890384 0.6665533523570456
Ni 7.140887983706991 2.0958933428529183 6.448619583186011 -0.8070232595810554 0.48247804973825936 0.508790205270227
P 0.8708753230271467 0.5098611157814659 4.394256540041172 0.5902918614901446 -0.5031947134603205 0.7894906500139306
Ni 1.701860618687625 1.2298736300547992 6.8697517003961135 -0.3515178817768978 -0.9780191033080641 0.4887533412240098
P 5.460270085767882 1.4325841066485052 12.105195185128224 -0.04347015536849287 -0.6048378776251196 0.9345057534064616
Ni 5.43325059400734 3.3666911249420397 7.755229671927429 0.017507926976776302 0.21765031036075422 0.6372242643756251
P 4.870708816537348 3.9998950266831437 1.850370472380578 -0.8127254521721551 0.30026242603603126 -1.934559725027378
P 1.9046721198936236 6.857688443282766 1.563697522104606 0.18170885926913866 0.061131062983365694 -0.3969757569993808
P 3.4143655578886656 3.6312837685930304 8.78438668387296 1.2880802606020718 -0.1608942365166326 -0.2530428309274352
Ni 4.2676837217048575 2.959773170681559 13.115413755891085 0.31945802512787563 2.522808587945565 0.03911547794422296
Ni 7.234216357354383 3.211104037955179 9.4054786530057 -1.1176958252068172 0.20465209832887335 -0.07571024634912121
Ni 8.858324760799063 8.304498652153255 3.2589759280985597 0.018142732347297786 0.023075650872540904 1.4878045826120245
Ni 8.639799340353672 -0.1608256723370343 10.331644746340798 -0.15100243132421737 1.170995565071222 -0.29922498591045243
Ni 3.6484212164601857 3.8009040926329516 6.308489261879977 0.024043156992132785 0.6656357256387826 -1.2987320838889633
Ni 3.0175959851357983 1.2150321961033934 11.997109870841525 -0.5038110068880807 0.7142126061062215 -0.4073005359641566
Ni 1.3033552594144513 6.134012409205462 3.676290233369555 0.5994264768015612 0.4379282881523426 0.3275336030471585
Ni 5.833353978965875 3.961762827570373 5.3121836170409935 1.774763349560614 1.0155502674843027 -0.038325892163392064
Ni 1.883447767256434 4.792451478232937 9.741792342545745 1.4132878423503723 0.6771498969259693 0.2488228793088166
Ni 4.318590942244859 0.6488755743244448 3.2841255461261154 0.9717345558509329 0.7360543845716614 1.0619177990052486
Ni 0.6770623595597538 6.857008823163703 9.96161914367858 -0.14929521882512353 -0.589934478150726 -0.7946467402935734
Ni 3.0775219483368645 2.4992662516274815 2.3156448347293184 -0.3309369723017526 0.9208843059682851 0.4648917041150638
Ni 8.601575300684273 7.449508990206398 11.97810346764695 1.718071810405841 -0.0269130223407601 1.673119156954551
Ni 8.85734206684312 1.627589160540955 8.458571288361288 -0.3802157639322226 0.30748156949228983 -0.22587886891813355
Ni 2.334724710369198 9.394646059351192 2.575716167777415 -2.732447340855752 -0.9680733049492618 -0.6751292669515147
Ni 0.8332408997313108 8.840268907365607 8.278290112507756 0.6544437135777051 -1.7303280020653746 -0.14375037774749436
Ni 0.24433812729181345 8.19652170972338 1.063036074880766 -0.8357257697220704 -0.774225496324744 0.37841881993279985
Ni 4.888893246750086 8.652482521224274 5.898971301461302 -0.023720740655707537 0.42580733651909247 -0.8202783248187486
Ni 5.747134064401645 6.844940974022524 3.3427721703733257 1.2946417158696735 0.6647733776384874 -0.9567259982572426
Ni 8.5058590725645 6.962763224123133 7.470586397952979 -1.0330268270025111 1.1530109555683432 0.011095081471897021
Ni 4.6253659535560026 6.16892100478052 5.300986416376666 0.8020162932847671 -1.1915924153859672 -0.8603111723709184
Ni 1.7177857712072646 3.4900605446631 7.402032932862092 -1.5354453244184394 0.2616987068302203 0.8407959851561262
Ni 1.8482085456775081 8.688493203478892 10.426235009236285 1.1649884396451935 1.0947261037845213 0.8440882827541528
Ni 8.995176374233404 3.196639150285957 13.367325973888173 0.9845515051099432 -0.3484297297698773 0.9536543013104545
Ni 0.3217982895646766 3.347964835445185 10.123915183327263 0.06982550543357006 -3.3222391227810264 0.7009796523557154
P 6.364679151237336 4.511869393672665 11.201194810135773 -0.6736387984489173 0.40798136408126506 -1.5667659889085919
Ni 5.826833299445147 7.463735092428382 7.75465107642066 1.266075731306523 -0.2797434801470731 1.000175070579813
P 7.686622939313696 8.81767613043463 8.125806317929424 0.7315035319761855 0.022245698772077816 1.2132830129855234
Ni 6.471599927265966 0.9044384544475752 10.309587399854975 1.3445699681586845 1.2590828449284575 -1.069888218805235
P 7.464827995052279 7.347575156402775 0.588280093465546 -0.07366930465969249 -0.16911713864705713 -0.2079330830729903
P 7.215499251913192 5.398323630320957 4.198194401341911 0.14527195659834338 -0.06565080523059015 0.8800814130193101
P 3.5609247181587973 8.535101105795489 8.149827215515996 0.29178472758232327 -0.14574658224191672 0.29818446046108005
Ni 3.4249915102907544 7.788336355781406 4.021112950481369 -0.42067515749884965 0.5364074527668633 0.4100235913222745
Ni 4.485621362587815 5.429769836911063 12.099146566068573 0.16504579679116094 -0.13041895074591087 -2.010055027152216
Ni 7.48372878160673 6.862105974056667 9.929063503164384 0.3280347110532931 0.1925144345250749 -1.6026891851677623
Ni 5.691570527640503 8.09829823440761 10.640402595269583 -1.9572065158926164 -0.8211501859007406 -1.3639324318456962
Ni 1.6370671059851696 4.6082101375775215 1.9270288665940614 -0.17847775392635068 -0.5404687673204305 0.8631368147451715
Ni 6.943228737727935 7.178276274311059 5.487572446442845 0.711346083191704 0.8628707055679785 -0.47929990912059395
Ni 8.768192438522393 4.9507845978630325 11.480905327813627 -0.49024149573376213 1.1460638348265488 -0.05993241468957421
Ni 8.570312775207425 9.496129874427327 6.173251287025623 0.8814458974670045 -2.4054518697002507 1.7214985766992028
Ni 8.116253063228772 3.3877960848556103 3.9644014067623528 1.0421645276377214 0.3575370913877842 0.12645559522278868
Ni 0.36659260265538607 5.57557590461683 0.23900035414047865 -0.4884039283043911 0.7945158711426639 0.08003149943229443
Ni 5.17808997552225 1.8615621626115082 5.177604138977676 -0.6801881695316608 -1.3198984335539334 0.6585590212976594
Ni 7.813473116131033 1.1108115324396848 4.290848665303639 -0.5987826725699752 0.49587118321571366 -0.8414313047472799
Ni 3.4273701807074715 6.684523073756926 9.76523464462555 -0.29556656322225866 1.1301389360661762 0.40243060946636494
Ni 3.9264042132678285 1.0978252777322048 0.7260602149274179 0.41586822302850956 -2.675132823404999 0.735597756650217
Ni 6.849082983126536 5.2975745396978615 6.939003153717389 -0.15136367131837802 -0.5393950746402774 0.9845512479996269
Ni 1.7972278526922028 6.166955616868638 11.90938928158196 0.33637125594344647 -0.018867269218148155 -0.2501642238280595
Ni 8.204741439541765 0.5770920768568811 13.03679272898242 0.2211912336344771 0.037293337133819646 -0.8061215737023923
Ni 2.0902910688984893 3.6273621768249296 12.040392488370106 -0.5524305676679969 -0.17982012688685806 -0.17206259442862623
Ni 5.902730335444168 8.575033379818207 12.890962782731929 -0.3247727524725697 1.2928080050950443 0.7930881375572019
Ni 3.8792440874383303 1.5971715681851035 7.420851062915577 -0.4796444369442063 -0.22040936116313006 -0.5753123573621769
Ni 4.200759508088586 7.651108196064881 0.9514396961141033 -1.9276871662772608 1.764275562655413 -0.3017971175130028
Ni 5.872744393704476 0.07078886423926087 1.8262292636648199 1.8352675775932585 -1.1187638614600153 -0.3493041619550307
Ni 4.861451288429046 2.7957734887073924 10.537492496348984 -0.3162084078423264 1.777723717740519 -0.7504705599969914
Ni 8.635069551687227 5.102091914910935 8.838987731600618 -0.4669048778903507 -0.009481971348506252 0.7362652150308868
Ni 1.2927109389010358 5.8072988130499485 7.705925069100621 1.95447806121786 1.1577135032503354 -1.2545548751511169
P 6.220305796214997 8.904979763567095 4.02632765728682 -0.42317015600656155 -0.2609181199104539 0.5210227427806768
Ni 5.670089021444749 6.000127245750268 0.8693590354371855 0.4765922803814437 -0.5568369242658088 0.34833717005607107
P 2.5201507942051404 6.165954554801371 5.671374789237569 -0.825629818938649 -1.0744282727674335 -0.1834322697181486
Ni 3.5055632306222417 7.76332817221106 12.048672832955864 1.305603871308132 0.20131994863184682 -0.43883383068574744
P 0.6914941846285898 1.5494052946818475 11.939082251946001 0.4906045355001358 0.21733714999570958 -0.36460222576468176
P 0.4688221630513565 2.920483780555251 2.2626574255816476 -0.9099296067289941 -0.5350095439780721 0.3110124654636837
P 8.353844583230547 3.556948022056719 7.4763521480982105 -0.1481683043095319 0.21556565991758359 -0.6172624765417176
Ni 5.538848866020499 5.493599023768904 9.30752794414312 0.07640264443045551 -0.6697602893301176 0.44610825285997363
