# total energy = -340860.9099982608 ev
CRYSTAL
PRIMVEC
9.36243592645279 0.00000000000000 0.00000000000000

0.00000000000000 9.36243592645279 0.00000000000000

0.00000000000000 0.00000000000000 13.70287134789229

PRIMCOORD
 96 1
Ni 1.4604651177852892 4.275234691459313 4.464820275650201 -0.4699976578830616 -0.25640634808302937 -0.037290766030658354
Ni 6.05345152492563 6.71222060976797 12.027736163453438 -0.2348486765169117 1.536076273134219 1.1053424458477865
Ni 2.1645952050871764 7.4554295049679284 6.256032170295847 -0.42516147540497745 -0.025572449152465634 0.06019800964613503
Ni 5.759489759141343 9.109097852217658 2.472257959725809 -0.6403679522109295 0.06118454192912043 -0.39243801703002734
Ni 2.1991706812653207 3.466544918818266 11.235929671665913 0.4668789097484217 -2.7151577005373686 1.6132242803711312
Ni 3.928300262740842 1.2316284568737808 1.5201553285553293 -0.6562902798681407 -1.2412296187971203 0.2897124184343269
Ni 4.133899357480091 8.225639665615427 0.8904238389923055 -0.26462076557302167 -0.7697036971949904 -0.2097289986311485
Ni 3.135142771437337 6.328107947661086 12.022844290639174 -0.07589536577673381 -0.4127106512361343 -0.23869581817714375
Ni 1.9294014501261258 7.8257793861428135 13.488462493203356 0.3127919259616097 1.6795343164522751 -0.11572663884105877
Ni 9.210961155986467 2.9671244948348523 5.780090863333704 -0.13642247662751344 0.1775328735145781 0.4736434821657649
Ni 4.563644532690759 5.690685216917356 2.3728438692167355 -0.10678537048737091 -0.03749336895976769 -1.3076646104919027
Ni 2.1635466122542626 7.173760617662358 2.25869892189242 4.484546158939315 -0.6609570892161907 0.2443404180574308
Ni 2.049980263475251 1.510404351452828 9.756567413041749 -0.6064941822816201 -0.14886481615592426 1.9087275944556223
Ni 1.1009756623798725 3.7683243186693693 9.226225671654175 0.05837535461509946 0.17658850732343778 -0.5770164845374772
Ni 8.367087348826747 4.9922100409644 4.3230917193586365 -0.08388404040916521 -0.683677413631842 2.7443296941156348
Ni 7.602298038627974 0.04787013530973502 3.773400631472995 0.06681165830791075 -0.628970251896949 0.03954536639278996
Ni 4.8853378339312235 5.742019453550111 10.172737992284182 -1.2802211695689694 -2.0384194372275215 -0.6479277668360583
Ni 0.581315524234013 1.5359076271390628 3.7621647720195988 -0.08178550600892368 -1.8091850215735938 1.2656651261316654
Ni 3.4218767366233225 0.14335762015698464 6.556385671142907 0.5764719248879169 0.28495767735816085 0.11328743327194683
Ni 8.504921131738914 4.281170475888488 7.778997165897226 -0.12041658811756038 -0.26660591432385056 -0.23601492891087095
Ni 4.996975520892554 4.605344822671116 12.6531496975295 -0.6941464314839658 0.024093293503777858 0.4982921339523805
Ni 6.762627965235917 2.761562849839636 12.835999945256114 0.2661482579611416 0.9715818323231525 -1.6781127535144003
Ni 0.16239987875398643 0.5741841567265957 0.21972326570116313 0.7454854480775742 0.7002396888658973 -0.373002534013235
Ni 0.3723731035962491 8.243896415831344 2.386779855214886 0.5528190613556673 3.1485670177734355 0.06142416874375227
P 2.796531548330123 9.005905082535692 11.369381834526262 0.3838351058523648 1.4373073451934213 0.10820024855702655
P 7.1705773894195834 7.964577499963823 5.6598884199121064 -0.39489316343873926 0.8228926225131441 -0.6728119316722477
P 0.5003341977378104 6.150661697998381 3.201593597248871 1.6432689063623378 0.2082722115799639 1.3934214424437488
P 3.594810292130093 6.475734838637792 4.113259867300097 -1.5873458699424727 -0.34610750939460394 -4.016291194778973
P 4.997902402057362 1.7250475593759622 7.424408009498483 -1.1299520168663506 1.3953222590108874 2.2607483840108675
P 4.558504555322278 1.2414683771183594 4.024190332336443 1.5370787462568045 -4.007198231338769 0.6253943616202327
P 6.5313945207063195 0.022073815376444796 9.859997052354723 -0.5497995578030532 1.8067219047450818 -0.11717931212718528
P 7.078619542947411 3.6480919154525457 5.958529531213274 0.09004286092170943 0.29171427935570404 -0.5067209814460241
Ni 2.1317892293145753 2.498843533014587 1.8358828855713927 -2.2951168341884083 0.11716517105979823 -0.08822534809699645
Ni 9.328197579680678 8.045609383614469 4.750442919682017 -0.2028952635387667 -1.3801586638965715 0.6234660342492682
Ni 2.2372757958185425 7.4614401888851685 9.010734227028703 -0.8536255328206266 0.7298012045730979 1.1349720957887612
Ni 5.936018490075247 1.3569353004070281 0.611647944413258 0.4803103526629792 -1.2741394821512637 -1.1647161598204134
Ni 7.219617829230338 2.2390827459681177 7.6285943126441005 -0.4476177475259646 0.2460095782297376 0.5153151508729382
Ni 8.793050099890117 5.688925078947822 11.119606085482497 -2.261912579522298 -0.3051320954235067 -0.8788459979503123
Ni 2.5887884557450045 3.8375969826937637 13.586986216048052 0.7854858997299118 1.1029729171743454 0.801516213719897
Ni 5.560257120887645 2.4714958574347445 2.6522863692395644 0.8049887456495298 1.2536066523052345 -1.3017880971064677
Ni 0.27973086305188005 5.685077117748468 6.298278290295479 0.41191052393234223 0.38622648890267675 -0.34962889228430105
Ni 7.456833870369152 2.7228585393818916 3.8442312048491476 1.085114548836686 -0.2265311577901518 1.2719589295601772
Ni 7.32120962235491 7.533474771531971 10.266246258159306 1.5180032176825922 -0.7117895984870258 -0.3511910945650984
Ni 7.480445933981738 5.197884035191714 13.238494814221424 1.1858439429379641 -1.9505267898795957 -1.1936793798219831
Ni 3.995794063923686 0.33773489909685017 9.142939313412763 0.9183419991624054 -0.10158351457145731 -0.6350732794708933
Ni 5.565893307364559 0.6469246670484137 11.67169489322983 -0.6063946805892781 0.1405994908233385 0.24096481671697856
Ni 2.2265183568451636 4.789859711519982 2.4216671005121015 0.8642483026417953 -0.39078942568301084 -0.7447408566020658
Ni 3.3036759820202706 5.344387433847441 8.184903706543912 -1.9257426409563798 -1.3457681022318437 1.0775110254578153
Ni 8.114507550198537 -0.04262248992715992 8.115854804740112 -0.49543409567829516 1.463939345958653 0.39792475117621146
Ni 2.4785364093128828 1.7646225763824654 12.998036561492984 -0.1237785626112578 -2.826883188638835 -0.39543798019861576
Ni 4.9731387588157725 3.201204119910932 10.030268867304372 -0.06554333311844841 -0.31875200019978656 0.5046808110875437
Ni 4.278642618166284 7.738690006394885 10.667329271774586 1.205456060741937 2.9566686195658045 -0.7432814984477198
Ni 2.5022608221575666 0.07927829938631785 3.874761172428165 1.859924971130623 -0.5704159485018242 -1.6545118262660088
Ni 5.097378284644089 4.234405108027716 7.425750582822054 1.8706660116972105 -1.8900529008642546 0.6199654772951774
Ni 6.3485648703389215 6.7970068302578905 3.7188494618278347 0.647885086523581 0.7743625361232406 0.15770606859663808
Ni 8.200510887369518 5.482296116247674 2.2747040062483737 -1.706340895122158 -0.9739850424480063 -2.986946701724056
P 0.06506050406432223 2.009131955171638 8.625176941045758 -1.25951170493576 -0.2441894943018633 -0.45304946006449714
P 1.9758859449066528 4.40920178830011 6.477100818051383 0.9722960847813577 -0.9702895958742903 1.6702474918337107
P 2.416088961138439 5.202443541527689 10.365783932823687 0.74673294733143 2.5349285111375504 -2.865355890792736
P 3.030161776477811 5.807725029455397 0.33957742650325656 1.1325390608672365 1.377540509547434 2.512423645166815
P 1.2127818731893496 0.18627221808759922 5.4839298613311 -0.999989179821252 -1.6105768154459554 2.2353836799938342
P 4.554019948474369 2.52853181759647 12.34054544916576 -1.0807213048649968 -0.44509755220727215 -0.37221217690145575
P 1.9575917449467033 0.2516772597970218 1.4291824103512158 0.78941763068415 -0.6281256445084666 -0.1220582374860414
P 3.916363156830435 7.279265909038342 7.817584445904869 1.3579163075586034 1.697372630185277 -1.4973503173189309
Ni 7.964521325347774 0.8370869772974044 5.83898526704305 1.6566273299471148 -0.12795891924119254 0.21987045794052454
Ni 7.9937976627452985 6.984386624525255 7.38884854129588 1.0275007549779593 0.6804241968018669 1.4024002489035912
Ni 8.072498299829913 0.6711031580394934 11.465014437131638 0.3715503749477408 0.5949998084887752 -0.20715815258017872
Ni 2.0964834831277943 2.0186254652839146 5.603816790659222 0.3184645508663547 1.6586489883628337 0.3335183598756837
Ni 0.24131491562318755 5.957168233017686 9.110765302070712 0.7447506267940787 -0.6789581537793017 -1.3992750730110481
Ni 4.338983518238892 2.905931613085502 5.559912583242544 2.329421006786917 0.34521559370795385 4.065309533659205
Ni 5.699682517921201 4.508396797806593 4.283791957970773 -0.061773324553054905 -0.6176417142580072 -0.15547049439789998
Ni 1.4715127922749212 0.5635512381521255 7.688448366044283 -1.623728522336565 -0.7239681428310887 -0.08480526667185395
Ni 5.664620195070633 0.5248188403863572 5.927190649163151 0.7072721702326464 -1.4622028228835204 -1.8869320958470857
Ni 4.525258545057293 7.5737426088030775 5.452591915524578 2.9933533765813483 4.322925071558987 1.6148939547640702
Ni 2.934309156626243 2.6066238963405546 7.826284957687254 0.7414182199867361 0.6950720286220287 -0.19586509616486267
Ni 0.8984137418816714 8.226547821908218 11.011901557888196 -1.5790694888662935 -0.13845853322093574 0.6086145710587325
Ni 7.959774570291636 1.3542389188366772 1.8332248899886754 -0.7541415810906754 -1.7918033357620367 0.6909706048591454
Ni 3.448625216298643 2.8202559611748073 3.75576554700802 -3.7725310747050447 2.735674332433482 -4.307480197758826
Ni 0.8629544517443567 5.736879476181631 0.7236264240452851 -0.9890645624889483 -0.0953043664309649 0.36754048245739923
Ni 6.648003661187984 5.775930196771676 6.106219150511235 -0.9691066313097825 -0.3635208197750449 -0.167665236691879
Ni 8.30684007311422 8.184079812175193 12.999845384129761 -1.6027169530819043 -0.5637444500189194 0.2705021640544632
Ni 6.711115842319007 5.378981634897602 8.845901987399795 0.7194558567830319 0.0020607391837706443 0.22204046900864985
Ni 0.3731511220285274 4.3732313091567505 12.650587198794064 0.2866602618715644 -2.281036444835942 0.10563788714648904
Ni 5.931047036554913 8.016333046216944 8.367288641200922 -0.9919395700438981 -0.6484784971332057 -1.2404467178845089
Ni 4.00596166942855 5.54800169215296 5.853497042855702 -1.1558070302562418 -3.5350431607930735 1.3464111351324812
Ni 7.992131149135845 3.346921073941974 10.107744897759117 0.20430679917431266 -0.16046023430300752 0.1904542095619365
Ni 6.841178803344401 6.655484247558506 0.935386937921506 -3.148001117967637 2.177090857790212 0.2989524489753561
Ni 8.40028654691169 3.300239968005275 0.8214760514973942 -0.40749568269409825 1.7053906153937466 -2.150472998092367
P 5.961830726149751 8.65923280202545 13.403779259509527 0.402478689095481 -0.5305088278942413 0.39555959337814456
P 6.592774651175833 4.754909737901511 11.130444977649148 0.7553230029932863 -0.3931548405913939 -0.682849775524224
P 9.382752494300242 7.991410241563217 9.0429634767432 0.46322717192844737 0.3827249035073215 -0.27818847695512733
P 0.4096000216519049 6.702333877343351 12.558023602712163 -0.15664471721165926 -0.06015661488523833 0.6265719268681015
P 5.935035434294391 4.292330499610218 1.0050369081170294 0.9329119265567803 -0.06199855318998355 0.16341417472500888
P 0.3266572648119923 2.087523631867983 12.204749868572566 -0.09083090404064356 0.4283707263708945 0.20424560691907406
P 9.279943584494609 2.9262480992232147 2.571644899170458 0.31892786365601844 2.557397638774344 -0.14108388665892477
P 7.8493727248833824 8.022530978854348 2.0618846008596297 -3.628481934770209 0.6576689053832223 0.12596759984277658
