# total energy = -381168.0239134743 ev
CRYSTAL
PRIMVEC
9.23318055130092 0.00000000000000 0.00000000000000

0.00000000000000 9.23318055130092 0.00000000000000

0.00000000000000 0.00000000000000 13.51369304101917

PRIMCOORD
 96 1
Ni 6.843476623230306 3.6054647591825533 1.83526733867328 -0.854643946782812 -2.7005458641614655 -0.9874835911550736
Ni 8.48151675741315 6.078830757698018 3.711225305003395 -1.1488622235072925 0.8946847647547818 0.32491339181549206
Ni 4.456090004052361 6.4863833569203235 9.091175373845173 0.7232770303013349 -0.08432344193942898 0.09003900426696751
Ni 5.12260562435278 8.536962007941693 9.70353469565265 -0.3149876480613478 0.5393847902276323 -0.5324322701691991
Ni 1.0280500465611488 7.202065664825156 12.720547607997512 1.0844414340290613 2.4719169433020203 -0.23425655145886753
Ni 2.761718233986978 9.10162641115962 5.702319188909005 -0.3255695373422522 -1.0435202703346673 -1.3036673164070516
Ni 9.391899148231456 2.0259352915441537 7.818955708436855 -1.1143101965640358 0.8627107829513465 0.9462073581141058
Ni 6.093834676450539 6.951938797744679 11.12017515808715 0.24348861158009677 1.8444428163346234 1.019177836934561
Ni 4.628861282635229 1.7213788238199188 9.367746070653167 -1.3968965454765425 -0.018305483177407184 1.286481034435752
Ni 2.6757942537340837 1.030746135346217 11.079755985944976 0.6709702504778187 -1.8954586452608582 0.714531422898221
Ni 6.262174028263431 2.473790724830921 11.368259645581128 0.08238174483202586 0.32430892546227374 -0.5446213560362233
Ni 5.858203903180189 5.719844689330025 1.476600738359956 0.32461617229004736 0.42846945673228787 0.531136434175911
Ni 1.0728679060225232 0.1425233783777866 7.213123322116243 0.9186901265304436 -0.8997333829222827 -0.15706072170315533
Ni 4.308903869385329 6.721109278475136 3.334720199440921 -2.6300346455147805 -0.2266162613047904 -0.21973521791424092
Ni 6.356518669379279 7.964966459191767 -0.26238576118984364 -0.8516252145611463 -0.5562679391362162 0.8737428723957921
Ni 0.3733685940546399 7.892070497006445 5.4636673188904545 -0.3771669498035698 -0.61343230416235 0.04371903815450535
Ni 0.5361523409977529 5.458194812647612 5.444423523527992 2.4365509050979 -1.3704638052063105 -0.06445369959869544
Ni 6.854999632832241 6.2962813980306995 9.192568625161435 2.0847473737597837 0.16521883203391546 -1.0550192721132023
Ni 8.554569683671573 8.27150806078172 8.259785614475135 -0.5934082956319393 -2.6092627030747515 -0.30498708520521023
Ni 7.689716107233992 8.676576934376683 11.422355005080984 0.10903919951855416 -0.02557707713815595 -0.2977761692790678
Ni 3.7478311734872367 1.8568480520888284 5.372098171914304 0.15497247171555892 -0.15655549993196266 -0.9885786239914652
Ni 8.64996690739529 1.7923727507664595 2.533141610825506 0.043122285110770896 0.5467767118163294 -0.4368921335783444
Ni 6.798751095576639 0.9533351477639832 4.016256358219248 0.2262269962861717 0.28678316060267384 1.0447711120226328
Ni 5.574569823082546 0.6826607601962088 7.539249423439101 0.27555103933228026 -0.10392116156569844 -1.4988680395150378
P 3.1750969702756464 0.8386036435062496 7.583871539468136 0.9279376132706406 0.5226091134311903 0.2144605997788629
Ni 6.463669732224201 4.380211724478077 12.974483162145935 -0.5544797368875418 0.0987982385168363 0.3551261679534465
P 6.389444192007886 2.7917999369381854 9.18506851242133 1.3769635539980414 0.8539086112786842 -0.2878008032339108
Ni 2.687243397889853 4.326733141453708 5.017809945922486 -1.465808795067224 -0.7142270042839247 0.1809133599510368
P 2.244650877642431 4.127010208200929 11.067931051331835 0.23686416428504367 -0.9643994556421003 -0.16340286187109923
P 7.400145091900736 7.62886021277377 4.918443377785409 -0.6088811944565579 0.8398775871069148 0.45925636020615745
P 2.1617369143208114 5.512079655625895 3.211231946540178 0.5498864610899045 0.9427304553090989 1.25432553274913
Ni 0.899815938744224 2.5792521155947896 5.775793148210577 0.5488281950287193 2.163675098604938 0.5822569070008101
Ni 8.747700125854015 6.666181086069756 10.711101853991897 -0.4051937740337989 0.7620340964648746 0.4435644033921973
Ni 3.993747710136237 3.0822573376254363 11.660938549561829 -0.0897034753044197 0.2145225633650499 -0.0431672794160934
Ni 2.8769667963678756 6.7409975498554 0.7951818409774173 1.8476060445539533 -1.1324110199298045 -0.08862181220446673
Ni 7.126778308820202 0.4135800196294714 9.444180187709854 -0.3562983338846767 0.46823156712157427 -0.5953227390458328
Ni 4.811669028715936 3.8890988392801966 5.300841099315796 2.9364960012726717 -1.576652909005001 0.36410317464107617
Ni 3.085535116799064 4.821585464863755 9.1904874662157 0.3489637478964764 -2.5802436901345818 -0.44658982048208246
Ni 8.040004519315909 0.3135588189757471 6.353395084324523 -0.504521402691544 -0.1119553447240846 -0.7667885804307245
Ni 5.851694510736788 5.123805937852983 7.521221637984151 0.8813173423089403 -0.9904203051858943 0.5357536212329482
Ni 0.9377680049844452 6.542040970606596 1.8684301540476969 -1.2082102264483063 0.15515373448842956 0.07346335929647348
Ni 5.946934770387402 8.097564168240963 3.0009185549433117 2.8586815640963543 0.06375127421503214 1.0476636030790796
Ni 3.7725114656875363 9.466041589820833 3.2721653997188747 0.6738357449510718 -0.9235327993347257 0.9833279171154873
Ni 0.7891073313483201 0.8609737938776996 4.501681604062327 -0.7266366908021873 -1.3504608797218225 -0.7867128301584774
Ni 8.460806732944286 8.698948931384288 3.157893707863526 0.7059303114927713 -0.5772414560640898 0.45626642433989817
Ni 8.1108876480932 4.505118193945211 11.311731342948173 -1.5733109891159613 -0.4247161603374428 1.439861736184159
Ni 0.48864300934169547 4.209480978845551 9.912982938211293 0.8192740519239503 -1.046159250619411 -0.9557746900875669
Ni 0.6137692285111752 3.8163598411679787 3.459654368450368 -0.6977840282365532 0.10451945727132968 1.59489848547875
Ni 1.769179000670256 6.777191618476865 7.245420988452438 -0.7516008169466927 0.4739049633572677 0.26601584614833546
Ni 3.6290647692326714 1.3788647499470001 13.274339017539765 1.1591834029276424 0.7081540586169676 -0.1244799595536566
Ni 1.4313092167250403 6.3680693785235265 9.437301468035622 0.107371324897828 1.0040247833432063 0.5740921118018305
Ni 5.227392992920382 8.58643339051154 5.197717549923089 0.15612689703497626 0.024688503885615543 0.41436207079662835
Ni 5.113261645412749 6.065433412399614 5.408598782137359 1.314851100938013 2.1000711486010477 -0.256503535782526
Ni 4.0629596331940165 7.785630389080873 7.302123798201963 0.36199307027660876 0.42200750315702806 -1.5060136494208838
Ni 0.5618833691697673 0.2650190643456706 9.559181300846094 0.27732664317546435 0.24900799873642923 2.113269392458877
Ni 7.43526811155279 1.322653145414481 13.024930491923255 -0.2278143953779496 -0.16471335315240665 0.3268874848227274
P 5.657225257342583 2.445915752083931 0.37812552878774663 -0.8338331806850477 -0.0638263504273417 -0.6869272880277073
Ni 7.978502302201732 3.320168706546169 4.8231855750913315 -0.9431924825471819 0.31505938183954774 -0.15271067226457571
P 8.786978076852922 0.36675394335045186 0.8551061074978676 1.05764539688214 -0.671725126365972 0.5897822688435778
Ni 5.447945981992045 0.1463606883061235 11.868563238918243 -0.72095558125701 1.8447703748773714 -1.2442910313312636
P 6.806968626462636 2.0201553203816442 6.1347570569447205 -0.754420802893991 0.393618924712006 -0.09045269476561842
P 2.091961767236014 7.877463605027067 10.856252995617048 -1.3735046489151637 1.70856027137098 2.1595520775755
P 3.8907238790958547 5.246016318535048 7.010106913282527 -2.756401794788821 0.1280260250337021 -0.16565951911575988
Ni 1.7433630272351504 8.72721169772365 1.211104318568436 -0.556747449875796 1.1411532848988089 -0.5314372532457815
Ni 5.81947070984676 0.6590542869195511 1.6723598671078388 -0.4573200624153931 0.8931798980744811 -1.271818804437887
Ni 7.893104613252772 3.853680357843478 7.3366115750169865 -0.3879990074220673 -1.8230180708019443 0.42190363058931213
Ni 0.9745529971752396 2.494316085684369 11.815116972026575 -0.08039659608119702 2.09895194739494 -0.6672645194914573
Ni 2.7250994390500582 8.511801590341314 9.041295884685255 0.1966595670417 0.45764942073035375 -0.8179867005710946
Ni 4.72893972900973 6.1628065368082785 12.747994161156736 1.0107271350640463 -0.2600552576895263 1.9361499523326333
Ni 5.370858155736788 2.5672120478696905 3.2339621909616887 -1.1589322061487846 -1.1997019318669788 0.8174863638959083
Ni 8.382841754515805 4.976324341401286 1.8029290463416943 1.9051308782432999 1.49795606922373 -1.7808314101315652
Ni 1.247799748905754 4.381347405712883 7.620696234336244 1.6840437742868544 -1.8528523805545571 -1.8298152962294356
Ni 2.017468464777347 2.1796308186545863 9.314434608200752 -0.2850612928155607 1.3903366328708378 -0.6500581829154998
Ni 4.062821135482455 4.4871319578037285 2.7501444418908036 0.32948095658151644 -0.18723775950716784 0.9139222728281551
Ni 1.3774243737467584 1.7446187398199766 0.47485510049668717 -1.0724649783934757 0.48931641281633154 0.14604740131178717
Ni 2.7421161912106085 6.761329013912661 5.281218743541731 0.6061900207776398 -0.3593947134218133 -1.5377873422880548
Ni 1.985355462056568 3.8835404644561864 1.7536450973414928 -0.42456575080250747 0.5337592165107388 -2.304908880578166
Ni 6.494582421444778 7.551901651049304 7.142838503452899 -0.8353125934440517 1.0812362968282023 0.0439039004718018
Ni 4.057281227019986 4.074325678722849 0.536567834132438 0.37735361189307914 -0.45224521899564696 -1.4982383763508391
Ni 3.1626506425966325 1.8973263165879353 1.9162146344907234 1.1958853863343661 0.6132893508265825 -0.1308534671801682
Ni 3.4276983298026926 8.455312990385671 12.62466841223756 -0.7221465162413175 -1.4311366976063353 0.03224369052505415
Ni 7.854971576669444 7.5236204183484 1.273883484583212 1.3580402347309772 -1.0409730784327813 -0.03979064963437663
Ni 7.9243773965234094 5.930702838592367 6.423490622782067 -1.1067375264231003 0.878961440482254 -0.15973466899089264
Ni 1.585124775185493 5.0182429821006345 12.894401015366713 -0.20586334502815512 -1.7827101152115168 1.4287265455029459
Ni 8.653013857049649 3.3872662312074397 0.02338395362008178 0.5843965790516322 0.13877426468914164 0.013091285966319388
Ni 8.415056322225063 2.2497198938855907 9.995876588535218 -0.19667216544719032 0.30243732220016295 0.7718533965481417
Ni 1.7278143508171537 8.164763257890712 3.5098579422553398 0.36578699010140225 -0.628784361138388 -0.04400520193635647
Ni 3.3148965603260527 2.9721331905723227 7.478748083120478 0.6135197216698337 0.9647059311389258 -0.561282104521356
P 8.707535789501115 5.9283576106765885 13.024592557507043 -1.9387004866686288 -1.8128259607602908 0.5101410628711666
Ni 3.1206212037280343 6.070290065485045 11.330785858104834 -0.08489011307617637 0.31892760654570235 -0.8127694180362132
P 4.80522426853793 7.592407615090724 1.3241443041089624 -0.5740705145352758 0.7211491853250548 -1.4761831963230125
Ni 0.3482367993146491 0.3875590695812543 12.147120916228111 0.8561524130075384 -1.2091715619203112 0.5243263532326131
P 6.339400352230249 4.5335471575384485 3.6735354610970643 -0.47019948948122253 0.9395823965984205 0.7490055454156906
P 9.00087394258885 5.493170101407333 8.334286303478418 -2.7223387916668407 2.669274050631377 0.6156941036133332
P 2.196859933972865 2.2236915572927565 3.7071303893315535 0.1400976114862555 0.24841561656806893 1.1011361210759227
Ni 5.463309994794626 4.942244671176331 10.646331090884862 -0.3081467138801145 -2.6686834682352294 -0.22773726228311103
