# total energy = -340854.55249788443 ev
CRYSTAL
PRIMVEC
9.38454462980124 0.00000000000000 0.00000000000000
0.00000000000000 9.38454462980124 0.00000000000000
0.00000000000000 0.00000000000000 13.73522967002213
PRIMCOORD
 96 1
Ni 9.147800598579447 6.663279979654308 0.6684892585644143 1.8208544874917219 1.0865628512474383 -1.502081661356329
Ni 4.940549760739928 7.490471270304734 11.027740707003902 -0.04021796697978235 -0.9305254286024748 0.7933205652829821
Ni 5.858855593967556 3.7931296580221536 1.3295891267873627 -0.04117338891451618 -0.20035244251225495 -1.4093036608916438
Ni 3.5713447177886546 4.3288182273281475 2.5978671474293575 -0.8757712156797305 0.09272992083556933 -1.277930830872896
Ni 7.224916814510407 7.409276191266938 1.5080324866893595 1.0313155007383594 1.298771421767331 0.8619211971705156
Ni 6.574680495003843 4.660327261887803 3.289875951426565 2.087541391565153 -1.0398258522022155 2.7782775118159893
Ni 6.782529386650757 4.25983244068843 5.932053164180108 -0.5638570643373838 0.3696711556471569 0.32492599022098234
Ni 4.723569707291837 4.670181033615691 4.524865115808403 -0.9193071912891523 0.6261217267045603 1.5726995807842077
Ni 9.369097542498803 6.045589260483282 3.344061372930995 -0.15855916062555275 1.8462988957067559 -1.323053177132831
Ni 7.626181168359007 7.669547148506216 8.822467532757052 0.909081399796086 -1.7997886679603585 0.899476015495838
Ni 5.961222205403557 9.287818002560483 12.837769712700668 -0.7091588457323981 -2.143179035534115 -0.798340901315709
Ni 0.7939024343902691 0.741398723260732 3.9807858252624997 -1.9336217865941405 0.6875842048854158 0.8440157776450045
Ni 6.122655139939868 2.728012010593499 12.560770804885237 -0.16204146274719833 -1.2806353742882526 0.2710865758030234
Ni 1.9256803783308594 5.170780791025901 4.612166717954139 0.3761631911294038 0.8112905194978416 -2.6429251283242032
Ni 6.3616982575139245 3.934855049102689 9.459974656100087 -0.9707025150419928 0.37126395405557355 -1.0265574172280838
Ni 0.8313645975907983 0.8876859414240543 1.7174119975446724 -1.1613464720172322 0.21039979944592796 -1.3693620875016996
Ni 0.6556343095045469 7.947001206730029 11.693982367159908 -1.1847370830270305 -3.058314097723449 -1.8094477883166775
Ni 4.255984777442302 4.540355244964643 7.297747449032903 0.933200918552109 -0.7939409724758004 0.30174158168471904
Ni 1.5878086225983394 4.139935500121291 11.10866926497782 0.17269791401977996 0.3693837063137251 -1.031418601975127
Ni 4.073821384099416 2.770674149903002 14.026691086572955 -1.6544213234347311 0.4724623173734702 -0.6519343168922902
Ni 1.6794017769451826 2.992224476523932 1.0322041729486082 2.773366704777933 -3.2621699254032728 -1.4332547723906026
Ni 4.110946642152296 8.669338981651224 7.408068400389434 0.25235634638337184 0.6546123779450854 -0.8279978049501934
Ni 2.664900948812503 8.895553426890022 12.123592737679063 1.316618477251081 1.2172157723810264 -0.9967678446704769
Ni 5.774638691599874 6.295330758790474 13.710231107577911 0.5159700108481178 -0.0836924932236494 -1.6772956569297437
P 6.400522118121802 2.347543807362995 7.326673430553729 1.3271296611950498 0.8036646275214675 0.8864402653578024
P 4.964752501012521 6.471619427274638 6.360977524496113 1.2208266296607362 -0.7849868486063062 2.291522689079247
P -0.04511901306032304 8.330847845981523 2.5794490403882593 0.254564152667968 -1.0766913577699975 -0.8704850275801267
P 6.762521537770893 6.038250546682131 10.213063706447894 -1.6553515485584849 0.46168091048725 -2.090524642563193
P 5.337422147761239 8.78513487627066 9.493611678961296 -0.8061393143142052 1.1835055246127748 -0.9619543365357175
P 3.1079359102428437 6.74835087557174 2.7960668504185437 -0.3045633674042303 -0.5446372968758233 -0.5777970714572437
P 2.379066492347733 7.230303543054987 10.680734035652405 2.201184665514622 -0.6722028373333391 -0.6871630581875973
P 1.1216501435132222 4.695312843794056 6.4854184615114825 -0.09847247974630137 -0.7996099978361196 1.7205745222230366
Ni 2.7580707066358086 2.1663470221038916 12.002969433367413 -1.8918609006072706 -0.5283552718863481 0.42562555952558956
Ni 1.5697902971530588 0.581345316766325 9.218426803598247 0.7752601082368454 -1.3399016161487376 0.376219498288636
Ni 0.17913687774074968 3.5377855866468195 12.940508890553428 -0.27047568169190195 -0.08881284516935027 0.09608675312294421
Ni 3.8985462464215477 5.691444704582993 12.32602205487564 1.4137670959796362 -1.7081758914483678 0.11448093935941575
Ni 0.3441434468237082 2.252478371550134 5.747850509316773 1.4226890810596144 1.1922328771834434 -0.9611485528049706
Ni 5.503059358234783 0.21492577665643836 3.1167433052586744 -0.43072431420473567 1.4206725648502179 -1.2059245157379233
Ni 5.250464958398754 2.5652558552823 5.488790158318351 -1.3947417039170689 -1.1013536364033676 -0.017321264887266943
Ni 4.300101521149731 7.098309924623804 4.599777242301608 -0.7519129488704729 1.3087470449228042 -2.1375025539746284
Ni 8.932002997738705 2.8959015117477027 1.6088215561944477 -1.7932356973331889 0.0941802801288507 0.8100903285421532
Ni 2.1708797570987204 8.386920499385457 4.062853666939051 1.0575942319292304 -1.7462372170964637 -1.065777539070971
Ni 9.089072119081235 5.099899326396629 9.248863696784015 0.021963648755284754 0.022902101409154108 -0.15937779987210615
Ni 1.0561647919730304 4.923141430687326 1.6515240490453127 -0.7053073331967917 2.2509920759550526 1.0395558863702807
Ni 4.115319839890578 5.127574348135239 10.049036883811022 0.20568902423381996 -0.728843468645519 0.8063084929022177
Ni 7.798396944528978 5.068536178668436 1.4750673972145483 0.6503091225840413 0.03256225020673747 -0.6441808981991164
Ni 6.6977963343354245 7.963630619588902 6.4000397525343615 -0.008152968124437571 -3.010621676743493 -0.011987511379179356
Ni 7.896737586373299 6.819973719216732 11.818588472158527 -1.251814079181186 0.6265374740857403 0.8819603752095779
Ni 6.436418000844823 7.630376059751736 3.8236819811053073 1.1223698336437187 -0.6288668935498652 0.7690352103730561
Ni 8.047350141097938 0.04575997744986089 0.5378244916348204 -0.7249117376912806 0.5129674765763681 1.189698540797364
Ni 7.70471103675802 2.0533383372017724 9.381546140781701 0.8756938254745756 0.5340278967910932 0.21369852480185775
Ni 2.1678203955908235 4.556093126095755 8.681406567427311 -0.3612443650360424 -0.8096229019874315 -0.704867931666528
Ni 1.6849949654688217 8.21966914725744 1.2335242369849593 1.1162092133589616 -1.4383568695038584 0.4276685580975474
Ni 2.089130989935262 6.630546688428716 12.961593146687756 -2.5271581231635123 -0.30034033046181824 1.1750797624429246
Ni 7.968435506374311 0.5178100735738047 3.083297727105323 -0.5076694614022225 -0.11735594691436563 -1.0411677109420907
Ni -0.12839652252327918 6.400981960802437 7.170078228708586 -0.43115240288108975 0.09313024159778155 -0.6118914420377913
P 0.9728206522441047 2.5570819170204047 9.43842398810397 -0.6533399389905651 1.8402781434339726 -0.05639869050470287
P 2.4533357775424998 1.4786194473088394 5.124105820487023 0.9264039502349336 -1.5008105079533893 -1.7542618871731528
P 8.518013201544376 0.5521931677229814 5.801760963667273 1.4482705290731444 -0.09489273281484303 -0.4816853786336349
P 5.302933946713631 2.588294912036552 3.006696382601623 -0.18445531166602425 -0.46934485479041105 0.5525238987127516
P 1.2739143780703464 3.331137916696257 3.3075808330854533 -0.4362154192262939 0.04156445370534777 -0.5394284989813742
P 2.660058523849084 4.755805617658785 0.3042281636901602 1.7215278872752415 -0.1738978478651521 -0.6577041294965318
P 0.788974610071875 8.14781168999988 8.080380922384268 -1.0030770747179563 0.1310712396179291 2.785756336691538
P 5.457450471951416 8.553299088874716 1.1717729957024117 0.5003726706304931 -1.3676569318851348 0.9986648045828738
Ni 2.280641389602888 1.203793061545796 7.089356130713728 -0.6367604373653292 0.4251776733548936 1.5859690441996042
Ni 8.590180348770525 3.316188337303376 7.488749206388479 -0.8065992846697593 3.5800971157089183 0.4299694383165821
Ni 2.8225800655477142 6.428572521640523 6.456863169498514 -1.4613116785278188 0.4203355147712438 0.49567603648577213
Ni 6.696501267194044 0.9306239863419382 11.038385595833372 -0.22082176611020035 -0.31173314567979216 -1.3130652126821838
Ni 1.3441295400399242 8.64199241897021 6.245394659036889 0.14731675494251403 0.10521828311056718 -1.3480139608432269
Ni 4.397419247643253 1.5970617834780512 7.660919936744838 0.9559397549105214 0.6055428741119442 0.1710961167502989
Ni 8.792351590993276 4.255271552060093 4.899438886636729 2.0398955075524157 -2.325165573944673 -0.5710098733320811
Ni 6.590127455255369 5.862693872669181 7.649643468070333 0.26946446681856817 -0.5703637551076499 1.312067624655605
Ni 0.6154647052149743 0.09544738677412277 13.091857193567083 0.8331389828315007 2.7927317395681066 2.030979950230341
Ni 6.694023747445319 0.08667565302740204 8.050108258727297 -0.6095036585319051 3.295822580460711 -0.468465023288619
Ni 4.096025216392923 6.728108413079308 8.493371264589054 0.31182416273170166 0.09962639084508648 0.9792540041564298
Ni 3.8917799898350647 1.2054635104672855 10.128646913282305 0.6059331675718274 -0.912834439080615 0.012870685315081058
Ni 4.266091931871765 0.2219763849413547 5.006834675471754 -1.3341834827180377 -0.009459345640686935 0.8698342813700052
Ni 5.527947170256077 6.1968211951451035 2.178847235381555 -3.444061075886546 0.20697303315256613 0.6227967760963854
Ni 7.9045924501221005 4.558063880441333 11.154627256316688 0.38251381593777994 -2.2410619613255336 1.88396118614422
Ni 8.977442962221021 1.2377463435567466 7.6635851473836185 1.5138051204408445 -3.549759383957325 2.215661261864242
Ni 2.890524167747626 3.4142005200901004 5.648970256163545 0.2839469767054594 0.10415744594622062 1.1841850671783027
Ni 5.61943709461339 1.1773474151370455 0.8196799012304237 0.703480307290382 2.5614622957620212 1.7117121867364005
Ni 7.186346336604104 2.40433907069364 4.279444261790278 0.9901269423151916 0.9628272260589741 -0.8234168704477303
Ni 3.8334550457504717 7.917552506080399 0.044431125948271435 1.1849535699132108 -0.4348103113486512 0.4794073812327357
Ni 8.935156204691628 9.150634731019279 10.158369642631415 -1.0028112226510792 1.3731781188136802 -1.046400677206256
Ni 6.683888439382349 0.30565649136347883 5.132498418635833 -2.3635400599578134 1.1217913354324294 -0.5981296123670086
Ni 8.714750792500034 8.119873901015193 4.72306481879759 0.7832400411185285 -0.49546829135034026 -0.07747839399313752
Ni 2.7357448752637654 1.3748826923754371 2.928076422575382 1.9354598682441442 0.9449829987887015 -0.06378058479107081
P 8.039072972846512 8.888271020355887 12.190991597843366 -0.9863188814230109 0.8396515871390378 -0.14558640251496863
P 0.18115643171774154 1.6725416749136721 11.684078857346156 0.2393488783801104 1.1134252228559212 -0.9793758744462747
P 4.130166189293929 3.136202158285127 9.210062359082945 -0.2512266036543028 0.6436124272901561 -1.451296974604294
P 4.449841313235616 3.2833142779102418 11.472377610180862 -0.3512450877314854 1.1994175678573407 -0.00487763980727547
P 0.2924618217926118 5.727453201840047 11.916548101496035 0.7580753689274428 -0.9721695865058224 0.2948384268069825
P 8.115857315968016 6.100197924944786 4.985695988979309 -2.773229407869121 1.9304115071869594 1.3693299487121835
P 2.6398254459011543 0.9779258444536009 0.13146526857567856 -0.19728614488210539 -0.3996304210134085 1.1036709716826347
P 7.47411400923644 4.021849776643185 13.365888708410745 0.6163358509623902 0.8549280536821341 0.945381776889017
