# total energy = -340864.12106169516 ev
CRYSTAL
PRIMVEC
9.32208343599039 0.00000000000000 0.00000000000000

0.00000000000000 9.32208343599039 0.00000000000000

0.00000000000000 0.00000000000000 13.64381139920541

PRIMCOORD
 96 1
Ni 3.558574905182864 5.167697043737348 3.4409693629002236 0.7721562725005411 2.5145136949266242 0.9890781893357031
Ni 9.053402506616308 8.842397144327151 8.368459617470977 0.3641530540424051 -0.881166932774005 0.018781394372561204
Ni 2.1397631033252273 5.564295768421685 10.314408212874062 -0.27501830675726185 -0.6564103503857728 1.1790801418515693
Ni 8.321796063593759 5.6987295360192975 5.485999588264113 -0.436235730941268 -0.47383142980685483 1.5790535480266934
Ni 6.443526727336045 1.6885183245768731 4.413104206973574 0.9381451499312616 1.308297101869579 0.22808796075431037
Ni 5.953138519550705 8.947000244404316 5.171960032567692 0.48379805410126353 -0.6300537147691149 -0.40371410416447895
Ni 3.7221028956965116 -0.655475782885291 -0.3490700814490248 0.47333906355146865 2.049037836173316 0.10809920420278801
Ni 6.432368193266678 5.783038460098958 9.881121495973018 0.9723827309578932 0.05881038526998904 1.0153288955021158
Ni 2.608822383833448 3.168361807764623 6.794167579871693 -0.8935164554782934 -1.7443952787917183 1.5820378274659979
Ni 5.440228157787428 7.347004425694368 11.73722571405468 -0.4831352237062841 0.20461610288461535 0.7086644225944827
Ni 8.316072304263272 5.6676683534636325 3.042678680042462 -5.8707839391504315 -1.7196098443169223 -0.9555726013790898
Ni 7.686850305421054 8.225331142499515 2.0039207688956338 0.3940945787968439 -0.970643122558967 1.2584403262484523
Ni 4.384203883396422 6.720681594851793 9.699917902745145 -1.5481941394436756 0.16174038656701176 -0.5125967235005108
Ni 4.5204461352124605 3.211168815656464 4.56045745023262 -0.38066082188944117 -0.6360780665863238 0.46455180427714193
Ni 7.304066908632125 2.773394447710311 13.189841255463142 0.6383722619371394 0.510891824994262 0.13742777796357625
Ni 1.7447025224349142 0.6810863431599543 12.54631731596159 3.5935180171005148 0.9844319488129432 0.8805406120439158
Ni -0.5210653204966792 4.891017602485207 13.244184341810156 1.274725950782353 -0.4569943036448581 -0.0374098081070259
Ni 4.2867601435241625 7.707834315604969 3.855113181128382 -0.6875417816832545 0.14469268705610563 -0.8848587798032954
Ni 8.650595274254279 3.5991166467598705 1.5035756436169851 -0.781867586251034 -1.5794199302271765 1.4367589288891192
Ni 7.255163258065793 1.648619806768276 8.612260069865425 -0.20770142667815844 0.07210890215110807 2.973500346411163
Ni 8.8525209271169 7.23224025449305 -0.04045504619952552 -2.163875130430886 0.2778650321774376 -0.7791183056406711
Ni 1.5013215638024713 8.53763026518779 2.9412236475970635 1.1172677365304629 0.6591791713801616 0.013672355280770002
Ni 6.716346825977729 5.195346343695363 12.232673016609816 1.0224503370382456 0.683791570612203 0.07388142067049856
Ni 5.62480541307019 3.0947359914907215 8.05470624974108 0.9687322786894994 1.8600967208217964 -1.0491831250473995
P 3.497459325100349 7.058318140765246 1.6343784596523427 -1.2885248043386583 0.510705677125385 3.842512131879873
P 6.594656346661507 7.626583034946152 0.002062044892350864 -0.27086211849704317 -0.032172213857170395 0.18082825643639824
P 1.2460922369142513 6.201031366645615 12.412511856798627 0.09979634076404749 -0.4090018349259795 0.06787352391352182
P 3.8632858518206246 0.6153423485699703 11.31306624920653 -1.3322109323726994 -1.6855470983052585 -0.11464137619668
P 2.5425237252692554 9.290826653828262 4.9373949683959015 0.32317352630624985 -0.8118844443280986 -0.7822008012207368
P 4.644597644599119 5.15237153829872 11.576582908415276 -1.7319210575841075 2.4980709759895685 -1.407200241395396
P 1.0296334557190112 2.6001714902525186 -0.1891814323728716 0.13493535055902567 0.10405203071660792 1.0091736745339974
P 5.397383861561186 1.7660128055448332 6.492229953104974 -0.5836386178396852 -0.600273912403521 -1.8936308480235
Ni 6.103279998014552 4.851902139699022 3.8910106606557995 -0.981028065337717 0.9325105773533036 1.5915645360095105
Ni 1.1494874845660052 1.3795844740682492 5.974911178007191 2.0798244825368695 -3.26455693757821 -0.647663200320762
Ni 0.9166516669020401 0.4740699004432957 10.260487416914136 -0.34240897749709415 0.21088162417835293 0.48494785143499064
Ni 5.070849917215499 8.497908866967594 1.5699255736409783 1.1951816753991225 0.36070571892375297 0.3615212728465128
Ni 5.285956996288719 6.8642696485447425 5.968485465781614 -0.5705085082156304 -1.2620249582759167 0.7849539384858417
Ni 7.001826314148402 0.5309308815707068 0.4679704611437244 -0.4358132986918688 0.5114320137684483 -0.5857962876126364
Ni 5.542957519060966 1.375958183547795 12.249400563421904 -0.1975867068416597 -0.4926264510261709 0.5532332660749505
Ni 2.32166492061475 6.8408525745411914 5.037404145674919 0.024465075020899802 0.08986134103852265 0.01832219534795554
Ni 5.0780652099220065 3.6983875150177563 13.006372395920435 0.38496253458858865 -0.5025761060397151 2.1288096541863206
Ni 3.9016275816679986 4.181187546752583 8.940857923520184 -1.8073250855467196 -0.11034069193879706 1.0570576426994698
Ni 3.4057393445585764 2.2452424792608063 13.403216291403455 -0.5778384662181403 -0.9313342976570155 0.9566578640234686
Ni 5.645313996990498 9.270439256994758 7.574361654826531 -2.0954387920353588 0.18311088182298788 -0.361587607308074
Ni 7.917115092428101 3.5546130196528045 4.069157542671186 1.3448597314849613 -1.269067466944995 -0.08293736022517974
Ni 3.788224434672301 4.270716837648323 1.3288061524899293 1.1132318758981925 0.3106298853132844 0.03677320296429151
Ni 9.160811553857117 2.9052180318998846 6.340838383230348 -2.0299828764243943 3.6327335109577112 -0.300599754770792
Ni -0.01406702415261055 4.1092117392759056 8.800544717795963 0.05503729138080198 -1.377670350257079 0.9959312077017944
Ni 8.552163393520406 0.5461613017566148 4.568657154967302 0.7658706966021455 -0.27542428394642887 -1.4653269703347989
Ni 3.377726483340157 1.0286919252753972 7.216853223302659 0.5397221189623931 -0.499392566105411 -0.2475828362541284
Ni 7.323205146263212 5.107998420362056 7.910067597226395 0.4312025393927348 -0.5291569418520371 -1.6540150891352483
Ni 7.718741153417132 8.093442303724741 11.582709381757285 0.1807585795407274 0.15980280322466672 -0.5729587695283358
Ni 7.165363626745649 7.678264666425325 7.230319905271421 1.6842800586673767 -1.48095310690783 0.23381252194291346
Ni 1.6006390424783579 4.098715073142149 1.237142104449757 -1.233374641529076 0.04595075569850151 0.9289208031195163
Ni 2.3134708091302274 5.73303480366781 7.931202625164632 1.1961013589999143 0.7147049723616078 -0.15723709938001953
Ni 8.953423160004812 5.6096570272199635 10.975368177541316 -0.7245880358032747 0.853546342843259 -1.0396178499564674
P 7.743547217877103 1.3711759546609232 2.4209851959157165 0.7088541700077856 0.30864062279739746 1.1711197493539123
P 3.8436908320931313 7.69924867660924 7.778255199537142 1.2229030525737905 0.28074775304187133 -0.7889090664788477
P 2.7396764713286066 3.3331948899822903 3.185257152081516 -0.6258296493854383 -1.6819256995025873 -0.45247301873573686
P 9.220761873489613 9.529313518570632 12.449281883351016 -4.560249720420217 -1.5580396647791876 -0.255249865881083
P 1.4351627364922812 7.4365057503393075 9.473880680650762 0.30412473720491495 0.6662936709377557 -0.7308111338948511
P 6.427296979788202 6.9705227574191335 3.9407560953712237 0.26109681158016323 1.0305575395264124 0.1788053124690985
P 1.5316649459209255 4.792865384259338 6.084798967277275 -2.0843910188616293 1.2169627758299557 -0.6865426509947788
P 9.163841231027162 8.25315756204593 6.190811566394783 -0.8954342413262966 -0.13208733958726931 -0.8486363071361513
Ni 0.5018786080308719 3.395354543428021 11.511883919396865 0.34837393683127743 -0.6781359149883224 -0.8749219803055577
Ni 0.7534285085221171 2.5793552775734074 3.4272845441752184 -0.2661204900469997 -0.7628434797400475 0.17657205226320558
Ni 3.179566952251991 2.656178568522157 11.011865999252583 -0.7726332121369597 0.4628042254584159 -0.3319759550892282
Ni 1.9364950704241848 8.289448433501274 6.966666211433755 -0.5774134628655798 0.5298889349220551 0.5524040853054358
Ni 4.911712628077517 1.4948147494495738 9.521948140318163 -0.7317596138510494 -0.6671182237215801 0.1749203755923955
Ni 4.012411223172057 6.368176325596116 13.512762892413773 1.2827143683044682 -0.6642475870420044 -1.4985600213563162
Ni 0.11733426964987621 0.5992515000677695 1.1508541020217857 0.42207358050827315 0.4134534429394298 -0.5845598441023738
Ni 0.10057316333682535 6.172999861259996 7.985054437705918 -0.6954384108225119 2.3418859720231473 -0.45133119182180975
Ni 3.6511431953322493 4.916988927395196 6.052149301676146 2.3045756656084633 1.9369009715660452 -0.6030216503519872
Ni 6.036617778189955 6.1573480828953615 1.7798486420241602 -0.8620237841866508 1.1217761659237777 0.042347611728275454
Ni 7.71261654449184 1.4717612367064288 11.342182845123206 0.5789946913097707 -2.5749860412800687 -0.4140566237410675
Ni 2.471946230332599 1.3216570465769821 1.9907551902271572 0.3655861869445059 0.49605038910605537 -0.29658060630906985
Ni 0.9082114524104739 5.171901303441011 3.805190626824555 2.8021049532528903 -2.397932935615386 0.7200461820688632
Ni 4.5629828026798975 1.0666048392771648 3.374510364498109 -1.4277441269850186 -0.7261211846183494 -0.6894821932390771
Ni 2.606463896682613 7.832945999602441 11.478907048661373 -0.6996604193236595 -0.5562519982966162 -0.701126976566857
Ni 3.045011997567577 9.005114113567586 9.3827946017938 0.523116392084912 0.2578325390065947 -0.24133454135157145
Ni 0.21241486132949935 1.73307788418554 8.274384878611809 1.3993545200987318 0.41796187233274473 -0.01674430933787439
Ni 0.04964475621254307 7.250940354194929 4.126761493861528 -0.17574544259685215 2.997093560350071 1.6289704874617945
Ni 5.725940698048103 3.375190876600919 2.128502958544619 0.6306687226452945 -1.8850117388959213 0.5130368963617229
Ni 7.662491700973891 0.7671981582078832 6.693189838106622 0.9938601841053787 -0.13943066732621795 -1.6051481882312162
Ni 5.535360020926852 3.4602082790341915 10.772744300617042 1.8301482540888223 -0.8798273880269751 -1.6987039474021903
Ni 2.7872470639401183 4.593344828965552 12.899882506122601 -1.5248423520916126 -0.5176047182380633 -2.1111212357676226
Ni 5.958032613440778 8.735873695028355 9.709114138216682 0.9524209431239854 -1.2210726842332713 1.3596659432598583
Ni 1.5515023398220225 7.662034918877483 14.205664044328547 2.9491802816085597 0.4013821135971926 0.18629545019855656
P 7.1413406173080896 3.811678797010252 6.118281094943897 0.14458238673048648 0.06291232325350456 -0.532797881038734
P 4.912467716849128 1.3620776010671871 1.1665058803864201 -0.46653103949069974 0.25512311049523156 -0.18492633776517187
P 6.7816014111787055 4.523960560729713 0.7327139065542471 1.018680328472852 0.0415143171937027 -1.0113552555663485
P 7.7906517063086085 3.246732564590996 10.382599254409085 0.24575118236202836 2.1798277971054008 -1.250030247807886
P 1.6802403143399491 2.881157734127924 9.433672669666642 0.49173042157446284 0.2110142931014753 -0.05354579443694004
P 5.242059304615662 5.491210632996591 7.921842321021732 -1.0359529995103707 0.4904561828477295 -0.8512395490869533
P 9.639127663380277 6.593062270365883 1.9755965500849701 2.2684730063486347 2.0019704503718683 -1.4536155954351417
P 8.062101458661072 7.269593843478809 9.463961983700214 -1.2825559883497333 -0.4065798557480482 0.5701881487617341
