# total energy = -381166.68836827774 ev
CRYSTAL
PRIMVEC
9.23607621716878 0.00000000000000 0.00000000000000
0.00000000000000 9.23607621716878 0.00000000000000
0.00000000000000 0.00000000000000 13.51793114072592
PRIMCOORD
 96 1
Ni 7.81799696186847 4.908143374851027 8.023811841785118 0.9587936794195487 0.37469149167988375 0.08179990418662686
Ni 3.6749609222751256 2.447052269339879 8.354135497210985 -0.824618089844683 0.05937345686231065 0.12368523156650313
Ni 1.2093903196961726 1.236923063529429 12.511359073806094 0.010545122505697967 0.9150149916717015 0.2821289496601141
Ni 5.272848324781856 6.448443840826273 5.6772065216430185 -0.29328625182851426 -0.8955072606560771 -1.2476427214123158
Ni 7.436417700302834 6.771087698701869 3.925377738872477 0.06169233480347439 -0.8267307653123117 1.9611235915588354
Ni 3.4479381636634354 4.883122843806312 11.076160539548574 -0.8214479196468174 0.7485532883696204 2.015190291496252
Ni 0.18455250837067566 4.8378475971539725 0.7890398564991215 -1.1316468880702706 -0.6635855279779733 1.349567935593908
Ni 8.892780703696182 7.517261077281195 8.59474175342602 0.7659920526713582 0.26245486826995446 1.3047654345672368
Ni 1.6109472145765813 4.598402315745996 2.678212790191522 -1.2459118547641383 0.00019154718551579912 0.455850419848402
Ni 7.906737184193171 5.389065874481242 12.481741747522936 0.15289810568503345 -0.9988653506294538 -0.009231545900597006
Ni 3.974939448595267 2.072732563847016 6.106428236249611 0.6878811673005444 -0.693734797867844 -1.1515665098123327
Ni 1.4103211623974468 1.2508695389364126 8.459467407231779 1.8265443387876479 0.8189899450246283 1.374973005930574
Ni 8.432002086756452 2.6504768526768387 7.089532836233086 -1.185822088561093 0.19836086600352287 -1.532332746931387
Ni 5.195643961916311 4.1808854807971985 9.476867406209433 0.08075217964840287 0.04675448254671948 0.5098538706480509
Ni 7.31199851473497 2.731717380941624 9.166428099726412 0.1808627092187595 -0.8019561294707931 -0.8197000837177755
Ni 6.051495748083667 0.96371992277541 12.162272329115801 0.08001118771732027 -0.19427743996276864 -0.0032141360619234965
Ni 5.229725083937349 1.955258907753359 10.180165070792535 -0.18884084232822962 -0.4574115936879348 0.41262169106675384
Ni 2.347542781899588 1.2333948823337553 2.596023716877533 -0.5011473440129885 -0.9807056490012916 1.9674701026021533
Ni 6.78228182333317 7.175526249427959 9.138351350991519 -0.014457570186226714 -2.7743946318218153 -1.1689245414748062
Ni 8.673359235985119 6.930779460150044 10.932059275111651 0.8204932690430321 0.72537865002537 -0.8884845494813407
Ni 0.7481849960254457 6.968342582984613 4.305529103022273 -0.3775826971847497 -0.5113276269801 -0.5158815648993695
Ni 8.322933260212697 0.27026791566505276 11.502651146355271 -0.15860415493087524 0.953943550416099 -0.76526005960134
Ni 4.641202293915506 3.3294300670097905 1.46699280375487 -0.9398983851769426 -0.37740966194199516 0.9377779963998301
Ni 6.924018652204406 4.827309233949093 5.415350824389012 1.7223097597465886 0.39046855200848235 -0.3452950407956376
P 9.114446537979362 6.335772944475417 6.191104584945785 -1.3140486596413756 1.005734052724829 1.091602727664191
Ni 5.2000403342962604 7.225216340613105 3.0770736743624614 0.0846797968375832 0.05748163915623648 0.5028661264763081
P 4.263446767991255 -0.02156439124518202 11.382584923608144 -1.139785972237637 0.395324594549203 -0.12199833078238344
Ni 1.6173108712357944 7.998691561114976 7.946556680499215 3.0489478260172005 1.0953673369129455 -0.4266977095438458
P 4.7987789938615615 4.432023634963612 4.588607456693608 0.3830547760429145 0.3031423186869876 1.3139679270021114
P 0.7998525311739263 8.330331357431898 12.025172934219297 0.8222333916625905 -0.9906517044704098 -0.2055519844353234
P 7.028136941782501 5.233465694890879 10.287578792440307 0.45845186202699106 -0.42762099268906356 0.04573941101864381
Ni 0.13487996573074357 4.667358862360922 10.498390389704753 -0.40276768109080957 -0.17673814552742464 -0.8231949842449113
Ni 1.1133166526872709 5.629970455964916 8.27563716003781 -0.7872987845689344 -0.44346413036890725 0.21792747528154083
Ni 8.62531316640424 2.736372363461571 13.440095509893405 0.19745815168359543 0.23449669249413166 -0.6788074871340503
Ni 6.1486315638818425 1.8848984775213065 0.7125993171542097 0.19764558510405317 -0.6600070665980956 -0.20911913296129148
Ni 2.736686390060139 4.978706998764506 4.701171214557892 0.09997117577901493 0.19028194565013035 -1.6355959631981123
Ni 0.22020930503041083 0.5664402548890236 6.839208380400019 -2.588056758421098 -2.8991823524238782 -0.7272347293975023
Ni 8.326599982554798 1.8268220289391133 4.523735103075349 -0.2137268069366319 0.3172725874407826 0.8425620759176135
Ni 5.914025986522383 8.732026793458735 10.14657253721456 1.5297901830151912 2.7703042638025255 1.4881395973539402
Ni 6.156805491521035 4.916067928426649 3.068881274570412 -0.03365008395427753 0.29704083377494 -1.3963013350947049
Ni 3.439025349909966 7.768907215651175 5.166675008198427 0.014897743047438858 0.7044205597164642 -0.02704363438135342
Ni 4.966921765241782 6.536888508705261 10.608994252150916 -0.06645916006449845 1.662524669268156 -0.8811363366463858
Ni 3.5778343425533787 4.335358859063289 6.732173337885815 0.4948923642422122 0.33023017604271515 1.0942126544832125
Ni 8.34170096751534 8.883535391191288 4.982966677213313 0.16132952428183828 -1.5770102923444194 -0.6890276222001617
Ni 4.322566893209864 0.6587419082845398 3.8081774706411022 0.0977224889541543 -0.9246260323989043 -0.22266344730462942
Ni 3.5510589569872564 2.8583901691580333 3.9081552271563167 -0.750018045840605 0.08579745538179419 -0.7909260969088765
Ni 5.614758638087233 5.555841706550049 7.721942690620069 0.7936674070994396 0.3556558152046713 -0.8063324041616178
Ni 7.242183013012197 3.074080261991996 11.365903645970691 -0.22699164236633812 0.6136901858094269 1.4137449844924492
Ni 2.9556552900262067 4.5061708565313365 0.3491273834265797 0.06876132583511384 1.3152061702845865 -1.6724717531785391
Ni 4.98999348416009 8.195761723869152 7.184104717214719 -0.16182908962607614 0.025989224974910078 -0.1581963779694953
Ni 3.281125387288914 7.483743355922293 12.382816903720565 0.7755868954486449 -1.0013742330942366 -0.6551993607968071
Ni 2.056255403498633 6.203022817969078 6.323661677454771 0.18427327756220524 1.4920191349140046 0.5777903865890244
Ni 8.880376653052753 7.325557074931958 0.11280759028199594 1.3855752069264526 0.050185105494823246 0.5117181775502994
Ni 5.441489844289214 1.2219606197153146 7.9178306355914 1.9332708310126254 -1.1350258318448323 -0.19432629092283304
Ni 1.6348778886027364 0.08887506904055528 4.812897260290115 -0.31388952990116264 0.5475411007861796 -0.026887311309147243
Ni 5.953122298044078 8.55066719670938 4.887164550851409 0.2902834604464484 1.036557208753273 0.7668508011272277
P 0.6240133373058654 3.371832893892877 8.452099789064793 0.2735198678348644 0.5283616996442514 0.9664529957370193
Ni 7.498973645952833 7.793484415027323 6.96971044590367 -1.017688653983544 -0.28978235244031386 -1.9894183247384705
P 2.8198942026041878 0.42801825384796344 6.687631435701895 -0.5063242602282377 -1.3194230365794115 0.5389284194165042
Ni 0.6574063716329835 2.3152257504763862 10.541606914921188 -2.2302121630952234 0.5502484724150136 -0.4669442157687184
P 7.951596807406229 0.17926023657716475 9.446938824150633 -0.14971662263325827 0.12115912271053972 -1.2515225160826962
P 0.887798450925778 2.8111106939207167 3.872860484692577 3.2046458630448744 0.012151290650553266 1.1668136657793904
P 1.8212342026998913 3.3984697383125724 12.316214632987256 -0.2063865645214768 0.11159539028150457 -0.5120868737436277
Ni 1.9586854921083199 9.12420907076425 10.289592257101713 -0.6393832197001569 0.4143885531591896 1.272874242285595
Ni 1.944471170484911 6.823105281146988 10.33144369022202 -0.2666277687007214 -1.0259532079851814 -0.23667056021699884
Ni 7.491760270262201 8.387354893301247 2.38728007712542 0.33897269812203557 0.5508285132881997 0.45148057291548055
Ni 8.457973933673296 3.895656968533317 3.345485138665393 -1.5798799005827306 2.3961239074311056 -1.0869372038677216
Ni 0.28583532248523197 4.36022237680872 5.553287931417578 -0.05350877055141752 -0.3268193505889533 -0.03291140601604009
Ni 6.762276481789113 4.005908012859913 0.6169985372584457 0.18931932462654494 1.5184711584579462 0.09630581111228574
Ni 3.699528885574845 5.372856560349285 2.311281945841431 1.5367290762268695 1.111583284551176 1.0367464419459436
Ni 6.182648033367883 2.68864032047926 3.973676876947496 -0.5197981263449565 -0.8874021150504395 -0.06300951095300115
Ni 1.4067006204374881 2.24741447733859 6.176315779368527 1.7115563778848264 1.8557739250767264 -1.3391757937263065
Ni 2.0040623356013727 8.7262727178438 0.24269822752608228 -0.7015964600041079 1.0694529310400291 1.9671057772841993
Ni 5.919068884252325 3.3893444948012483 6.738851021143595 -0.1004188048393948 -1.4333586449583184 1.083677045059211
Ni 6.0596973839521455 8.820517641719865 0.7052557127859366 -0.5995072094408256 -0.21465728917070126 -0.34931058971293394
Ni 1.1510829692032678 5.637137651273405 12.499246883177806 1.070608641911027 0.001493039605758719 -1.9983860754547194
Ni 3.9632465758368296 8.000455651712814 1.3402701407257476 0.3990928033423836 -0.019641942600643593 -1.0893301295799305
Ni 1.9072682546310504 6.514925118958369 1.0322682348121976 0.003655080254084028 0.5162893418607496 0.9873156981186415
Ni 6.936838326287117 7.658092770662442 12.308820230198625 -1.5568129914609383 0.15674190491115586 0.17480570439140217
Ni 1.7270539313588251 2.7880666832316945 1.1401068159756789 0.04261860600147498 0.10412222183291099 -1.9719438221027914
Ni 3.7818223265524753 6.4023465833718 8.548266740445621 -2.0112675594030778 -0.11176662575204623 -0.20873115349425342
Ni 5.63000740027063 5.192069600338494 12.189956544602484 0.3258924678993097 -1.9876182954152541 -0.07084031985132962
Ni 9.190791945737061 1.837766779506845 2.2002864737547005 -0.859776382913371 0.8214103815406628 -0.8338578632753962
Ni 6.978945598724493 6.492804715912194 1.1275697658316794 -3.0242117567231013 -1.0493412478918187 -1.294596721564351
Ni 4.13421558660416 3.10716388775876 12.310672063522533 1.1684509442724973 -1.237852217684455 0.8822161999741258
Ni 8.362205057186534 0.42880332034438307 0.26659103363888054 -0.06571456858899005 -0.10153723471455417 1.2683660700025963
Ni 2.840546069498237 2.062212672794993 10.564276864514856 1.377108821326654 -0.30734992901043195 0.4936872881905175
Ni 3.964114767021105 8.6777001919065 9.192626230515753 -1.9155340758544945 0.3540182796012483 -0.6508038028322728
P 8.656207842057459 6.285704174156705 2.274716319261135 2.465246216150064 -0.5466131896552715 0.9403565557602837
Ni 0.5475940409367391 9.019167173543309 2.5550109194969304 -1.2170897883261231 -1.8917621702458778 0.012290644441894961
P 6.913258623165244 1.1049857117487947 6.228048890659649 0.006798253868756035 -0.41617315586343806 -0.5225818597376807
Ni 2.4048249279089333 7.9362095040764045 2.9875844062394132 1.6988533284958613 -0.5067880872385337 0.32954420571928406
P 4.7854051551931445 5.975011799179542 0.3350220475050267 -1.0372645192329426 1.2089977553466082 2.0990727892435204
P 3.635910791135572 1.1982516115234427 1.026680408572976 1.2798979819015959 -0.23136740283653057 -1.1745799399883707
P 7.156158197157466 1.2053910986026468 2.43995988625046 -0.3678212469226117 0.6843392155855569 0.9902745236366496
Ni 2.5951712270231857 4.193289531440628 9.27569365469809 -1.1559078175001642 -0.15117238124317836 -1.4623604315073073
