# total energy = -340874.6101334238 ev
CRYSTAL
PRIMVEC
9.22923995187095 0.00000000000000 0.00000000000000

0.00000000000000 9.22923995187095 0.00000000000000

0.00000000000000 0.00000000000000 13.50792557543141

PRIMCOORD
 96 1
Ni 0.23628146463162775 0.6674494067002072 8.87621971271786 0.43717161249197617 0.9160601451067643 0.06276294215983384
Ni 6.546650634686758 3.22992943091928 3.0462131026399395 -0.016918373021893446 1.1308256777205559 1.5956453909471038
Ni 8.661678645802228 3.8965112890606055 3.938411115682631 -0.13062386766786535 -0.9328224521667675 -0.26668201897742455
Ni 8.174836236429368 8.24869784405422 7.729869657654564 -1.2697737489834002 0.29339758059539794 0.16291898025614523
Ni 3.720463536287386 1.7821108662643264 6.530163520371996 1.5556043158648178 0.8628581071624881 0.1919675608826694
Ni 3.803997387419779 8.299680165748546 6.471700899667307 -0.9291827985316513 0.18176362376647406 -0.16460690948152942
Ni 4.823874552305998 0.4545049983025173 8.370145413057775 -0.7126848566077855 -0.2208305078609487 -0.05261145554812874
Ni 4.1632086369970525 7.766257782155689 0.6081053935766529 2.2977761261881264 -1.1329506944833585 0.6720691399689522
Ni 5.73149647121682 2.7994776778737784 1.1259986579655148 -0.32875282016624024 -0.8477312788233788 -3.1059774652376833
Ni 4.941999594913831 7.795920559477477 11.966400914661163 -0.6428122999863639 -0.08113064603374415 -0.5903219433971317
Ni 7.192503619814786 2.077105064004322 5.331915603007551 1.334849655547127 0.6953101127747638 0.6669246196535352
Ni 4.188229106604821 4.143218103182804 7.5101500641816 -0.5389407607116783 0.2860653086000428 -0.4089961784990246
Ni 4.999506989279753 0.8841713430250312 10.716864264834786 0.2318867656751103 -0.7528400886704325 0.7138909611007447
Ni 2.186914561382868 8.415894755678842 1.092729093656372 -3.491360118082826 0.5321054829573997 -0.6443768162600064
Ni 5.345391216314193 5.084009910610897 1.4831028720535018 -0.5047648861609177 0.3099734826762081 0.41525192960074936
Ni 0.24115081164935517 7.8455461828935515 2.715903218085437 -0.178936181620008 1.5636459552223716 0.33827387228279804
Ni 4.821871807228578 5.711653605242382 10.278545507623418 1.2963638407671028 -0.30265072376254976 0.10230445189788187
Ni 7.642502903155107 9.343221101964282 4.185160384308775 0.6519021781027741 -2.6280777788987253 1.1656576977980764
Ni 1.206935400965254 4.178427653737447 8.76979088594696 1.275363584366352 -0.35682926668748227 -1.0195665877325473
Ni 8.066097330889441 3.3362041293823803 8.967898368139764 0.6896161477137801 0.006287632780924655 -0.5919664209790901
Ni 7.010032316009841 8.834422330659704 11.95541904199931 0.26855378207884073 1.005814014033145 0.538796007603698
Ni 1.1144307285644164 2.2183954989823147 7.388646196814119 0.04472536793183265 0.3398335034604341 0.08937720231325251
Ni 4.382855319474108 2.872794760339333 11.853650058498406 -1.2509152215160004 -1.6520479381065483 0.8908736185388076
Ni 1.3110319987911594 8.013767540156852 7.731396173948597 0.8130944054757997 -0.44184870625267136 -0.648693184247173
P 2.5486453934768947 0.526468151261816 8.30818491039759 -0.16618710948445573 0.1290719497997132 -0.6009249157239586
P 0.9001462345204526 3.0007120265745533 10.465657273294385 -0.19102910822880004 0.024480501639867515 0.9450485619193144
P 8.046669780714469 1.6135941733214056 7.412527778207354 -0.3264871640605152 0.388866240518369 -0.13680454255728053
P 3.323975386398133 3.439950016088737 0.5315054704473271 1.4156033778574266 -1.1581783587018957 0.44419278100481563
P 8.461939433979527 5.732244039655857 5.743029329505964 -0.5504415622624262 -0.44241692005131544 0.5879719551077164
P 2.205788357158555 6.26750304200635 8.71538082452105 -0.1736394519974429 -0.0558405040083877 2.0025129531388997
P 7.007097417693621 5.273301622767057 9.756667057407691 0.02484122741339593 0.5994277623531419 -0.27918195121664824
P 3.7384236373042503 9.314979627600662 2.1708316877795855 0.25519741537659274 -0.3381661430603402 1.2156800524627902
Ni 4.755919658273536 6.1274585544267515 5.871233625104814 0.23305481784128249 0.40484847487923825 -0.998055967354281
Ni 0.7229651310766934 5.679978853603184 4.2707606622745065 2.530526525415113 0.9857982330328506 0.19733705272469887
Ni 7.408772400456193 6.717751514826349 3.342023165194884 0.9386280031049513 -1.3134148827121186 1.4490066359082205
Ni 7.608363944439084 6.859817205963344 0.9121359401890079 -1.583783092291879 -0.08522127116335002 -0.2012685265686211
Ni 1.4458804242574506 0.8269555926427352 3.0859126784488 0.6871219205370166 -1.7848495301520229 -2.4667060885250423
Ni 2.8528872896849773 5.591119730997651 1.0228591323263767 -0.3637313931239542 -0.7948115480062118 -0.4588208153306356
Ni 4.349196281237467 1.0889118799972892 0.2448240491646234 0.1124590238333805 -0.7104407977686151 -0.5913177316514978
Ni 0.900393578152134 5.841647450474927 10.741246071035379 2.2984926926391767 -0.527005442726673 -0.09360435302072266
Ni 5.969776989229873 2.5958252682961187 7.924762595559507 -0.4203920790407922 0.4476411445647323 -0.793030544846389
Ni 0.38382932432156003 7.758902077885164 5.410666861978105 0.21420220391115372 0.6989338255702802 0.17195692208869742
Ni 8.346980020687615 2.8804642587694533 13.07060656824275 1.047312647497564 -0.5449980226493516 1.6308605053956557
Ni 2.2655292276015984 5.691460028148395 6.591205713653363 -0.34344693184330527 -0.15368434903175468 -0.047080755537886654
Ni 3.680667053458651 7.8893850728370785 9.846426953836064 -0.2989874159783496 0.598494451905595 0.5107352448117397
Ni 6.280073266870157 3.0572226630217574 10.645285048258993 0.35590135555657415 0.9051172729420154 -0.8994263932048252
Ni 0.3684414124893824 9.074041088471033 12.494682611580641 -0.06525588378501665 -0.5787285821325775 0.2512726264008899
Ni 9.111179550183191 5.3564478458199485 13.024476980934175 0.40921060850267593 0.22172190932696653 1.1708482408600804
Ni 5.734052970693527 0.2040492668971485 5.640545079905982 -0.4356590325021917 0.35990610584059307 0.7622914638913194
Ni 8.320196766242118 4.292907146549978 11.1865882798777 0.5764685824538072 -0.29136563776703367 -1.1337420800364022
Ni 8.386582689476601 1.6510833461531131 2.8228184258037117 0.2761652758775115 1.0331980624730528 -2.028128853934791
Ni 7.370415679065603 0.5960077058002369 0.6010108767977919 0.2543450946786265 0.3565664999443988 0.5275037225193303
Ni 6.199446626334018 8.039535578203658 9.899066847032255 0.23369527963875883 -1.4540328854782185 -1.5502471653179624
Ni 6.6439452826414245 4.442743857756962 12.948009035936678 0.48596729383844045 0.2635043925803913 0.00811517290796667
Ni 8.652172528614475 3.641498158949107 6.462637785998981 0.09904532153063587 0.995584622995653 0.4527293577209171
Ni 5.70452863197156 0.8474463512643394 2.8980718028187717 0.48020879408810846 0.4213009640083067 -0.5599860114177517
P 2.310872483663188 4.566258776517852 2.876890697046057 0.1473589210343591 0.49798900088966497 0.9640312736694043
P 2.540099117247904 7.163579181692045 4.980817778303827 0.09157112464077778 0.9776043843681486 0.8985529894609362
P 2.4109820498142294 3.4994878432520418 6.226586129443057 0.11166429584622706 0.8368184885656169 0.0710398374566454
P 5.771357558725472 6.371147407072837 13.35485423894059 -0.0792992492519602 1.319334076410031 -0.949172611390017
P 8.160540143687783 4.101944941955971 1.4589231862086494 -0.8470584211260702 0.17189393006124587 0.46986550318057146
P 8.414842622320197 8.714580649414081 10.295416558321685 -0.37050265040951674 -0.021516791025853264 0.22628895987235867
P 7.046829295842439 8.458819950863546 2.3159605636686336 0.18055494817035359 0.9114560706758497 -0.3955966172636671
P 5.610122736133171 5.626126238272556 3.508710622772161 -0.9629616947543093 -0.022993375571379756 1.471471649779956
Ni 8.322605597879015 1.797662135644294 11.060910950187592 0.9678514187464429 -1.2351250485612792 -0.37426314589321347
Ni 4.079397908665015 4.312242404325071 4.506581587830727 -0.5698528769095025 -1.406127062935875 -0.5186370161573197
Ni 3.5132394108343274 0.5261035962822856 4.4313023689437 1.2067287568067735 -0.3441334163873686 -1.4680559392301877
Ni 9.143758767341224 5.967598888592678 8.607048005540603 -1.980866064293085 1.1517004642870359 -1.0245396154671065
Ni 3.8182288754814473 2.235847991799833 2.590239732255314 -0.7953738482675851 1.483717814137161 -0.06728602684116798
Ni 5.195563734347196 7.907806635853349 3.8302804170579225 -0.202405982607174 -1.014463462178027 -0.34238120958295226
Ni 2.535013806014455 6.773966815593934 12.479432215424287 -0.6406394607047612 0.6465650821605768 -0.8474232606646567
Ni 8.236266057790235 6.7774831560294055 11.26870359682392 -1.9123518214717712 0.583854333394917 -0.21902250811793245
Ni 0.9114105219259422 3.1881394322531134 1.8957966444378793 0.12683611849065898 0.04242037394773984 -1.0505051862929329
Ni 2.661565144731434 1.4616255076771683 10.323094126122031 -0.45808805092966914 0.7508626532290875 -0.1057867540195275
Ni 2.0649501549399796 1.7145159125914007 13.003066990009753 0.3185691947650191 -0.14872186282015676 -0.540372093841566
Ni 1.9409553156997068 0.5217953870558354 6.034989876061867 -2.591242869458563 -1.1777339122363202 -0.5505117533787294
Ni 7.205544535917986 7.462108178347488 5.675300551853211 -1.2509710144546005 -0.40779290221954284 0.48150514430202873
Ni 0.37994842890655933 5.747176949956621 1.9620939669684765 0.36119165742123605 -2.578173952089747 -0.046145645318126975
Ni 6.493527129315191 5.018999144134643 7.535166842093374 0.5514707748578889 0.7270984609299542 0.9821722062444892
Ni 1.949778469128341 4.213600287332139 12.619685283827618 -1.5278808818076204 -0.3698986982769307 0.6498350111611002
Ni 1.823753197090684 2.718721827977806 4.179959707575473 0.6335136482932573 2.083652598033708 1.3507570708060028
Ni 1.3831031338583188 8.294714834634942 10.135888222203187 -0.33500240062037784 -0.7765276620953594 1.1399641496867141
Ni 2.9741964200887097 6.823620126729972 2.959991696823008 -0.007561871507657944 0.1674163539058665 0.3144276617928198
Ni 4.366141165855639 4.898086871050399 12.616200322808107 -0.9711213477469662 2.216877907880163 0.5557873999553719
Ni 6.978809797130061 0.9950320508382231 9.274568477388717 0.43748194464354334 -0.8370180061709326 -0.06452286227373404
Ni 2.8598645951159893 4.484930713742617 10.65836103547415 0.5435144961252898 -0.44941983373170985 -1.8123914443260336
Ni 6.59085869422981 4.524874864411162 5.226500146787345 0.0633596952035683 0.2759266775041441 -0.5149503113343519
Ni 4.3170416091188875 6.577171731327441 8.111982343338335 0.6244240272871633 -1.2773199367617745 -0.13966206661073366
P 5.1854023411202865 2.220573599619509 4.6791859111643825 -1.2313655815188471 0.3141240145094719 0.025202467407556595
P 0.24775064116485343 1.2713093498823291 4.739147360443141 -0.8309455747246077 -0.305060618755623 0.9053730977065634
P 2.8915301175151984 8.923687539824714 11.709426571052191 -0.02948309706078148 0.17627586117902544 0.8476739432228821
P 4.36921450277168 3.257404878363887 9.528842345377168 -0.04187967095292142 -0.3860074309133352 0.2296517056970045
P 0.28362192822664484 1.3482073774632708 0.7134553221929436 0.012862972005597202 -0.9688078691224411 1.1143433637948164
P 6.466623894749847 1.772189433277107 12.462101548574612 -1.2784046851855209 0.04355320200060241 0.18160190137762916
P 0.33137032422913654 7.269733900035298 0.4516587006901838 2.321916470879756 1.2291094384948187 -1.2469135565557752
P 5.819081958703995 7.988848592188952 7.424928185055381 1.303740078626516 -0.2568969145662027 -0.20405843060893245
