# total energy = -381177.8586316946 ev
CRYSTAL
PRIMVEC
9.07706525007457 0.00000000000000 0.00000000000000
0.00000000000000 9.07706525007457 0.00000000000000
0.00000000000000 0.00000000000000 13.28520251730994
PRIMCOORD
 96 1
Ni 8.236601422457467 5.650373131892297 12.177070629613292 -1.401028308256729 -1.9137818690500783 0.9913826690991635
Ni 2.783763379693234 3.053334056879397 12.272231856241905 0.6953162834223509 -2.539019136267156 -0.8038276354618931
Ni 7.738724405700075 0.9508679469538862 10.725037045242557 0.9266443483805138 -0.43484245013816725 -1.0963662104911052
Ni 1.7026667807900626 5.618049703329435 6.851285173745228 1.2039270256919203 0.005343780810416603 -0.8077791639104732
Ni 7.213824966355868 2.691222701738055 12.091168009312709 0.2554411559562827 1.1200725529691098 1.6104703717750781
Ni 3.03685010678949 -0.046530850743878686 1.7552674649178186 1.0390781754029137 1.250248534466279 0.33647795672463987
Ni 0.5993676808296698 7.002964745767459 5.155402591356705 0.31731038265725353 -0.17251690835722547 0.1422791925186066
Ni 4.098785021419647 7.173304948073189 2.98421492981463 0.7485910835860914 0.4576175390511538 -1.39883464303952
Ni 7.220950462402441 6.507366072331965 5.207932474377247 0.9126896859726346 -0.06379626852035465 -2.237995149474752
Ni 6.209438643999947 6.069597380186558 7.1231931951759675 -1.4667953273502092 -0.8430932658307351 1.6327937178626266
Ni 1.884707319916216 3.971315797238716 5.08186837986257 1.470467633995474 -0.38604034103379964 1.1114806975350406
Ni 8.718067105645172 2.454429306366129 4.881036500716523 -0.6310253346537649 -0.28267556619220346 -1.432997662074474
Ni 1.4896825269852232 4.632970298286968 11.374166104259386 -1.0744884365814076 -0.11541245003474962 -0.754770730034242
Ni 6.087188732209818 8.217793743720524 3.456078893616264 1.648104637188084 0.38733283459297807 1.6133356091380149
Ni 6.90642108213516 8.310588579496473 6.702756250994036 -1.0043479710105798 0.3814025851514722 0.11668900275432807
Ni 5.5223865150048 8.538214139190643 1.2558346392147155 -0.5408328355280685 -0.6153719443872241 -0.6017330134475508
Ni 4.334307627687725 3.0842868486231114 4.552532978839433 -0.5288232126617022 -1.1487516660713573 -0.3313118391426681
Ni 8.012134681392862 1.3714083696771313 7.1103600406401135 0.33304707666621997 -0.2179344172600763 0.27630694366169833
Ni 0.9596273147054064 8.1414556268394 1.222551764878447 -0.4884653776699458 0.017540837097240757 1.8727352355214135
Ni 3.81870310293166 4.26186357170339 10.313660827371056 -0.0066234188537885935 -0.6799218032441516 0.06781361720986384
Ni 2.9391082705735627 4.890713559742323 3.2494676471672195 1.2330884777472246 0.9352266907328861 -1.2036534603155593
Ni 0.21048806092228217 5.407262099261245 1.7392591530353514 0.31158684990991503 0.30170584335077716 0.006040292656808953
Ni 0.8435180374063692 2.8867880677551563 7.056661031644032 -0.3132786357900411 -0.6006606063189784 0.3656890310709573
Ni 8.34838547827091 8.485512699641081 8.63839679819246 1.0551851082671053 0.39935582719578316 0.47737980927974555
P 3.225507826320678 0.6875441059196363 11.22909100475115 0.2777891846341796 0.5167264293981682 -1.1505293267970702
Ni 0.7404270867697469 1.8899810946971831 11.76516249573118 -0.9665095600065676 0.23949388859840687 1.2158564301396544
P 0.6958732207888539 8.598794471184057 6.775718607391439 -0.9311664046205835 -0.8782780412619843 -0.4597960347597113
Ni 1.7072960839540787 2.34505067278497 9.734173734364576 -0.8487250101952158 1.637373366813509 1.4278161178735345
P 2.881178441568172 1.5611825682066995 3.506841472075955 0.22041733158293006 0.8157148738177823 -0.24310217477495552
P 5.114172746588875 7.092446452808377 5.594159775883604 -1.0814682103333504 0.6867303415255528 -0.6838468493301706
P 0.20646419799559934 3.853713342742658 -0.0858980817680685 -0.632497034103285 -0.4418679895263809 -0.12345717471609705
Ni 7.11752638347931 5.906364519797348 9.280191588667083 0.5978318786209317 -1.911789264100082 0.4059339946339332
Ni 5.218785921030607 5.2553846472214145 4.072472425317982 0.2846463167653291 1.0776776329426665 0.015623565469869868
Ni 8.55289175334008 7.436131365943932 3.019035458966554 -0.24209764476984114 -0.13821993484756842 0.9493186500495779
Ni 7.035669411061477 4.4758644567913075 0.718072091020064 0.4118686149508133 1.1415682609490403 -0.9305354559048039
Ni 1.6501831908011613 7.27322527989571 8.771236014043648 0.26772948640533245 -1.2189790349290361 -0.9481243726311606
Ni 8.586431508616627 6.4282140652923205 7.3083090439334315 0.42098677520199757 -0.431646826019005 -0.004255689952560413
Ni 6.385615399118348 9.497605450205334 12.54974678074012 0.2497500191087763 -0.5336545726120745 0.8649466142604008
Ni 7.978122918734888 4.6481471510129175 3.7691051119149948 1.4072953722123636 1.6486767076414701 -1.763287744820847
Ni 5.445195154011093 -0.1382491466075687 10.520950130577654 -0.8051643519954456 0.8250502922860953 -1.336607261668182
Ni 6.143039913323915 1.3839528735451117 5.634918520976506 0.4497252807872707 0.0011505686646754378 -1.072001922714128
Ni 6.051052936335412 3.6795063107352215 2.5183962913212983 -0.7869737971293479 -0.7495948422602574 1.8542346056140646
Ni 0.843555253372982 0.7659381780294854 3.1626355354078233 -3.6456453339233734 2.194972108946007 -1.9827519684618882
Ni 8.332673078708337 9.067588571593397 5.014127151268974 -0.2572388712866538 -0.20213910209903252 -0.7958549016690617
Ni 0.13968332288191088 6.507275301681689 10.458097809207858 1.5151500645045133 -0.22810904380023295 -1.6310014018488943
Ni 2.9995342924615116 6.5501099715463775 4.779391526538779 -0.1986547430948579 -1.1052617132085223 2.4542424088403925
Ni 2.7586562178272187 3.5938460480708736 7.944657595391566 1.7723907355633797 1.4089277656094639 -1.2020940862482394
Ni 1.9288490871448614 -0.22342378629294687 12.687301531873088 1.3372196984412004 0.9778409258589869 -0.7134132501333778
Ni 4.8907407909374045 3.810606360927146 12.709288906489155 2.269330983473556 -0.8946783369968785 1.0414325345677031
Ni 6.407572819419826 1.7247422029368993 1.3942816658398833 0.19461733980069065 1.0249831307624282 -2.1416330312032343
Ni 2.874888035504127 7.978821852742004 6.674751689971248 -0.3939331135183151 -0.22028749087328514 0.16449300961148444
Ni 0.954044919713505 8.688158176379618 10.369167080014108 0.42203475685053765 1.855654368779727 1.2387952983240147
Ni 6.012693259529273 6.540206893601395 12.749197130588986 0.3137560896470919 -0.37699597144334424 0.37816685182299387
Ni 5.2732936965206365 4.113970951210624 8.429234896470692 -0.33891022031521634 1.7621562023195652 -0.5002428299208481
Ni 1.426978161775377 1.1663302395112285 5.404007971448893 1.1619609656727796 -0.1930854765371965 0.9577215294012925
Ni 7.693393542952829 3.885664611639395 7.371427323308532 0.15135441534699737 0.718224555479092 1.0362008538551186
P 6.2483338676427085 4.109459649891966 10.658239831411818 -1.7579069401249077 0.890926326153614 0.6078368123524436
Ni 2.2136964647722768 8.542779902899465 3.973085824919075 1.4274924159855287 -2.1752890286947832 1.291887550163304
P 2.773206753066273 6.1862648969847855 10.519289935384128 -0.5360467269933349 0.58938297652263 -1.129562751847732
Ni 7.960958188767918 7.2810497099494 0.7702152910704348 -1.4313729819868575 -0.31419600539798787 -1.2478823482269474
P 9.057204409201958 4.445846602745425 5.714988219290429 -1.383784690684933 1.9112624450623343 0.8021129667636315
P 8.939828881331588 8.59975664007697 12.261072512497119 -1.7134826483732617 -0.2947875189643891 0.4092293775557532
P 5.001925760459032 2.855018340158969 6.7704711560990525 -0.37720705901288587 -0.6790656258914434 -0.6142974803761226
Ni 6.4467948174035765 2.4681810598827645 9.225961571366895 2.126840446275092 -0.878447476960313 1.1203018953710964
Ni 2.224952025406355 4.376751983756232 0.6215747204194048 -0.4922950358286813 1.0922334192696543 1.0955989933077777
Ni 1.2062693256321497 6.460101794733865 12.927976280250764 -0.6578303706617509 -0.1967243588413644 -1.2894270044379534
Ni 6.7435149960869385 3.654744077340251 5.223808261110313 -2.3353222027627005 -0.09014210550373508 1.3170455374861705
Ni 5.544924867468039 0.935010314350875 7.979663296670051 -0.03464947175306936 -1.9084522293070487 -1.3476576059450727
Ni 4.996915220563862 1.289360778893721 2.9448113905303304 -0.805683200613393 -0.6053770379580412 1.3120804801714112
Ni 5.01365332847454 6.502428148957015 10.391047345262855 0.242251396738886 -0.004028661543418868 0.06556081661994514
Ni 4.306341190338053 0.10990419564625038 4.986667214147835 -0.1530973661800331 -0.912430518773977 0.2149192845828363
Ni 3.225035818939249 1.2777784439186537 6.9375726616029745 2.5322023704556393 1.814509776220617 -1.6446891837486322
Ni 3.8395621983648134 2.074145667039767 9.105013310701706 1.1069858949884808 -1.3647029914631335 0.8289257160811014
Ni 3.741475433677842 5.9710930705083225 8.375709259416636 -0.8320498635323801 0.4734606767309975 -0.23761106975339727
Ni 7.255125612230912 7.638422837146398 10.860042048809301 0.7484761552747818 0.20747722648249428 1.6106410930249873
Ni 3.036251020497676 6.845232586784903 0.8326046821238275 0.4606642962972776 0.8845584749540573 0.6271635377055134
Ni 3.7525131447512603 8.602588684365545 8.908286080361087 0.06078267850501144 -0.43587937604311383 0.06837566036092095
Ni 4.259185837520283 7.971278811704166 12.338990038693025 -0.4738031476720808 0.8803446939830257 0.22543278251965046
Ni 1.7425241733257366 0.6325289224945702 8.295081321603522 -2.08605529393793 -1.0426067573814624 0.244676718350927
Ni 4.2188473605381525 4.884060071077178 6.156309674687591 -0.8191591236126409 -0.01726701461056381 0.9224015139437598
Ni 1.3545431828560697 3.4924552317138984 2.957684484152305 0.1099812517168493 -2.1710662488626866 -0.4039434465664656
Ni 0.978316991596992 4.714210030282932 8.812021082625131 -0.47947937212125163 0.7161316775058054 0.9868400440338037
Ni 3.809426342473573 5.630730363172827 12.362624900611582 -1.5247801313951095 0.8265230201768798 -0.5967252758203143
Ni 3.745387648704687 2.947041625407582 1.6879111038813877 -0.23296020124494718 -0.5161314761266466 0.5295896585140815
Ni 1.3583283189725297 1.6769968408923435 1.0753226778391904 1.1925246973922494 0.90940921544915 -1.2969703640028503
Ni 4.504892910749196 5.229424241242816 1.4731159756035652 1.7091685943789405 0.005497275669145371 -0.1583519297107531
Ni 8.297726378352532 0.6180655270797801 0.9124392844535381 0.3014960413328162 -0.11320258686762438 -0.25580650971550134
Ni 8.57347853682241 3.043385593609277 1.9179048698412262 -1.7644637674068193 -1.1121219306634653 -0.5161908686096723
P 6.4251732485081146 6.17161451403043 2.5459624301032586 1.179103538890337 0.271907529042422 -1.2181215720247474
Ni 8.281069964027102 3.848421413831636 10.131029371311614 1.2191009052188813 0.3553894489171621 0.589724676132765
P 8.753413196862187 2.0670110939281665 9.019217799768448 -0.14059537705828043 -0.5947277857743112 -0.432282659830791
Ni 4.022474135733606 1.2113887903076495 13.275969168448361 0.7205650306868107 -0.13252159891121046 0.12096269042901749
P 1.8382327469755078 6.78233760320948 2.693229640815631 -0.8181965025890554 -0.7888321904943254 0.6579769235419441
P 6.319252976702425 7.799894746920276 8.77004056457953 -1.8098527370645798 0.46607672556210056 -0.12428609837529563
P 7.523071494777155 1.1969653339789808 3.2289017409344534 0.12314864233674275 -0.22896265004977986 0.1709979006095378
Ni 4.99833124270815 2.0619823999029414 11.147001659468613 0.10765183225272427 0.03150989768282315 0.41967062749373535
