# total energy = -340860.7033736515 ev
CRYSTAL
PRIMVEC
9.32857244433635 0.00000000000000 0.00000000000000

0.00000000000000 9.32857244433635 0.00000000000000

0.00000000000000 0.00000000000000 13.65330871884298

PRIMCOORD
 96 1
Ni 0.1512264195646263 3.6232175089229517 9.374034235661526 2.452431837994215 -0.9464364434057766 0.1364654140503069
Ni 3.274226287948913 1.3091531894109916 7.381811260094847 0.5626211350477537 0.6841780074173444 0.16964961411175947
Ni 5.514473614288609 1.7828674229862143 12.84003544870039 0.6237614540024999 -0.23473169132307317 0.5471806321229673
Ni 0.9610295256674626 9.254195663553833 6.457222869537726 -0.6320059533994793 -0.021386178985259945 -0.043970749153995244
Ni 2.6284838512788187 2.39160341306028 9.603163563096944 1.8956928727588511 1.229547554473502 1.6107565355569293
Ni 1.200316735557737 7.2596256191785935 0.04837051345846367 -0.5967062496569207 -1.1255484884820164 -2.1334813486303776
Ni 3.7136860037775725 7.516543830850187 12.035077603087084 -0.11867620838768594 0.6111507072170249 -0.5580186032787358
Ni 6.98951680617431 4.859747762425176 4.875391778291458 -1.296214716783748 0.012537984566010666 1.9942867085743656
Ni 5.05293316765763 6.972734704478757 5.105026714349387 -0.7373278519674463 0.4333414401126085 2.1417901256063887
Ni 7.2024041562544605 5.046794967037468 2.604000080233713 0.05169819970523999 -0.6421271009938813 -2.330627368390193
Ni 5.639056698304226 6.698950433960272 3.0282085130929124 0.15741887637352242 -0.7741475918989571 -1.5821848945668235
Ni 4.71221639037673 3.0097239469396406 8.328054065696929 0.4460326624270319 0.9661164383332072 -0.1580325986981214
Ni 1.4454716174694138 0.9827184564301965 3.141052521636778 -0.4448468696490468 1.3192050070313344 -1.2573051842027445
Ni 9.146963724148401 8.995906151743691 3.800821399724011 -2.4582458735728308 0.41949347848592267 0.25419391381274287
Ni 6.424447863369214 6.342085897905052 8.675011657894075 -0.8043917354954792 0.08593295251839393 0.2130464930401557
Ni 1.275878171763391 1.261736056048851 8.444625771760274 -1.5762194210120082 -0.00465343961161134 -2.1016253804620453
Ni 2.9138728658269137 5.55639621852419 5.574441408918785 -0.48908038554612543 0.6032427652238578 0.5039027952709386
Ni 9.506281674737213 1.8301352991904176 12.496586332572003 0.9783561749325087 -0.7469232089653652 1.5511683915806511
Ni 5.07292429824883 1.420946800705875 1.761263382232057 2.2394334245831757 1.6726481308554033 -0.6481031160716579
Ni 7.057764641641046 5.818379844993275 11.458539180551762 1.3587938250675502 -1.2820867620227983 -0.8835986821439492
Ni 3.0959386127930544 8.65734427468051 4.022538243553377 -3.1408416241047195 -0.963802959708682 4.688850129900151
Ni 5.297976106700855 2.2986162036654707 10.4459002610986 2.204667738967216 1.3377395755004122 -0.8112591520392737
Ni 2.2051065942178814 2.3586455668732955 1.33557077350862 -1.1148262169685057 -1.7111678841971565 -0.7984972243879151
Ni 7.35442257161339 8.609983112752595 8.861079362407404 -0.9966020085165741 -0.7782359030357178 0.4027782226137708
P 1.2922871305641 3.4509001200845764 5.197404767968367 0.9034260012825215 1.3173530414242602 0.4414566130205752
P 8.864018795561527 3.528084727882796 11.486555681953792 -0.04112736616792917 1.349520113075108 -1.1020192950118246
P 1.7222037168571567 0.3908858394925065 10.318679056816443 0.7653973565101527 -0.6895328439713544 0.46269263958121604
P 2.1789306201446634 6.061389155259604 12.127523755284372 -0.514018800659018 -1.0125161086436694 2.7177923099467387
P 3.658955269676514 2.4508398476165643 11.714634612140225 -1.4144877761957446 1.497132287770854 0.44599743831372224
P 9.054806757694617 7.653188758941597 5.883265662977477 0.13821222153808457 0.3236725774298555 1.1790642010119692
P 4.393561686753405 8.128498178392272 9.879683903891864 0.29325514148026266 -2.294145985634707 -1.3769692104249962
P 6.133610962556416 3.2907658467628176 1.342756572806054 1.3605897406257084 -1.630018726220651 -0.9216255550096837
Ni 7.294812994162263 0.6664891816233501 5.571901238662143 -0.5736401118660766 -0.07798952930160116 0.25736588378282127
Ni 5.784629070154749 8.719397938092856 0.3240447527393274 -0.49538190228412105 0.6411997040836054 -0.2951950388154529
Ni 2.1955821218270204 3.7175013898773392 3.002704196230412 -0.41212289705346444 0.4377423973937816 2.914524124987271
Ni 7.0698638000063205 7.48259715599187 6.618496161545993 -0.5421582392077114 -0.36576050773884106 -0.10036584011427231
Ni 9.11717759256758 1.3805913966286332 10.27572564533386 -1.7957612919685202 1.6617692791593703 -0.7461706470700569
Ni 8.556791593092763 5.681380431151764 9.145109203961034 1.006255472445938 1.1588746134379722 -0.07677314039599681
Ni 3.929819697042855 5.944707372042282 9.176197604244857 -0.5050263673524206 0.6851964213795296 -0.03795333931532174
Ni 9.029535655141395 6.960962046146469 1.8930583855477479 0.78235532452073 0.8133797979267025 0.7179239935195377
Ni 7.077569200784823 8.67709286239006 2.34409579254614 0.7731708298079846 0.7187979114840588 0.36674704002182645
Ni 9.099304047904614 8.851761051465944 11.516825033583432 -0.8578362284678647 0.04513777287890291 0.10793156827667219
Ni 2.887053220260092 3.7951057834322572 6.946749033281909 -1.1972113042346415 -1.1838590512974516 0.7307342579103286
Ni 2.7493355063460094 4.5865045491042125 10.751734707712364 0.312578524399223 -1.2268396686240355 -0.40068791574364543
Ni 9.033836127004456 2.9067551651077883 1.8285055975971918 -0.1294352466764029 -0.5077725626389901 -0.9595994631502958
Ni 3.522692813052319 3.3536031102543338 -0.029902738735459632 1.747195981465307 0.17560454614361368 -0.5230659984629507
Ni 1.427915244267063 3.9054627945819957 12.75003338246432 -0.6057876431328987 0.713405536823894 -0.05934594605848489
Ni 7.879201410347841 2.966075556815412 6.4082758503067305 -0.8608739868529238 0.17059063786879006 0.7430025337547204
Ni 3.974895358739858 2.7618731076127254 5.0312031911764645 2.1332777172600035 0.7247469299786421 -0.7365369806350348
Ni 4.788309555207534 5.382138486632633 7.093016383774076 0.9232939438510421 -0.5258271061478557 -1.0086563685779468
Ni 3.6516230117928545 0.5069528697905761 0.4087789741574527 -1.8155204768733184 -0.9083098117373841 -1.652215059812032
Ni 2.574396788671365 8.560457722034593 8.457610211643564 0.9809532462357237 -0.30499942650038436 1.0467362061688037
Ni 8.18296771246694 8.326804969856443 13.58826438001075 0.754638575331752 -3.026788516311342 0.1613243820755157
Ni 6.189899568243442 7.986573278338838 11.242516497297693 0.3319656706765831 1.9985945919211 -1.0671559074757362
Ni 5.251426530569224 0.5045479638333147 8.587112251870446 0.19169116729283114 1.451380535457036 0.4602449493716719
Ni 6.080158242870194 2.788002438824088 3.4055035554980093 0.5928305687515983 0.6350971907302934 1.6672824956681158
P 6.061463783838573 8.800276660550018 4.239898644085456 -0.29965744546218065 -1.3356004176702225 0.28413415301560097
P 2.916568823242152 8.30110475297415 6.317249506824319 0.24879279740182955 -0.8294203963293328 -0.7703192192918024
P 4.793990655781515 4.729884706447534 4.424682737040527 0.14222699912443248 0.7990716088341463 0.11366872787076554
P 1.779705036952422 4.895401566027399 8.463768002265706 0.19567946251661783 0.2235165393335441 1.1370233218908354
P 7.23506348812557 0.7424722693001762 11.691191909771732 -0.974709836429173 0.16492135539815467 -0.2987161645948339
P 9.058444900919335 6.8969866968256826 11.071031217114818 -0.8228455713252926 -1.811148830168184 -0.928924145553626
P 7.672853389499809 4.996700533404831 7.181285201263599 -0.24414912798223112 0.6484625562936057 0.22014556597878215
P 5.786765313227723 1.9480484539607217 6.850260810676238 0.27351318296664506 -0.5139902614139278 -0.8427081145771745
Ni 8.344370671631165 5.188869124248839 0.2358141823965258 1.9464775595108865 3.2805818522515566 0.9264546009672109
Ni 1.8406579288249825 8.299416281374986 1.854911054550738 0.8301729582246412 0.7037708419476073 1.1224677926741637
Ni 7.770243685053763 1.026870589462463 0.09644997545895 -0.9818197080010769 2.4935165238496673 1.8666905719892304
Ni 5.0562634679941025 4.929609440912107 1.0480949573211178 -1.3746688444265938 2.768767515443025 -0.6650950226439643
Ni 7.248888432379493 3.3754319696026336 9.347273360100642 -0.6362981530169299 -0.042973161127416316 -0.6160990523612357
Ni 4.689799830969053 7.855889307992541 7.60373239965914 0.4760191814867932 -1.565812366746071 -0.34174691843306304
Ni 4.231953498997017 0.4742468950576104 11.046741480375031 -1.3418335430641277 -0.70442415926089 1.4240947031578892
Ni 7.550975591471801 3.465536650134783 13.234834624302557 -2.3122799762312565 -3.096779086567867 -1.0499611408640044
Ni 8.242465347049615 6.770127441151523 4.239802559790035 -2.864787934104408 -0.5199649909401238 -1.7875674433038184
Ni 0.377775463882207 8.185393141283418 9.065892833100396 -1.6961454426463949 1.1032120297683452 0.7972772359378849
Ni 1.8425796147334228 6.853739435313409 10.275248022428462 0.03248665977379566 0.08051718081946133 -1.318314376896265
Ni 2.240340612063407 1.4766943491953795 5.266845727841361 -0.21835170730315298 -0.6433414330169566 0.2022442602183291
Ni 4.51269688450432 8.757896956268254 2.5783866190744704 3.287711264207486 -0.9616625163269116 -2.919021755747308
Ni 9.279438780389944 1.8289225847821786 4.938729053262064 -0.12067806930906314 -0.2692564645728201 0.04397589136031781
Ni 5.5752865775756035 6.7136895783065595 12.957303999119851 0.42968764541010507 -2.1649138561080457 1.8700762006320115
Ni 8.975784421139299 4.206691725016164 3.756161792354758 0.6509979211209498 -1.6412487906085154 1.0776218400040667
Ni 0.14755655919384802 5.420087119038139 5.773861099066824 0.18941034167845444 -1.0677722009034967 0.6793281355242107
Ni 1.1281508996951524 7.283851921626258 4.228142777183436 1.0526795682364323 -0.10204785580238555 1.088700980636364
Ni 1.1682637608907462 6.750630724895991 7.4689606488998415 0.7607002081447996 -0.012579893547539625 -0.2474681650531351
Ni 5.154297435041659 4.315994607487973 12.024414112009717 0.3240358743065451 0.25948087324329505 -0.09327345204386517
Ni 2.3002487038304076 5.141965062367107 1.1410196652810412 0.12715596372392293 0.9771066187961237 -0.7135770294047518
Ni 4.646142112272453 0.2002657916620956 5.823723251247422 1.561299823587698 0.6714320206055856 -0.8475124779443532
Ni 2.90773466520675 6.254714489077625 3.434653478443124 2.2621802313613877 -1.2529211962024356 -0.9297034469218117
Ni 1.8692500031423072 9.143568123805334 12.376437119004352 1.2199416559526217 0.5165364248745491 0.532355908405309
P 0.9297135082177861 5.582068449689371 2.8966719112319006 0.4723445608486833 -0.26518306583439494 -0.8990376424068387
P 7.111347961340462 6.790146557459836 1.0941361262585256 -2.084733489802713 -0.5980398808666797 -0.5056344332500646
P 3.525827213368998 1.2216045377085152 3.152644205665068 -0.36496809374453276 2.9593914178136065 0.8411849930644287
P 8.59781865438072 0.79594364613114 8.253643775321866 -1.0048277388604758 0.7883213122961777 -1.5546576356808322
P 5.573057048778918 4.684501201862286 9.799839720110652 -0.0820593284956006 -0.5541578347717488 1.149327593179485
P 3.7853574253044906 6.983835705600329 1.681718645623957 0.17452699680871875 -0.7968476045996341 -2.169631830409005
P 7.978858548987964 1.586221117404093 3.277954918325629 -0.2522643008901978 -0.22906060908022485 -0.554727848342606
P 0.9000701037942421 0.6446696508474212 0.6181112053069896 0.2234162663102539 -0.3681817155858239 0.4130742052231402
