# total energy = -340889.16286968003 ev
CRYSTAL
PRIMVEC
9.09016130751822 0.00000000000000 0.00000000000000
0.00000000000000 9.09016130751822 0.00000000000000
0.00000000000000 0.00000000000000 13.30436992113841
PRIMCOORD
 96 1
Ni 6.401773228703807 1.7410930974138732 11.67664645734538 1.176877734883612 0.020984058450834828 -0.19183386351828252
Ni 4.590067759826026 0.10381327588393512 5.9947094513075925 0.12977206119053136 0.6846395204347951 -0.9512438920967489
Ni 2.4276911459993333 1.4131019044220212 4.583514662685407 1.5106555190682693 1.262459474710174 1.6269591134587205
Ni 3.596985839423226 4.6355640161567235 5.004199137481406 -0.1325730209744362 -0.8349364410515556 0.3040406621315409
Ni 5.222433907258851 4.6329096891140535 2.867490411566998 0.8308648420853432 1.3372356392808002 0.11372477791968155
Ni 7.305462504799699 6.375739007298988 2.915147399192362 -0.37087186082347745 -0.34648726133152585 -1.081125482281951
Ni 5.16396599103127 4.872117278593035 11.508359395791768 0.3189733721819732 -0.6508894205675435 -0.05168277308627229
Ni 5.79284151659976 8.181244986303135 12.52260502927931 -0.5142453148475273 0.12603110609086035 0.7301429041832329
Ni 1.9928269288955913 6.419644485436305 0.41079256148150006 -0.8582920850583606 0.08566530067930407 0.2630014848020438
Ni 2.475496303250709 1.6062860082262127 0.22325799280408742 0.18701355931150374 -0.8154281958152988 0.02765350005121044
Ni 0.380263255410242 9.312415544052515 4.6434779104147665 0.5040604038947254 -1.1624121942775854 0.5792631144798088
Ni 8.97086183069195 2.1433781771171714 1.3272026090277773 -0.5225072977460035 1.1366661956617328 -1.1046703594814264
Ni 7.220087711701216 1.007744350265221 4.723623133829523 -2.2988076527764343 -0.4398316758226425 1.115988098487091
Ni 0.6593421095281248 7.561205097328737 2.7121622836847226 1.213962298440735 0.019857915266191607 -0.16206203157248864
Ni 7.579603583405327 4.039394890244146 3.9444263411154097 0.33988492552365984 -0.3850882615331755 -0.6230063210040303
Ni 7.613418982716055 4.108271040936992 12.508781621286882 -0.2027440826728831 -0.9315528414257248 -0.589416657974043
Ni 8.02189446213188 9.112795606185959 6.90346467418732 0.08616692290607095 -0.7383922886762186 -0.6218904622320323
Ni 6.897314271183653 1.1035546483122838 0.7446759969016353 -0.7093095123776495 -0.9758586053216356 -0.9515650228815934
Ni 1.7979520551258634 6.647453012889573 9.256315614792795 0.014719308488045618 -1.9251641427450907 -0.6392618636309442
Ni -0.15962504703662547 4.5511436899742685 1.1185134174267286 1.3555460075542138 1.159192658899023 1.6253588588511365
Ni 6.23761400930799 1.911624519744319 6.926560955522992 0.8015334401110776 -0.2671805558803979 0.9864651771928883
Ni 3.6303558208398075 4.415109429037429 0.6594711898158162 -0.12845642770290136 0.9451274947863658 -0.9482565273336508
Ni 6.014750529495861 5.571777888686429 5.171674447648338 -0.4948203733536963 0.874714492280442 -1.3011584339422688
Ni 5.35142329333929 2.4559251863915703 9.69692935879547 -0.8509101907719927 0.9164936330997571 -1.1503552631130511
P 0.2950366319377707 5.630391247491691 12.404329307077264 -0.08470653631046057 0.6153948272053595 0.25746898501958887
P 4.079364328622983 6.318525533303902 12.856651178583224 0.6374687762862634 -1.04242960837365 -1.420308753752896
P 2.259577706522826 8.535615826821797 1.3852505598123062 -0.3297563217300902 -0.34188961465851436 -0.4977989963660459
P 6.504292065646386 7.872561295498376 5.625327118740077 -0.048950461756773755 -0.3101722289505755 0.7073675581599301
P 4.438234798888637 1.2936390071796586 12.59954415287232 0.5035364130704554 -0.6217084281282131 0.6816328723979874
P 4.287601739217111 6.013396095491212 8.193283086654532 -2.225393401550342 0.8796949762141688 -0.35721930303704935
P 4.47751338502349 1.0692847409463042 3.786676594314753 0.7827577021654714 1.0855166693711111 0.5064111635150891
P 0.1999862713590888 5.571041585636921 3.4206867098716356 0.6463802198432804 -0.39979831404984045 0.6953859603180218
Ni 1.5328284163364294 1.174367003320502 2.535306836273504 0.6875286690571321 -0.5452782728939319 -0.441040351418763
Ni 1.801769922789978 6.2299510034964465 4.986517865116004 0.15695890601796839 1.2171625505455879 -1.4885075222163202
Ni 6.022958944973707 5.463095922514638 9.012246607154841 1.138748532112058 0.299384137196136 2.5249798845652704
Ni 8.699356898806782 2.343089016594778 10.277119799517617 0.04731395459461529 -0.4902728631923298 0.027679982413771682
Ni 2.439708338980189 5.281829019919146 7.201295621648778 -1.186327824552918 -0.14811662513599005 -0.5856101397437592
Ni 0.45098561782352026 -0.2514574905841252 9.15582751984108 0.5026390980671666 0.8457571858161436 -0.5151490576087192
Ni 1.3659785092535226 1.0211068870896216 11.368942685907745 0.06372016386678057 0.4681899152503614 0.4680155944560262
Ni 4.131014624021788 7.182518075854109 1.5557465305144422 0.41431990470478325 -1.0624872983554734 -0.0856781561951105
Ni 5.60104820744464 7.867779870757129 7.9230053265185445 0.3784597004730643 -0.030187065106341563 -0.0006281205023021441
Ni 5.302354603694314 2.9591565051662756 5.027947183368308 0.008115944238915056 -0.713795573173461 -1.0616275214583395
Ni 0.6547533962023034 7.220714932817463 6.969733766675242 0.3486446739941608 0.8882942878474057 0.2700126260125543
Ni 5.171828980387125 4.251286545602499 7.05174156410042 -0.18567092924068024 0.306252325070879 0.3454225675124374
Ni 7.886923750044331 7.3112620275847116 9.018553360929515 0.10441789869645887 -1.0241760614801008 0.1789366958406402
Ni 4.688250589921504 0.24632700365644378 10.633091417406877 -0.926426575942753 0.5597373857420553 -1.0504493933543328
Ni 8.463212693620198 7.131576813021495 4.865900517413301 -0.5353257896669104 0.25197016668854666 0.3641497116082954
Ni 7.351413269185649 6.050093075872235 7.046100210118636 -0.7459860418630765 1.1431343198845796 -0.16383943518788557
Ni 2.6779341910598258 5.071164536309973 2.786294365528499 -1.5728217081843687 0.2914414853102916 -0.6326358736739944
Ni 2.603031263554342 5.348696245007779 11.26578117457504 -0.6891052695156326 -0.11523118726187898 0.7128792320067787
Ni 0.9888640856500647 3.4431712233649385 3.864812892125297 0.5985075645317176 0.5868298710834732 -0.5489909458588287
Ni 3.8046596600288423 2.9224413444630413 2.5570595917978514 -1.3433188693604028 -1.8829306879971768 0.30165853505260953
Ni 1.3325176262258909 3.2527232580533623 8.03991025242595 -2.0101933525022933 0.03627158073752463 1.4220311357606412
Ni 3.6562082390225252 2.339925640530226 7.1726779764579085 0.7824784803621556 1.0575932034879656 -0.39576553874136355
Ni 3.901269892253148 6.832455971699233 6.206182050239002 1.08493431450508 0.035396377221422914 -1.7730381393393915
Ni 0.8686348878265477 7.3877557332835755 11.216208890004847 -0.7280117167728429 -0.5203367724572459 1.955386174854426
P 0.0517348338970824 5.563624014175213 8.288635240581902 0.8781080913430231 0.15984985441251826 -0.45902161848753203
P 8.748171063940816 1.510793865817826 8.259658534027384 0.5775425322442763 1.062040954846674 -1.527354576990505
P 1.7501378077133825 3.418036927909518 10.266329778285943 -0.45514748024410645 -0.3952747151478741 0.12246524311647296
P 4.033995334547756 6.449751099016179 3.732514687402626 0.202739968907825 -2.4535824066588905 0.9890861597555032
P 6.953318753751771 3.754218356057006 10.426075724465264 -1.897597545980732 0.059486071180774966 0.3508997885769247
P 6.3315062833618905 7.884851193312383 10.341047266504884 0.03548379472890663 -0.5828629160159252 0.4474601389021778
P 2.2429972526672435 8.439487373136059 5.682775118891673 -0.4231323607900906 -0.3415273462230892 1.1464227608278643
P 6.968353880219498 3.8939341322413856 1.6040816441582417 -1.0150103358204325 0.3109188773086129 -0.581922920700159
Ni 5.498629362274217 3.2078360425167025 0.0789871368899756 -0.12415574344501842 -0.7634502600861109 0.5255833655681658
Ni 1.7086503124300052 1.0815382781158904 6.958185626007406 -1.3058172728705189 -1.4101148439390296 0.5144306913854559
Ni 7.007141597654679 0.5480530851514094 9.135684631848434 -1.1025785099494043 0.7330130266421764 0.5382879576190278
Ni 2.7344386324887195 1.4298641614997045 9.322105655790482 0.2921670506224065 0.10719623277254442 -0.25515704905696057
Ni 6.183218485255464 2.2289984045654907 2.7386510131447928 0.3231141338232242 -0.6026789223005878 0.2749365456767329
Ni 4.297391842727233 6.946592034534045 10.416775580638703 -0.35853545074531157 -0.15946598871053827 -0.5267863847373314
Ni 8.437151201732064 6.963172488389628 0.6832846848626749 -0.030213547468902802 -0.514102875732392 -0.17098710197626038
Ni 7.594556898423109 3.9219681890893114 8.230641830764004 1.1974025943098412 -1.6266418393286177 0.5441274471189403
Ni 3.134969311098746 8.237567624509929 12.447235776509139 -0.16400038624578206 1.1165563122857352 -0.12987927619235695
Ni -0.22975745799418704 4.714630237448313 10.347314023570693 1.378752013357032 1.4348200599951935 -0.17072870610855112
Ni 8.967653003821873 2.4195918124547475 5.840937559006498 -0.787050158893238 -0.01388807083600189 0.6043151723524302
Ni 3.365650329461205 2.9040155879031366 11.496438558518626 1.2833815695748219 -0.19961119347085624 0.4400419920612357
Ni 1.0321150721878185 3.599122027282909 12.460646491187394 0.12447507445765014 -1.2361506616123163 -0.09950374922429316
Ni 3.0582119907278353 8.116877555518387 7.9650736830965325 0.22766784249775632 1.4098268803849656 0.41423017320445427
Ni 5.495693240237291 7.958963276801728 3.5785691730244262 1.5425868205592272 1.1379049531648402 0.20824675765866718
Ni 3.127542649475933 8.36069385667762 3.6787118418541485 -1.3432129399101576 0.12499289463433311 -0.37619790102208117
Ni 3.38010368561821 4.178238010962442 9.022970270210449 1.2299123940120882 -0.414679344926731 1.135901035360934
Ni 7.370175361706439 6.377793383708726 11.648960553667777 0.13601315700423672 0.23451031934088648 -0.6987049973889257
Ni 0.3126088223699128 -0.10858651948018869 0.19977810666978352 1.3611738952639525 -0.0923267718598797 0.8702371732353787
Ni 4.302064185535221 0.3958883333336856 1.7255634661820325 0.5688280351894139 1.5165621143606915 -1.1865057448916791
Ni 6.2863918137976045 5.756899019590454 0.43655589608538864 -1.2461949332221958 0.24903293843709368 0.6935802745678508
Ni 8.133448919212865 8.822237696624638 11.415721563970362 -1.0069697249041432 -0.37735926832003397 -0.8335423889175064
Ni -0.0016625904661107958 5.02271397762014 5.941704721904136 0.799956582542261 -1.7765307258736824 -0.1801775102262768
Ni 7.845599877660844 8.959499129310657 2.668364069448445 -0.17666718308017315 0.02199141666942664 -0.3379969644723276
P 8.63695294282072 1.8259588414904744 3.4449001720071157 -0.19207220478133372 0.47050493653678327 0.07976204782099165
P 1.8562927090979744 3.342361336710107 1.326324499465031 -0.11191086463939434 0.22198056230499189 1.0024299280522608
P 4.740973524330703 0.8204306725026608 8.25427079554043 0.25006677901824675 -0.15334496341446496 0.22892382639204445
P 8.516035619801553 1.5090303745634492 12.425868443815643 -0.24003896246859951 1.579492692446641 0.7063082636574803
P 6.5114914732415725 7.9228844273758465 1.2891266512071198 -0.4160309738586189 -0.057969377425932424 0.5524071706292293
P 1.9262414988012142 3.1598490820432255 6.040662942741872 0.9937956494160305 0.9619378814754852 -1.9532079362561845
P 7.197589562966255 3.81984022907425 6.112307047491202 -1.2742641806545862 0.14180508109566548 -0.7224689325777428
P 2.286348230977153 8.567631374233729 10.164591786182285 2.6060028013765573 -0.29791732284262235 0.41385942012859694
