# total energy = -340858.1233484676 ev
CRYSTAL
PRIMVEC
9.41279808879229 0.00000000000000 0.00000000000000
0.00000000000000 9.41279808879229 0.00000000000000
0.00000000000000 0.00000000000000 13.77658146316096
PRIMCOORD
 96 1
Ni 3.5869348588202805 5.7418537238687515 9.05197137721733 0.2546978500323549 0.09826370616960496 -1.8780630754922298
Ni 1.2788885991112788 9.33373030153565 13.609305447629374 -0.10609914305362374 -3.2365231713694453 -0.9138078587374778
Ni 1.363067249864237 1.941558977246022 12.262561871715244 -0.1515289932516487 0.8593367242727911 -0.5582194064356322
Ni 2.2495927853518656 7.320652886581815 10.034227890201636 -1.458089057825463 0.19805490472732987 -0.2379939070141127
Ni 3.2262835109952115 3.393614817540592 13.215171836738966 0.180057953929277 1.1466207357712832 -0.08931189629295586
Ni 2.7044662391857806 1.1318512846293423 10.06368241708704 0.09187014393843533 0.7125946108868244 0.2996350768646775
Ni 8.389363123548085 3.2210970594057136 12.034849349822654 0.8134569310215408 -1.2528049823395457 -0.19406738083449157
Ni 2.273538942962905 1.5361591886651036 0.8402230418144898 -0.9804235989844985 1.6154842800499016 0.05404510267086177
Ni 6.694824199048332 1.292527743127944 10.14636913938821 0.387496613864352 0.6993724557695955 0.034597535469211384
Ni 1.388566519112785 1.244371869567379 5.449588234642631 0.2398690125496385 -2.0703862199421055 -0.6136657603293948
Ni 8.84237284341699 1.0531508821977775 0.5166411742975165 -0.5882971996576191 1.2834286207626735 -0.8588507857753079
Ni 9.09733729750906 6.319300630694394 2.7016706382382654 0.54669829316991 2.156090087168829 0.7739411323151059
Ni 1.270925372169872 4.799849158129762 11.883224237691495 1.082221029338975 -2.8726074301488267 -1.9131442354660795
Ni 6.560287080048888 1.8868235580211028 13.284219415023468 -0.20196915218007153 0.35398794058394517 1.5265683336437839
Ni 6.714544010445788 7.058741787711071 12.406086330057068 -0.35202516043061954 1.1196454927340203 0.7576169412337855
Ni 7.0402550528258185 7.39981451610573 7.5386419883438185 -0.5813955874417794 -2.652553909663219 -0.17908787670652385
Ni 2.7116858551007437 5.820507062311301 1.2789911986073323 0.9544968518164079 -0.7442875711147311 0.4675368550473948
Ni 5.131772647059825 8.127282594316886 4.480144422027877 -0.7247610710460293 -1.137404359379338 2.2315704768953313
Ni 6.316514442544682 3.473614186068982 9.03322108399359 -0.4046193895875677 0.781155647785674 0.17575624123012956
Ni 4.604392411748773 1.9280233740051909 11.650772372105058 -1.3262053496085675 -1.0100560771389508 0.2632534529118499
Ni 8.905899815789988 7.5900848108972205 -0.10846649292424945 -0.7595676372022531 0.2696904667864452 0.11503038410498254
Ni 1.5541846964580046 2.2808997508449145 3.1349577228703733 -1.8705348854359851 0.21955086981757674 0.4324855198702165
Ni 0.4701617200256802 5.07650069836013 1.035274096610165 0.434756061071948 -0.13346853620551208 -1.5056994606145746
Ni 4.634908702226363 7.547491900838277 0.3212879686923623 0.3744176691932068 0.570227743750418 -1.5360294790566835
P 9.291231519454737 1.0753839106086562 3.77570663620152 -0.9342267887134621 0.35627005174990256 0.23329855842097239
P 7.297826851909342 5.810981310934583 1.2370458890372407 0.5552688084477405 -0.29466693422612483 -0.31074147119048423
P 1.1857583776475902 4.902533369363577 9.253660337023737 -0.8883158851139605 0.8570821239106594 1.946470617532351
P 9.184443328378777 6.987722228286821 11.150599828843813 2.0695007320133585 1.1010803281373231 1.1541967483463282
P 3.1407305917630035 3.0374533742675927 6.4961812206110015 0.4297352108185889 -0.4033047845412023 0.44939772224452285
P 8.838993649005685 4.167911564822079 6.071132216616149 3.0678148381250328 -1.3807649300220026 0.19761961696212416
P 2.0028645293374923 4.606039651364312 3.444117301593465 -1.0257578041449238 -0.47131431981195604 -1.1627752340439588
P 9.205782140998362 1.4807460479983625 10.525184363133885 0.3683058998685141 0.7411575101261816 -0.7305666219842127
Ni 2.393401510187345 6.695652525255004 4.021328888474032 0.5437266121360957 0.45660838106034907 -2.0492208987184
Ni 2.7323940102675235 8.884561003170402 1.9846262923142413 -1.6552062812298718 -1.7911448762424313 1.9366145506738774
Ni 7.768965620346982 2.605104745576452 7.198841870212136 -0.13225163307927545 0.5949021065686464 0.7597586701671367
Ni 3.490961972420061 2.611138348968227 2.312730067895815 2.3031505031261625 1.2953454268049176 -1.123142193033369
Ni 7.682866758842195 2.9029256680659516 4.713657109926724 0.3392550052491448 0.29720332749473327 -0.327860647369274
Ni 4.327853825092041 7.5241952262756495 7.1977537507861 1.5338975203153453 -0.21675556646062671 0.06044226444645719
Ni 1.685173190685687 6.8447230040624065 12.487630338704944 -0.21632362112953066 1.7739945897153897 1.2141795566578637
Ni 4.135493889188266 4.939996304619842 3.3806213914532184 -0.5085238389827177 -0.10276056559869401 -0.36912531044601593
Ni 7.881307362126759 3.747517189340851 0.4876704652191922 -0.36054733896901775 -0.24551849752593197 1.5308970429261248
Ni 6.895956862504579 8.424246952206307 10.040454455948376 -0.6038526308937149 -3.163358574260313 1.7655526295956239
Ni 5.84750296641054 9.210281458348236 6.7692888424685105 -0.40369687777329827 1.0413967962337614 -0.9575721483076218
Ni 3.2545501427978656 5.690384545481502 5.805203735643051 1.387386034882946 -0.5549728744738766 0.579415323786957
Ni 0.756631749644444 8.428934525512242 4.209957591328664 0.6478532048443811 0.7037237907597558 0.15634415525210493
Ni 1.481640263789655 3.617582928467114 5.2691976124252555 -0.8645858884868722 0.40322225212972496 -0.6025930474550009
Ni 8.449680331870233 3.557623406461485 9.712158659291617 1.724486198572617 -1.697620998750657 0.8972345277598291
Ni 5.314973930701201 3.8908740998817835 6.75706820708077 -1.455111720364694 -1.6540297444232677 -1.465889013485856
Ni 0.6818047135088473 0.2195883361087482 8.707432856671574 0.9130326711343502 2.1731195318472896 -0.1781730782017383
Ni 4.247317927088875 0.43905807096517757 0.7593200446970041 2.2875097112651117 1.501381035744879 -2.267562578719224
Ni 5.511381369660301 2.8061621066502735 3.4453296699505023 1.0006072730212252 0.7417123541883871 -0.10677328630251288
Ni 1.1151341557310694 2.3401344874197068 7.42483279138654 -0.15526660591721 0.621246143779814 0.7983961800336766
Ni 9.244007512876678 7.680739466538698 8.483260488032725 -0.9425394223442155 -2.253380116571255 0.8394649250495284
Ni 7.464791059340402 9.398302094464789 8.335947378575158 2.113186345826767 3.3621123048268804 -2.2106267847641288
Ni 5.882047934347848 9.402509615082767 12.201325033047734 -0.15606441922815706 -1.509091002794627 0.29628158701141233
Ni 8.86845570612933 8.78952939655049 2.2249726714181253 -0.44434858985638964 -0.16661339838859693 0.10311923448969337
P 7.003921653305924 8.789482332561477 0.26612332588762266 -0.11435212709103533 0.7669996680002661 -0.19383495310871132
P 3.192764538018438 9.095803011467158 8.54723927470027 -1.2027597448566965 -1.575663548508538 -0.6308988363782296
P 5.55500027467978 1.423205615028125 8.134341251389417 0.8586121874019406 0.7850321000219448 0.6558727327147479
P 5.434572939587155 2.811207366272725 1.305380918528052 0.7357504801779975 -0.32675995810592756 -1.0385647261016049
P 1.271490140038057 7.271913419557459 1.1384101221385294 -1.1379733445089304 2.0810958930501258 0.1804212508059667
P 7.110493350032414 8.59638819842906 3.795792605433516 -0.13965203930840467 0.7103230412438282 -0.46702520551829885
P 3.1967273258935354 -0.04885995083623563 12.520363343065162 -0.057843907591661664 1.6923211838042984 0.30980199009535037
P 2.9830097517745693 3.2010195616917407 10.895498889183596 -1.3689977621837455 -0.22554693950001156 0.48078189298275914
Ni 4.345229849836529 4.913753424344851 10.908999665072557 0.5674129000094421 -0.9022877739130202 2.400367513198808
Ni 4.743005272196952 6.987345716374697 2.4511847933409023 -0.4912665945641668 1.6277936935448738 1.7676380513697427
Ni 7.514029404648322 6.085853832380169 10.44120149857523 -0.5401134408635407 -2.0760683579285475 -1.4805306746584308
Ni 2.226098442035374 7.170895273534787 7.732684932494784 -2.554817022531361 0.5734861027867156 -1.3204820739715453
Ni 4.729479081753923 9.060345002142949 10.043100393410821 -0.41715814548452673 0.6776867432660458 -0.6517638527526969
Ni 6.040907722870455 4.808800728840491 12.643498740085732 0.33863382672537806 -0.8176133763920758 0.3961267787355242
Ni 1.8980718513957853 4.709166264094874 7.363844450581034 -0.07649443281331343 -0.24845084068137857 0.009987964450647315
Ni 5.023318390772719 5.297767336317168 1.071379706423225 1.3780773558875106 -2.15604483575319 -0.8045022929314144
Ni 7.137790463661349 1.2229483417675655 2.1971719731067236 -0.31604874233601055 0.15262196920551133 0.37608631514488133
Ni 8.28152069911818 0.7392547836201752 5.974365831361131 1.1207680363742376 -1.2562690296287462 -0.7478176957551766
Ni 6.183850470308052 1.1401910234828725 4.821155967236816 -0.2204353293050591 -1.6398940763528336 0.46164902880805003
Ni 4.9764520705111766 0.25838035841480783 2.926848293682483 -0.8269084285407566 0.9104831652396189 -0.39775762947072785
Ni 1.0293459165537844 9.127495901670134 11.03152793663483 2.7846826440113848 -0.7276700171627081 0.254240193669646
Ni 8.336754996626663 7.513342270408697 5.271154533088515 -3.3316041089356947 -0.5367794913943014 -0.46699743760415696
Ni 3.843546552527889 7.618944448961469 11.643180950676872 0.9843702423370724 -1.8140570049539144 0.5864115525991319
Ni 8.568978131226487 5.254176669691097 8.323879230511828 0.7783654866350466 0.7219233444869179 -1.2590640758753802
Ni 8.693829481286562 5.395142729590046 12.731090471322087 -1.3170979879906608 1.2797226326659958 -0.30663567655222673
Ni 7.1865111050901 5.1912521163774965 6.37698696203058 -1.7844926610332366 1.946971982648802 -1.0320968589890742
Ni 3.619747871961823 1.9378785733050172 4.539782967628421 -0.33079838984135934 -0.6362629289036204 1.25716068820508
Ni 4.025637126028501 3.3051627565850343 8.918104449421463 -1.2877809841940984 -0.8844659152402509 -0.8440504875376819
Ni 8.403435256263693 9.102231952366663 11.503459262647489 -2.599756563356529 0.14994647925587723 2.536239773749806
Ni 6.925842495529363 6.243000491702616 3.5062361194151217 -0.3623838779571243 0.8027554854436367 -0.242455285219576
Ni 0.6569633988267348 6.029038184840769 5.481054276418552 0.24233701447415684 -0.8275954273054521 0.5191918602195251
Ni 9.001260870333008 4.043587331438978 2.9186102130452265 0.30464769958792054 -1.0779625111729372 0.5041177394952221
P 5.447411995790558 6.745662719982775 10.325148290621698 -0.21867720896337176 0.785976466213085 0.21216589020741522
P 3.712746314256268 5.754193901788591 13.011911880979223 0.17645121041462514 -0.4441439300447512 -0.13405860438102718
P 0.4411213562436131 8.118905204272144 6.474166569109155 1.3352227226158295 0.9043636826054425 1.217025767857407
P 0.6978394145663968 3.0351472388058376 0.5365266509363066 -0.27579632257386694 -1.1388950849922514 -0.5902039297620287
P 6.35557755342747 2.9901917164983205 11.405892789579209 0.6156120854224881 2.004111665084587 -0.5857412660049848
P 5.544617958702982 5.507813919292933 8.01674434459618 0.3065652283256075 1.2970474970976886 0.21855019646720428
P 2.893842318185978 8.761592212670946 4.449078424158587 1.3426748080185005 1.3912604302366878 -0.7000214022075041
P 5.887968584165986 4.69208203608228 4.466312315656249 0.7104060878759378 -1.039164821579449 1.8405085142772237
