# total energy = -381170.0600229594 ev
CRYSTAL
PRIMVEC
9.23535584928773 0.00000000000000 0.00000000000000

0.00000000000000 9.23535584928773 0.00000000000000

0.00000000000000 0.00000000000000 13.51687680950486

PRIMCOORD
 96 1
Ni 6.808073330118227 6.005890334962302 0.9324236752260027 -1.0578868234689847 -2.7203811537198375 -1.1332417433612159
Ni 6.951599992882656 3.8143127238698944 13.018914678533216 0.5599150489705003 0.43959744832464936 0.28300415317621586
Ni 0.0500694808684993 8.046580704806063 1.41935318625638 1.5384085208118214 0.04166241273579276 0.5824620810330808
Ni 0.22259793110343354 2.1191354810670444 0.4447211649244469 -0.4543242130118627 0.7288090158631577 0.7569350846754125
Ni 0.35734177060752 6.871039985206566 12.163148149669086 -0.08053363587969356 0.6469139808595633 -1.186529141930447
Ni 0.05512768517942378 5.394472846920593 0.4210694190046412 -0.30054910403851465 -0.5856510202840236 0.9625654877571551
Ni 4.415331201405668 3.480445380352949 8.073211776471174 -1.0492353184415737 -1.337263407194942 0.5924112218259926
Ni 4.399270917862309 6.952495822384499 0.7063800329149629 -0.5429884484184907 0.5983286157516922 0.23025257250579703
Ni 7.75379222339427 7.796182506007276 8.270611963112446 -1.1893671255998741 1.8992610497260838 0.07605117462830774
Ni 4.648256107240662 4.814935806717685 12.952411805751517 1.0194452316633347 1.6091174572916094 0.7463297983557404
Ni 2.343877861761489 6.0526397054605665 13.21059725646736 0.4952181230127471 0.6430655536477505 0.1822775872884151
Ni 6.976932573537879 1.4322374309782546 9.585006255497682 -0.7866377539461679 -0.1222829519023378 2.498483638046955
Ni 2.77459638039011 3.6859689858583597 3.7006910663623667 -0.8126884282866327 0.2529073337908354 0.3414430140393991
Ni 2.489196183529604 6.319236718138049 8.919232234476588 -0.03892547342060393 1.0184458438645427 0.6205352337557184
Ni 4.429239647073465 5.641407787335964 2.8529121966337465 0.6808854527090016 0.559620657658533 0.6450393895446697
Ni 7.380683853554305 4.259281396326809 5.925177020381773 -1.398642838743688 -2.0618445010196815 -0.6252799475295554
Ni 4.805017034707582 4.2659954999127905 4.8910416023449175 -0.8559618942632872 -0.7579974645016558 0.3493990356616821
Ni 7.6731029207385335 4.683350458859272 10.458007805148826 -1.5738514350004638 -0.40533261360450834 0.8358910916553409
Ni 0.04076486001172294 3.306377396324641 4.148248409018939 -0.25106822369956755 -0.8414878690168283 -1.5083962907204473
Ni 0.7229491845567917 0.17358866906804382 12.656270890224578 -0.3863987528144829 -0.4812698883627711 -0.4939834792746977
Ni 2.3152205530581864 6.223466079641998 2.1632407692315176 0.1735569195859656 -0.2547814108850967 -1.5538148280645627
Ni 8.653888459566119 6.606086865841745 9.906045689962456 0.2468868386283684 1.06926626895052 1.2176199497979805
Ni 2.0138708969225907 4.262310592992836 7.671057289453396 0.23296920010601166 0.21103100527202365 0.9162884590674866
Ni 1.4564155921723396 7.138486650607446 5.328298752801427 -1.959731339196999 1.4254792422102418 1.883110922328783
P 4.170261802839497 6.881032640062181 10.714017406064313 -1.7087065671408572 0.9184399581928504 0.3295210657908325
Ni 3.864229821369523 8.74757190767643 2.8942607311250206 0.8106163762489523 -0.5437376678796895 -0.22118429165594164
P 4.133218791170485 1.942176830708045 4.242298500750108 0.8669613306975844 0.3401091257193239 0.7293198940613053
Ni 9.184154877167636 8.524501126361715 6.45890392576 1.3727808833752615 0.839955748643018 -1.5213366529311994
P 8.74778432085728 4.107322853818226 7.4984872801178595 0.7712358175688008 0.5906950104658343 -0.07400560495318867
P 6.972296424981947 5.990421114183046 12.163458457620239 1.1959686900767919 -1.374477297241078 0.2530163485648739
P 1.1479362414447525 4.8760092138897555 11.598683209950801 -0.9818215077732897 0.478922214066201 0.5643771985069118
Ni 4.493942549031355 0.3877565674984595 0.461949720962478 1.6337583957687412 -2.0261737870909493 -0.9138202000326521
Ni 1.2158068704040075 8.39024676070915 10.269528048567663 -0.4647888599886124 -0.07790699689012388 0.5060316686884834
Ni 8.383578833901614 6.0775289890427135 5.410035344792309 0.17853637507842798 2.0504840817015397 -0.12178570055094509
Ni 1.554753659549962 8.055317351287957 3.3006320815504466 -0.0386022857532303 2.442010642660891 -1.0086509692613082
Ni 6.186339949771784 0.7756987656462702 3.497653618608464 -0.8450534748808993 -1.3595119341804973 -0.3036645097390448
Ni 0.7800597006026669 2.204728757593698 7.153495950673384 0.050239098661210256 -0.05292872967823142 -1.4631685292308994
Ni 6.161044310539317 7.646652862044928 3.8471194778843127 -0.6147543654078832 -0.28890714892421215 0.7124133481139537
Ni 0.607207089383045 4.744488513521168 9.439253872012179 1.3433813471672218 -0.3733869139358472 1.1727398014558383
Ni 6.691467729187549 3.5327821410431244 8.5016962625586 0.28311805304626075 -0.975065934217011 0.05875459233138913
Ni 6.8776063231015225 5.6862362038508945 7.884610113194917 0.9017972074298469 0.21499847456020393 -0.26283359176561183
Ni 6.215052670609221 2.980073809117075 3.7742497508905433 0.9549480804212134 -0.11217954491974874 1.3316074944607452
Ni 8.855736393507264 2.668823851682755 9.147465579621516 -0.4343611396263745 0.43266832530498384 -0.17362376826815903
Ni 4.531197973881218 2.6549892888604716 13.220302691761043 -0.09088026922134025 -1.345287048830367 0.17191269911432328
Ni 9.053696242703296 3.148018752323505 11.690989666527866 0.3758423174548753 -0.26406129352512586 0.2908074512707185
Ni 3.621727851684924 7.74840801102752 6.931724583904126 -0.14046065125262905 1.5060799838824448 -0.3773698098429953
Ni 2.5883839036306244 1.5837526764137615 11.737420417254857 0.5023871299573606 0.04643695130630067 -2.1159443681878787
Ni 2.60416712650331 0.6841634612692447 4.974602177084398 -0.5458246323157051 -0.9080059073437201 1.6329240727929037
Ni 0.2782326373101893 6.349288565550407 7.721028875551591 0.24616204464720184 -0.7291000647410153 -1.3889250972352918
Ni 2.1553196046569694 1.4423686161692064 2.795830310190507 -2.8719253164801377 -0.3166871472509578 0.11408241836941643
Ni 5.370507098907358 0.6948413795169913 11.35719066464302 -0.8977091534034024 1.8930315238766042 1.1765620034154058
Ni 2.4883280600948274 1.4703148024844475 0.35414079632567513 -0.6572973809764163 -0.8265947539550795 2.2353325150409247
Ni 2.965380358215704 8.191621965903504 12.067015485230023 0.26303696602566956 0.11121718100647943 0.6610733030790809
Ni 7.873057606763411 1.6839562856405839 5.246684067505641 -0.9909543233124932 -0.14678093704370204 -0.044404494257304174
Ni 5.339282361322483 0.638662710860147 8.173128166136065 -0.35870102978889834 -0.04473462390321328 -0.7788246856596521
Ni 4.170815924180843 1.912180395429822 2.1207839920575497 1.470114107310797 -0.006996485922491176 0.02694284713743102
P 5.754430070259268 7.539384205715938 7.568167115256612 -0.6093005413821635 0.7535772239467732 -0.3022660867296213
Ni 8.490745901318025 8.302132232079371 3.963445247537611 0.3509306418148601 -0.8394435848932899 0.3015040117526162
P 0.07036232792417642 1.2373067784482512 10.596745012452882 0.9363034687368327 -1.4542172335748826 1.4837165285855802
Ni 5.486207634980503 6.139729109608856 5.700377380482056 0.9995996576923173 2.0777449743000216 0.15768755665387682
P 6.7116285106568725 1.4099986944788825 1.4096754570297638 -1.4323569431666816 0.43163834137857277 -1.9457149703132492
P 1.019703327701487 3.8947619072777147 1.797758032584049 -0.3900376351186508 -0.3468929814103768 0.544052885127263
P 7.995121302906353 6.646556194471417 2.5146931535160935 0.6398496178136142 0.10426877471310429 1.0495127404726765
Ni 7.177025789898093 8.489222067629322 5.8918170685615765 -2.888638001249128 -0.8199181132658524 0.009670947430860765
Ni 7.835940712248886 7.887917294067186 13.352092140980185 -0.7210969919308807 0.2602198082918486 -2.511118038981514
Ni 0.665334418090291 5.747337317090032 3.6391217205897903 -1.4167164084159471 -0.6328436188094262 -1.2660765026374712
Ni 2.2170210160159005 3.698584481729681 13.239645220716312 -2.048187058137247 -0.6017306994547056 -3.0412203754659557
Ni 7.91210469061696 3.1704791373594157 2.162470540567046 0.5400771883089667 1.4766511370983664 -1.0493947268375732
Ni 7.42255695624872 1.3612637225074593 12.56881668952657 -0.2733643160936066 -0.09361052366830976 0.7628226538044411
Ni 0.08839066576488425 0.26980537524387826 8.510630545652244 0.8410847200411384 1.1239317788141998 1.6413732320015215
Ni 6.65469254283352 5.325586328835536 3.6369052352244045 0.8070410001928681 -0.5334967068779716 -0.2960082787453676
Ni 5.579336961749468 3.2310538353242753 11.162858463161673 -0.07835514017113603 -0.19559770143608896 -1.2197292828314992
Ni 3.346089425787805 9.208166801959317 9.849423724232535 0.3864401475753796 -0.035316158802790786 -0.252062726402353
Ni 6.388954418235126 8.060119736246294 1.6116175915989381 -0.6710219296513604 2.86517565646113 0.40732727543703395
Ni 2.929482530652141 5.728081600478243 5.904144421335399 3.857600907892195 -1.3994555644529705 0.8422602284064786
Ni 5.583557519299391 3.6408450379613777 1.7197931598565988 0.740386436288112 1.5884000222386 -1.3529525357954246
Ni 3.157032459476074 1.0939371167305378 7.603310414260375 -0.8011153787370526 -0.17939075265892332 -0.8453437524278087
Ni 1.2874547598401078 4.488419806329269 5.49932738127245 -2.4320802709210567 -0.47976630723405117 0.9284011831706204
Ni 8.342823209245582 0.9348119382072061 2.5977134599477614 1.9081200427786102 -0.40719023563853746 -0.32065898741451226
Ni 5.247584514685329 0.4161201918908482 5.66055729735733 -1.7205765791055658 -0.33744494862359947 -0.19484951041615473
Ni 4.431345308170581 5.654328049945026 7.715771187557781 -0.18464120242458523 0.3736604793122081 0.33843019535500424
Ni 5.34697541261151 5.398767287316028 9.850586455513794 0.6658491272011694 -0.7044524413956642 0.18833047835071437
Ni 7.519869899144852 1.1864292039569548 7.475103359513039 0.23893493077114336 0.04264328859182333 -1.4368322053292155
Ni 5.7733533140662505 7.675439465727877 12.094144342566777 -1.1053750988579352 0.29380587177741013 1.1760295279507036
Ni 5.773113194818334 2.463134009774941 6.456593239766585 -0.34148877967566993 0.8793396497572792 -0.5658440128604255
Ni 3.07299995806088 3.1006506129940696 6.039746225383003 0.8160558020969687 -1.438506250597529 -0.2976342443845648
Ni 3.2488688364485645 4.035056195550955 1.4989942760414032 1.1942907881537368 0.8428438688240903 0.6523382371989281
Ni 3.2001708058998983 4.899005249555635 11.201530591574244 0.5847310795729156 -0.07315045604174499 -1.4524953657877695
P 0.40266335511624884 0.9770913965519427 4.415192671070332 1.8731250147606644 -0.213447070912684 -0.08454738502477696
Ni 7.824304164080609 8.855727158151575 10.814839784122306 0.7129159987819851 -0.986452578787398 0.5602611194560093
P 2.3373022885108434 8.499270134619072 1.0045305618398515 0.37764183255745926 -0.2774189457789545 -0.11439737850667396
Ni 1.9701045463119078 2.1322219800785103 9.395256637509268 0.3954035274162545 0.22409195222103984 0.17329312440161768
P 1.5796891199105538 8.17488750139484 7.700335214059006 2.1347033939629365 -0.17578915135059406 1.3446139340227423
P 4.351090067232232 2.042943796631903 9.708753556982746 -0.43841808330456755 -0.6836442464010613 0.5298488257127391
P 3.277424556239287 7.06400350697479 4.241217040598914 1.624144526828061 -0.11842346894693154 -1.069720582879119
Ni 5.591906280842345 8.331094307520415 9.879647349260708 1.1400027162341333 -1.9781316960810578 -1.8893389055163654
