# total energy = -340892.76009040704 ev
CRYSTAL
PRIMVEC
9.07322170501845 0.00000000000000 0.00000000000000
0.00000000000000 9.07322170501845 0.00000000000000
0.00000000000000 0.00000000000000 13.27957710060429
PRIMCOORD
 96 1
Ni 6.457257577502032 1.9378042328640972 11.35787605479749 -0.1899055361473181 -0.7953396525955398 0.9523291547411277
Ni 4.654490101910433 0.2775307953890629 5.866877564271517 -0.36501000272606166 0.04005367348777618 0.28066162108596826
Ni 2.6610307276696314 1.525789239398794 4.569383283176574 -0.1400958117140426 0.7219032898822599 1.692446396528253
Ni 3.339371995153588 4.16872796317127 4.987529959808225 0.9622878086157364 0.8804953606282773 -1.284711344129839
Ni 5.239830847856857 4.682843919452364 2.7654589718292635 -0.37319099587495724 -0.39926301037166073 0.08928001461375591
Ni 7.25336018830654 6.675858705834108 2.6835631662243933 0.3267095644839664 -0.9765677155735181 0.4442241484633833
Ni 5.268983108900768 4.46047740415072 11.837136322928478 -1.1344653313556718 0.2304310070651902 -0.4039205637483302
Ni 5.470662678923819 7.896225159282032 12.406126216205362 1.10639685525423 0.21727390085794196 0.8075079125269576
Ni 1.7023450587742914 6.477781204791585 0.4372167738187324 0.5174751346387346 -0.14682207469428263 -0.22470773142816783
Ni 2.822289095404906 1.5553770150801494 0.20643938208145027 -0.2806533935558521 0.2642368998710417 1.0178035822948537
Ni 0.571486843864896 9.291976986517323 4.712191254760963 0.310791093481497 -1.0689081142801526 0.5289425118483859
Ni 8.654038774877915 2.4600770153756533 1.1838984538171131 0.4042818037424909 -0.040425455004898116 1.524981191662322
Ni 6.961193379132872 0.7836659459389944 4.81291671718016 0.2886402684160706 -0.6727078019942156 0.11432667316973859
Ni 0.5350297321000219 7.677732909609317 2.3412559197706564 0.9915600752172922 -0.7571286887434574 0.5113919045591322
Ni 7.691932501434317 4.253136143840896 3.660302731486112 -0.49556162239509494 0.05770352535905546 0.2182825446281144
Ni 7.387598502077056 3.8862332082375066 12.707413427744836 1.3910619410726366 -0.4998808185957391 -0.17625220702994163
Ni 8.088486725270355 8.715437265535913 7.031256796431685 -0.531752213383039 -0.6547296202492402 -0.7860942227378719
Ni 6.622172453547516 1.2658232937311467 0.5971586170979004 0.3112497782854704 -1.5791255389152095 -1.8731460978065868
Ni 2.0447140031349993 6.228122438876779 9.240619830218892 0.14787545565946145 0.6172974435447112 0.7102474508108865
Ni -0.17480196563762365 5.033696326021618 1.3288477057022696 0.07765194345652433 -0.39050171923926297 0.5391130246234844
Ni 6.538381251947603 2.058559739317075 6.896655553796631 -0.15673187760882684 -1.0294519651670593 1.1629384990947005
Ni 3.2280707856217914 4.31900773275431 0.35742777027249745 -0.13756404643112435 -0.0589880484984339 0.5268367783592927
Ni 5.918798167632139 5.688383704759394 5.0186048365120195 0.3563782951929927 0.686564762481966 -0.1967683247054224
Ni 5.466688607857143 2.664015817580446 9.257325445853517 0.7667926941957827 -0.5965671529758951 -0.5629867459172885
P 0.05268729058695593 5.406986809640854 12.380297476238447 0.5905669695284023 0.29194336464737464 1.8544024986504966
P 4.035814339756312 6.120514030541644 12.653365153915868 -0.0645190056189921 0.06664607926432393 0.9325296035166971
P 2.4463764507393924 8.416302222163141 1.4472351013141451 -0.5697844855654123 -0.029512664747136267 -1.4676116526039176
P 6.295155400156711 7.857627674538553 5.842734628880374 1.066771270442808 -0.7601273663604651 0.7155819756499224
P 4.672182884056598 1.0154205236440417 12.531352098947272 0.8905620008356597 -0.22886957611534134 0.9905054087005328
P 4.054169467080257 6.009521310544704 8.3870356385269 0.28615812542416524 0.587047386410918 1.628462951697757
P 4.7820686710167015 1.1911778995175584 3.75586280884079 0.6448943793263733 -0.21419500482230208 0.0615205851123005
P 0.16534222478347424 5.838908451325995 3.539777684862115 0.10113588551107744 -0.49989675943533907 -0.23143656551156913
Ni 1.4091439023366945 1.0970522984999618 2.2774475814521344 0.011568421563889755 0.3800702394932938 0.41775001343225476
Ni 1.9495449816318597 6.59662226148413 4.551747662326574 -0.3474051451601049 0.08743961897090748 0.7877263590246563
Ni 6.097050679449346 5.532006730252138 9.204499334975875 -0.6368396273426967 0.7535180885740635 1.1982793404878394
Ni 8.62843414348485 2.35406549404448 10.399276581507477 0.5918820887954 0.26200106856198746 -0.669277179046112
Ni 2.6220793872832284 4.99038076603916 7.169816685656672 -2.3839569330512687 -1.1933042558707514 0.1938573217062145
Ni 0.5542322983226593 9.123033600075482 9.102884696838565 -0.4086321102913866 -0.04650508554007475 0.024744811044847707
Ni 1.592958299002926 1.311779161203108 11.425960602462416 0.37189567410230145 -0.49043330002959407 -1.6671547118409997
Ni 4.100197920325125 6.938700862753209 1.715043939744431 0.42359207403532856 -0.6597237310297218 -0.36794414565372113
Ni 5.441201928345052 7.779480016782185 8.055709712191884 0.6590601293037941 0.6179183649581617 -0.04279112702359727
Ni 5.39197970109226 2.987566900314925 5.036093471171883 -0.2754052577830354 -0.1912083141191417 -1.4873189012248578
Ni 1.0199843541155909 7.230150887419416 6.933466521204429 0.13687139123947398 0.4214773416851708 -0.22803653869108473
Ni 5.023325633717481 4.406673199983152 7.355597249446531 1.6001448214793539 0.07833431423552961 -0.8323630238974247
Ni 8.137527488090878 7.124910589925383 9.238574726067228 0.9694046221661757 0.582710449598461 0.4929321551920478
Ni 4.7661088741987 0.2864062207713082 10.458822320312017 -0.5599469306497001 -0.04099521146543907 -0.8290707262993979
Ni 8.254508534352674 7.286912961832958 4.844323673795007 -0.007169264054929588 -0.007338699753258329 0.7016802779671657
Ni 7.445013848446765 6.224992177420151 7.23337188109218 -0.9281535859361887 0.31072835856436165 -2.0079382379195287
Ni 2.4732513331583363 4.975763806019945 2.7304798878652154 0.5165276831238007 1.5597093391721268 -0.49298357725527353
Ni 2.375995470684111 5.1225594585034315 11.522888014314237 -0.2420495651407251 0.5992585837651293 -0.006761229983233518
Ni 0.9734387272387574 3.6470993793942665 3.94603934850235 0.2697830265002515 -0.4298208285538597 -0.39378990307223144
Ni 3.5608402615155033 2.6421856463785627 2.67633906717579 0.6255583980019227 0.6465787090073316 -0.7015522370297338
Ni 0.8905285354575068 3.4127289918980708 8.191852495179056 0.3751704881988313 -0.8019597290152188 0.2133426841243358
Ni 3.7753312204567004 2.6144488079063444 6.92972109532241 -0.8270506105455756 -1.1277030729311739 -0.26576233537663263
Ni 3.9788798741321156 6.523963902803881 6.312752006153773 0.44397115191231273 2.2105913035405025 -1.550256164179027
Ni 0.7382490278308701 7.165821746180284 11.368752125545495 1.002332483242448 0.04713577714553818 -0.3210855334289696
P 0.2806973497321457 5.5474765731030145 8.149636609656147 0.06034764785012188 0.5944897016215761 -0.6096180726225824
P 8.519782314664171 1.536323249691972 7.815243934415793 0.15964905125562182 1.3476612054894983 0.9303408233954946
P 1.779059147515739 3.4528507778726043 10.360858746551944 -0.3778786311586137 -2.270480009476335 -0.058449402386144496
P 4.019936201932831 6.1546111973648685 4.016793237965944 0.07804995022589138 0.06498257551897195 -1.356146360142374
P 6.96349797742268 3.9017847100829046 10.496337369717015 -0.22614703497785568 0.2421431532957959 -1.115118551397944
P 6.33030506068709 7.726782745651454 10.2155266047147 -0.6833058892250361 -0.13681277008739662 0.027076287391501752
P 2.603796845732192 8.419423410398158 5.6525444793863935 -1.3839037327613004 0.6603641928271982 0.9987720195846992
P 6.889224585295242 3.8255242824221276 1.492717346617886 -0.38885467055414324 0.17669495099431506 1.4109365685093764
Ni 5.067267245991264 2.918111388864212 0.6080782393096487 -0.2990396093725237 0.34961835076133985 -0.010954185018658554
Ni 1.5292189171686659 1.1536510549244623 7.026051489192067 -0.15208897952017678 -0.11259632074219318 -0.8531794464221436
Ni 6.934581620140718 0.5668858131847319 9.16435577326947 0.15475084262305608 0.1037740944648729 -0.19748154872236312
Ni 2.848755682851246 1.5728611131292056 9.113388765500419 -0.7238871530815081 0.11271716259077362 0.8659400885219216
Ni 6.6607064257397015 2.0796821992331114 2.8164259795983155 -0.9458849417776807 0.7095128866377072 0.005623002613732252
Ni 4.240651390900833 6.8523691591015385 10.580835375280614 -0.47244406254102506 -0.30310118103640704 -1.3297979520558325
Ni 8.225047783773906 7.281478102086521 0.253304386359076 0.03740260901817429 -0.2924097627608319 -0.07798001621990441
Ni 7.544610602097251 3.9868915288167637 8.130633654309005 0.5907271492553504 -1.0511785582108735 1.1341603985207436
Ni 3.057993246478274 8.178574742669982 12.434026372666622 -0.19828501846026497 0.5065659439253986 -0.09499120606592028
Ni 0.06824877297612883 4.976208393879002 10.23838114263674 -0.2973941033493008 -1.2416559077012617 -0.18113884569828156
Ni 8.611131509868063 2.5895428145775123 5.576877440419134 -0.06098759542696593 -0.9918698931482273 0.889104699563843
Ni 3.839814606463261 2.582456628497433 11.37844595551727 -0.7574824725384502 0.4432566423437914 -0.19368737178725354
Ni 0.9106973997819733 3.2278621015246824 12.627005630484566 0.3002986785906054 1.29405087636321 -0.0205737103862936
Ni 3.033677012554315 8.329870713073722 8.178293472799965 -0.2161513572177245 -0.17629103068767704 -0.24155719888533886
Ni 5.55484402905311 8.06200199138079 3.768173355925875 -0.20517120405713696 -0.23395727505089386 -0.4265570702009235
Ni 3.1543690064559984 8.592921554089932 3.462981937126147 -0.07654379799401011 -0.6248598292730013 0.5643702565283764
Ni 3.638752015509922 3.922625900128925 9.396389806200212 -0.928210407316053 1.9317556799196796 -0.32125882578204024
Ni 7.170821091289278 6.050913347545116 11.47209339775584 0.047291585997112105 -0.014720079818994003 0.12751926060061264
Ni 0.8145294165791964 -0.05651619010781825 -0.12911375820325824 -0.02943116077692351 -0.7814058161232672 1.173301073275947
Ni 4.57969953615103 0.3389964278870006 1.629842759505792 0.27390964707411536 0.20276542282912177 -0.42013445450403125
Ni 6.201419947668491 5.728968225036211 0.7054193900670405 -0.8800721570479295 0.29867271295140824 -1.3545389064459383
Ni 7.9835276976463385 -0.5925893426933833 11.383292870503158 -0.5108519728952622 2.222582414464108 0.2851880482014121
Ni 9.168671904790974 4.83351383756478 6.113612030860318 0.30016703810874756 0.47795110840218324 -0.7775697302066286
Ni 7.886779935582465 9.142994687625 2.2270912014976654 0.11724281837526905 0.046091137931107716 0.31177608310258564
P 8.73478137401572 1.7368323741268925 3.540175999290944 -0.838610290358717 0.42621742747331753 -0.04498273535827737
P 1.7056204917767352 3.2975625899589587 1.708895924779179 -0.5190813027835899 -0.8915148516672324 -1.5768637394642264
P 4.599197889398265 0.9280453995068281 8.03823378004228 1.2651709601040664 -0.167165414237325 0.5238468424930334
P 8.478653401090549 1.4312462701869804 12.531883789733817 -0.5395053749658967 0.24789573950885693 -1.1655602529882636
P 6.361807286128878 7.908401422687239 1.1856259952123078 -0.8689827320029874 0.881942891708081 0.6675113453949406
P 1.8225289522656236 3.2252127208135644 6.007919886929936 -1.390754694244863 -1.2632323483204568 0.6552579819488845
P 6.901800070451439 4.104925068785716 6.10171340803648 0.9043569977372231 0.3538349599458487 -0.8361530870674759
P 2.186601042725627 8.474906160564208 10.2846609241203 1.2004233834140359 0.026641770957244435 0.4306602937360196
