# total energy = -340889.65952233435 ev
CRYSTAL
PRIMVEC
9.08683348431248 0.00000000000000 0.00000000000000

0.00000000000000 9.08683348431248 0.00000000000000

0.00000000000000 0.00000000000000 13.29949931549950

PRIMCOORD
 96 1
Ni 6.788609848503354 2.305084349642196 11.314961594303933 0.9571759413104677 -0.38399142892457094 0.5159034192762405
Ni 5.105455653598008 0.5856618756345136 5.8786715929030136 -1.150557094711212 0.13683899533964175 0.9174768229486329
Ni 2.902280143214373 1.9355409992215806 4.517986406752747 0.13484381928648392 -0.7369326734115565 1.3979424702425536
Ni 3.5046645187942747 4.440999117431816 4.591186303813047 -0.4034909324100793 -0.20580986608240037 0.32096392024944076
Ni 3.71675121592266 2.9628166289157143 2.5491285319946955 1.0968305517220336 0.27972573953526014 -0.04954875746240499
Ni 5.158540935715576 5.033515191680037 2.7741557889080224 -0.49741075978869176 -0.8520892986817582 -1.0575682637873012
Ni 5.62653104177839 3.0346753093309355 0.3082081320424286 2.6554222323499492 -0.7054731693506947 1.0861255065997037
Ni 5.87959935861753 8.143593046545307 12.308101624750744 0.004978427051197878 -0.43875104116395397 1.0750193693842132
Ni 2.048490341351222 6.980551035454635 -0.025292292750092007 -0.06085364095226293 -0.9780031624684641 -0.19943970088999846
Ni 0.7188303312937337 -0.0246571230787435 0.2158531896716464 0.9315746958025956 1.3165480290244616 -0.10012878440280176
Ni 7.999085131188292 0.046565478981765634 6.845824187826369 1.3017487592281 -0.10785494940246586 -0.5619624184178321
Ni 8.710520597266813 2.669293728716867 1.284501172923001 0.6295662336097352 0.5257525441561784 -0.0744347220708073
Ni 7.124023051776831 0.7901083630394391 4.634117958022678 0.12623139502712452 -0.1718913589580846 -0.6942603313540108
Ni 1.1515835138722104 7.491467343626896 2.1937388336497943 -0.6487276370295344 0.29994746589877375 0.2313056963606597
Ni 7.675739242987072 4.07929770444144 3.852732046593073 0.772016147378251 -0.20654417314526363 -0.9408725761647537
Ni 7.955868150402406 4.169657178145153 12.466605081278159 -0.35676935998382425 -1.4955703426003726 0.8470697339799799
Ni 8.516653001584118 7.488804901370743 9.069979379715145 -0.7960312793459258 -0.9568591814009972 -0.4856829298288023
Ni 7.265986653714996 0.6953463184377526 0.3435168415125128 -0.48032912171605663 0.9494346068021521 -0.5253442529741662
Ni 2.2101996327863866 6.727664455288269 9.227685012249077 0.040889282015194095 -0.664402881672946 -0.9713139233737467
Ni 0.43542834640172406 5.24619253299494 0.9223517790342347 -0.4266259757656459 0.0009479657355661094 1.192577919227688
Ni 6.527463336559366 2.3483285909289995 6.907294800025774 0.33976665477824064 -0.48842295446778466 0.4800252173223926
Ni 4.103659505426924 4.453784292361535 0.6066470092398388 -3.02784395415905 1.6834153966742362 0.08017445276806193
Ni 5.737008765158291 5.91342964025459 4.8075828861362915 1.507999826612977 0.0211825476148861 1.0678354500412641
Ni 5.8135380780638295 3.060772695541421 9.234773651170665 -0.4076448066774528 0.5515306815615468 -0.053464804687359535
P 0.3245526197084451 5.849385636768692 12.136166010738533 1.3706910907257686 1.0601421951620644 1.4312649956540833
P 4.28525078886367 6.244890070895211 12.486527964031115 -0.4676206730104527 1.56130368024244 0.5844181763181872
P 2.7143735103986972 8.750339102271807 1.203768290776178 -0.32809153243315753 1.3407955887179166 -0.6378608695183595
P 6.588254253602593 7.977849200974537 5.630223022285813 -0.7923052366445903 -0.5806324840235098 -0.8615977523928258
P 5.172180273007336 1.3338835703327787 12.561629735372005 -0.20006730717166835 -2.1798769051757816 -0.7351061617257793
P 4.231593036226861 6.4690804304304095 8.335327962372986 -0.7804933316113267 0.2620925998345292 -0.7636911724523235
P 4.897657941947111 1.3295128033525405 3.838368488660304 0.4972852899544209 -0.5217819895442046 -1.8301683086934804
P 0.21765510878221017 5.938809166607613 3.4149393060785465 0.9345741447505517 -1.9728689050202215 -1.1776128132774235
Ni 0.8831866173678657 0.29730847509275 4.616309581457458 -0.3160358868202041 -0.456981962349684 -0.8456846807069952
Ni 1.8477440126039946 6.910954976615462 4.609673466851081 -0.014759931917993935 0.42188948952192495 0.35765819034668084
Ni 6.126634017920542 5.544885841534236 9.206485429369877 0.297556597069094 1.500221725329455 0.5919566507870773
Ni 9.144262427345186 2.2230665892188544 10.002034988392198 -0.010788605975071742 1.0989547971538882 0.852614575057609
Ni 2.545912701569942 5.639116306368057 6.675125291872391 -0.22268710145371323 -0.7687948122274759 1.3128752081585648
Ni 0.8710493336765895 9.250033170900215 8.813844256522929 -0.19222158587500443 0.5419620640365053 -0.14842541462566047
Ni 1.77866590328223 1.077080564868113 11.430600639190644 -0.4434620734863782 1.5790656322115515 0.2690140095447109
Ni 4.145268116658753 7.133855005773957 1.3616293081653326 0.9831723653742295 -0.2548649717378385 -0.014169606632162693
Ni 5.9759288820219005 7.961483813591152 7.713124293943611 -0.5362295324281023 -0.05787733193275839 1.5444385290559852
Ni 5.53563544488999 3.1835630785018267 4.780571364461748 -1.2180063866031217 -0.5303892715972414 -0.9260203416432697
Ni 0.9523092521744602 7.58450743325404 6.811298763415945 -0.38410918544935785 0.4397756257737264 0.32529854306905265
Ni 5.096705032803892 5.046736534624416 7.144837352909748 0.7842150034372881 -1.4254627871500094 -1.9047506120857456
Ni 0.9926093593623088 7.720882632504375 10.996558034918827 -0.4701894621788934 -0.19483331246623864 1.1619990179995665
Ni 5.322939929907809 0.4816621559556754 10.350122507225004 -0.6055696135848215 0.4649624094519992 -0.4173838883420876
Ni 8.493154449794314 7.412902579986278 4.57969600267685 -0.6852990083956649 2.0030503136996085 0.29585272700410986
Ni 7.761091871355835 6.4025012003593 6.5612545448117805 -0.8508178881685025 -0.9746658705651149 1.7955553466053011
Ni 2.4977343096172993 5.513454483977806 2.3218531924391423 -0.2326562968512832 -0.5306091009175312 0.515288411400061
Ni 2.6520832658050777 5.584413567862791 11.295650255454865 -0.8526917081524477 -1.206955785215915 -0.07828289217230389
Ni 1.130801925340393 3.5371136017182456 3.549064605319927 0.11502215657486642 0.8097928519063924 0.007871432328276765
Ni 1.8942049929989146 1.3569186936070055 2.4878441998848855 -1.6130887832345315 0.16578910271508865 -1.4144659218188738
Ni 1.242924365608908 3.558349531932 8.209395352340302 0.4943246646642003 0.4533376807288773 -1.5577668707337753
Ni 3.823330687671539 2.821679928838676 6.745332894615451 0.3245146137151766 0.11391118289887478 0.5965905500146629
Ni 4.217244925911277 7.33455590035299 5.970437708454004 0.403690192905079 -0.1442658839313322 0.1918775722720244
Ni 8.221267300489327 7.436646476284327 0.14484231083492008 -0.06992526423622797 -0.7683114448331542 0.16548031322541823
P 0.5840053458621698 5.723469383036556 7.983809255158192 -0.2740112056489862 1.1066758199472295 -1.1996314836403597
P 8.632310220138105 2.0145055835423036 7.84286156122084 0.8222120515063517 -0.6782847818613609 -0.4738833660907129
P 2.142893456024178 3.5732155917649924 10.193201977117457 -0.8375021448962029 -0.8711000354563062 2.3444632458320203
P 3.753107637311292 6.428553152401592 3.958382843944072 1.6337594242100058 0.6297690936491606 -1.7318475240336948
P 7.396746189776584 4.181006633359949 10.201194755986101 -0.07814919480791703 -0.6378531562088757 1.407436525775918
P 6.748309741315505 7.732404737558307 10.283771356678226 -1.0252896062592534 0.4406292320232734 -1.3324230483835053
P 2.700552436434161 8.785150761941852 5.910696320696054 -1.110832008207448 0.8263384149698995 -1.6726725563354354
P 7.06668513151633 4.404788085381404 1.706405584820176 0.12092592365381108 -2.478125386105577 -0.9745511993641217
Ni 3.227516092812452 2.0405030145827623 13.590492834902829 -0.7334187467210272 -0.5076447788118741 -0.5107172470896107
Ni 1.5563292578093368 1.3481680728128909 6.593639111216915 -0.17216055345907125 1.2659975697704198 1.8092027621854068
Ni 7.323206445138194 0.77012368981774 8.956401228697702 -0.9620944616580076 -0.13885551154903827 1.0059104304016935
Ni 2.7136011295394034 1.8549680453467994 8.940588320799554 1.2950577203611697 -1.0170996142492934 0.47810408904027984
Ni 6.720831156391931 2.034369401876607 2.4896797402799127 -0.7300925105612717 0.5640725227822996 0.3673355655354448
Ni 4.508577899203186 7.188566831112861 10.354232482079809 -0.2014616164160337 0.26560189853936844 0.3087702063967263
Ni 7.311202737901407 6.149133018010081 11.619945717771333 -0.13930211216815364 0.7758668885829089 -1.8993723784929677
Ni 8.03917624120245 4.153682524608233 7.952183439361892 -0.8265865264249636 0.5625612283440957 -0.12256808724292438
Ni 3.492061080537331 8.699770873072174 12.311665480903862 0.3884515215784536 0.1571838775445809 0.07457330453120059
Ni 0.28241697212556927 5.166228396973956 10.109960220202977 0.3283093048709184 -0.7491058184389808 -0.2832355524607316
Ni -0.43174817877803107 2.4537449479721185 5.5731422594172875 0.5765945665087102 1.0804140580372232 0.6962192548525946
Ni 4.190811326856159 2.7550916119339286 11.21259568731334 -1.4691522576181602 -0.4999823771706099 -0.6925127525352848
Ni 1.162533148406902 3.5132879239174475 12.575913329168753 1.3454400294684634 0.01855950816974223 -1.0500835253744818
Ni 3.1855621819023514 8.5063303585705 7.965974526775422 1.4982908268553292 0.4600279482648594 0.09159555012081
Ni 5.430464432355118 8.110562406268455 3.38179689774794 1.335448208363074 -0.044148669492756226 0.9429037476621696
Ni 3.1623816692899043 8.619379655870167 3.375506082819834 -0.1277905119841283 0.13577507285150167 0.8120988743317499
Ni 3.6838205308158365 4.384024670516864 9.112418527541555 0.925857076592528 0.5586462095604057 -0.7541629212469141
Ni 5.422822405264931 4.577928613534113 11.783263378760555 0.5064818688520244 -0.06817768541750194 -1.7328271143381448
Ni 8.485312512364075 -0.031196008565186773 2.3989640626975604 -0.5457253877336795 0.3838034812834809 0.528573044324109
Ni 4.8596204563353105 0.6089577910341726 1.4388065123093134 0.10920272167961192 -0.47027302303163526 0.21634804660956286
Ni 6.090950022221176 5.777672345691689 0.3932754338349346 1.004393736646851 1.6209586729009116 0.7282755119571909
Ni 8.07874031486556 9.123453578312452 11.256669556511362 0.705593754088959 0.3412422108825026 0.22041450336945267
Ni 0.3477513059881695 5.181912271834436 5.46214476915325 0.19557147618384385 -1.3758183846500047 0.48118452773781645
Ni 7.237999206107651 6.254385812047703 2.7271686808454185 0.49684203176941527 1.2090039259941951 -0.3122936461689525
P 8.750666228282803 1.9052364090363552 3.480891544628582 0.031331463123429916 -0.8852678423162561 -0.7877821519632562
P 1.943228460479962 3.567899794086325 1.3636911107179646 0.3556709847133229 -0.3946640781470687 -0.03825287283361154
P 4.996559039271248 1.4425257533176532 8.225687136371214 -1.0460312096819793 -1.5291170682075665 -0.6870658704881006
P 8.972630313576508 1.7606012780083986 12.445299182445385 -1.1423120810936005 -0.14443917628440286 -0.01077600756958144
P 6.627872848267535 7.996259125926641 1.5268624736856038 -0.6463989888963577 0.2859724917759204 -0.6008660374615652
P 1.9561499379142617 3.585246559502695 5.8553838556536295 -0.4290140163818483 -0.7735667796948226 -0.08672408096112161
P 6.987466115853723 4.170129693494368 5.85913399189634 0.8899462216285319 2.3106282995604466 1.5470124604307487
P 2.6516107504558626 8.848876726250394 10.042425055233073 0.7712553579528265 -0.3568058696487146 0.7083630893039801
