# total energy = -340857.9313358272 ev
CRYSTAL
PRIMVEC
9.36990661271528 0.00000000000000 0.00000000000000

0.00000000000000 9.36990661271528 0.00000000000000

0.00000000000000 0.00000000000000 13.71380545238587

PRIMCOORD
 96 1
Ni 3.053315180046208 8.470348538610807 1.5623588073991017 1.2591867174961733 0.6170801853275825 1.141205992513615
Ni 7.376505665146435 7.048137295259858 3.3920410444704543 1.1108451208335706 -1.114482203365526 0.26586132284834213
Ni 1.595713800211835 7.0850078769549265 0.5706104340997779 -3.622884900298406 0.5391356503313038 1.0050506535045594
Ni 2.833787642934706 1.4218551869076423 3.308263774332264 1.5726694988772205 -1.9734869982201946 0.35494130563615
Ni 1.2593903797892703 6.1756490906555355 12.155793210235103 0.7537980817083275 -0.6682999027345071 -1.4746659883475377
Ni 8.484534576904666 1.3337312171891875 1.6378943078653776 0.8411744515414674 -0.47205711151525154 -1.5522690808439976
Ni 7.808870626197831 3.6006395227537156 5.787088442037289 -0.053538081127456186 0.3301957232603539 0.2812943695739607
Ni 7.863394111555799 3.5691941168658756 9.170846489247658 0.37098113270783206 1.9690860409390216 1.0841290449949652
Ni 9.155335546188441 5.649397667447954 10.222558515562422 0.6478069249874779 -0.2958663538508646 -0.18779748866537976
Ni 2.8599296817985542 4.604390746155043 11.5248077842288 0.23667390265110855 3.0387801414555793 -0.7782991521734853
Ni 7.142398553672155 1.141591916493107 5.443132295858994 -1.5598980581441653 -0.678073180071187 0.515990322563092
Ni 0.7520174440020765 0.9374778754142318 11.595049287577487 0.9407653611629283 0.6075714745061987 -0.45306488668346484
Ni 3.3830609261739983 6.337045728443988 13.55418989947266 3.5638405446407395 -0.4079050023173749 -0.3497829013636621
Ni 5.448488134358842 8.617802755671873 6.384695450464852 -0.4328400749961578 -0.8054518013288774 -0.4741692727622479
Ni 7.842621029060763 0.3087515338416475 12.645308041409175 1.2814732968085156 0.9469455218317111 0.6005451637870367
Ni 0.449708657803003 2.4461171354247266 13.39442456238894 -1.1145336254287515 1.4810011865369461 -0.5278973584133231
Ni 0.2512962047702394 6.500025880414515 4.5671903437545955 -0.33705954025972273 2.967376750011928 0.1471671167385272
Ni 4.276125445238897 8.653108562997671 3.836300164709581 -0.18426505003208912 -0.3366486779745493 -0.26670130225113425
Ni 4.1930705948843645 4.030558938233978 0.7592931763238606 -1.0266466345077803 -0.5559162122237523 0.912128671262842
Ni 1.7224136745906702 0.6875374961004794 0.29350669612427105 -0.4226749615376979 -0.8191321270294473 0.42783413714113416
Ni 8.11569758126434 0.687858883890096 10.466129232503542 -1.6855357854513486 -1.1696629623027277 -1.9299443377425534
Ni 3.8048660027094248 1.9427938731848287 7.78855011018205 0.8351318448918132 0.7664859615886412 -0.8967280204370556
Ni 8.763158113698708 6.495453366089942 13.238484958089487 -2.0469485577444555 2.004168486464452 1.0991031498062942
Ni 6.181777009442976 3.1192043618707888 1.84889523015032 -0.07589562288704994 -0.7937504537315492 -0.3033737179715033
P 0.9554399859884241 8.6185617180905 2.22734106480673 2.4110920987051636 0.8751898892549638 2.0046194579589414
P 8.961069276738922 8.972144506107046 6.388657983882601 0.433496220522918 0.9091533906846019 -0.360491803140734
P 5.483437885241334 1.833831231626518 3.5373804736564054 0.2814869452007411 -1.4964738282512486 0.03214650282555754
P 0.23973186628788773 3.072664036768017 7.390164177709815 -0.017220220533028407 0.6229502709551142 0.7989955041805723
P 2.185155872199986 4.831845224083326 0.652489361200758 -1.6095992820240344 -0.729955213652459 0.47388310898039676
P 0.8366070850253903 2.1096812761253285 3.658678596994019 -0.5879300461261875 0.628860208681646 -0.6061301140739819
P 6.387240317043855 8.618046373238347 4.338746403710176 0.05270221548972214 0.5585749900028381 2.1600608988911185
P 7.692393319704465 5.840440689094906 5.55904178602435 -0.12311238978216861 -0.7575686044943534 -0.01726624327961543
Ni 3.9249319833550684 8.310404236314792 9.627502932648346 1.6862955464355087 -2.240817449414896 0.21487377605688157
Ni 3.0271356615567493 5.1584801612853814 5.3427337487528535 0.11903462016836922 2.0230277852628 1.1946371157495619
Ni 6.459041909808612 4.755302458678746 3.4800834960032043 2.871120304080339 -0.2960640716839676 -1.1762257031219099
Ni 3.7339732908657424 0.12742979008761454 12.892416835007998 3.1711230486970803 1.379014008769167 1.7971594578676273
Ni 2.0028830829460675 2.7742418877448305 1.7133342352863445 -0.8063555440900694 1.3174620561982988 -1.6709990252877545
Ni 7.519780903951846 7.767230762143731 10.09873613943989 -1.6320496406077507 -1.8427525731163943 1.7416164304950004
Ni 0.42224733611763904 1.8606010542193543 9.226442828888747 0.26221961233069674 0.9070998505896829 2.1527959897985895
Ni 0.591250463923894 4.886490518224529 6.064422679710306 -0.15931197963117724 -0.5041437076371511 1.207659753261475
Ni -0.10575719657790843 8.587931494059706 9.16179515966254 3.496253955840017 0.5130502660981616 -1.2485199818109465
Ni 6.157696349987747 5.343198496110433 9.039962014669326 -1.487331242520032 -0.872127448279556 1.5459616505687312
Ni 5.62915866961788 6.121875197809794 1.6529526844453382 -0.16487070466587733 0.04690772029513212 -0.5884527513988769
Ni 2.6691864971564927 3.6922116180284057 3.9080502229891207 -1.2903348609642036 -0.9409836478213214 -3.0775598333269385
Ni 3.7923571776616694 5.042171513107266 9.380324801742143 0.17504533120603402 1.5565741359772547 -0.15788476026634743
Ni 6.8046321676635575 8.044861088859076 -0.09613336571157932 -1.3490154055245476 -2.236802157607915 0.48569449979302803
Ni 1.9485563656225586 6.217972957877041 2.9353714832008015 0.4969536176466151 -0.0837364590877074 -0.24725399215979996
Ni 8.791399011596786 8.022251504709088 1.206188051234099 -2.192898771356746 0.1507838875555081 -0.39600542266631156
Ni 5.479839841182653 6.130045756193046 4.848227568438003 -1.047230629306719 2.127043049204201 0.8843214192425868
Ni 2.859423706852802 2.7293319263561484 12.43016562049419 0.1981135258794072 -3.362914746123518 1.6720835166011847
Ni 7.314383185695785 8.46686293342896 7.984054144267381 0.8781759684664813 0.560442639339196 -2.0961898112687707
Ni 5.732415038176876 4.387130726393021 6.569172978695352 -0.614359958182942 0.4614860208676246 1.5703796744017793
Ni 2.6043373749426246 3.007571296987676 9.494081087416133 -0.002539992813034335 -0.8850354145904757 1.2950579774714859
Ni 1.7424559043862868 -0.009382087281136512 5.34761640697936 0.2358326376967358 -0.4638316382816657 -0.19132967018835437
Ni 6.014655358842406 4.376683280753885 13.17187710444381 0.24195057766901554 0.2178014912266378 -0.502019976425929
Ni 4.994572388580975 3.5514475141389483 4.544261245796272 -1.7352472937438632 -0.10894484003253496 0.7023824462405129
P 5.62459552519971 7.270569503356232 8.330697579602003 -0.7176815384914286 0.6049456068475775 0.20524782293134328
P 3.8979935024469814 1.6724533336508722 0.9071240636223196 -0.7485964829027301 0.6659280600682208 -0.4212734532044809
P 0.7860236453098051 3.69369206324005 11.300518460683387 -0.2286646591933868 -0.028032480657183983 -0.13074702350929096
P 5.195931677177423 8.4586642653265 1.3000098610361044 -1.436956389611906 -1.6678291122002051 -0.34316411049556383
P 4.642085879613559 3.4303976933210087 10.674400701053345 -0.7246556558164166 0.05164394942853686 0.4442141211610543
P 4.149397461140853 7.069847368395175 11.801607000246214 0.44091899534955037 1.1679210399109563 -2.1898952086437316
P 3.9057236752293023 5.16780321815618 2.939883093133756 1.2081426064351644 0.14555503505640094 -0.0820978950430199
P 3.5138179700252516 4.237249703573626 7.437887921991262 -0.8158182321648659 -0.8322545233440182 -1.0846694908794674
Ni 1.71461791246353 0.9826970437142066 7.639000782049315 -0.8348701065899944 0.049470595926301895 -0.4938970902084784
Ni 8.8090987647917 3.9464171787367186 1.4900868453329257 1.0436938197980543 -2.3993804666951903 -0.48204636151747954
Ni 7.27085997045472 5.805294170177955 11.46247822984665 -1.6997195331508987 0.6748788415036054 -0.3598066041482513
Ni 6.097953826763412 0.9196994150055346 0.4657415046488561 -0.38349752000728793 0.11331957206146291 1.1631313318317968
Ni 7.978578370965577 2.5109662576385947 3.477779436018753 -0.39172016502739637 0.6888653855906847 1.2616305510509755
Ni 5.535234727836083 0.5826779365559606 8.637434583567046 0.24837987823412705 -0.4380717557087423 0.18941162723003507
Ni 7.774801646517203 1.646770420200762 8.172220604648668 -0.0647185232243079 -2.2257106756804443 -1.782382299558453
Ni 0.039012542298751604 1.8361737082272211 5.678872582019284 -0.40807675200854876 -1.4271522590372905 -0.1933857813864347
Ni 8.419966551882883 4.487829110504051 12.844445725197515 1.2749352385796817 -2.746263677913554 -0.8263247881231447
Ni 2.122920953872503 2.813361246976574 5.897951300614091 1.1190600525441954 -0.15519024415331983 1.558416331392316
Ni 7.915378352278605 6.011544549916672 8.015458322567047 2.209946470867652 0.6025771066154009 -1.8235677726578272
Ni 0.12872096318992216 4.499935029576485 3.659871386079097 0.07279307270232624 -1.4980208610233943 -0.009690744925202666
Ni 3.985442838904434 6.419360356192699 7.011882316415454 2.0516176810853506 -0.7508693380973069 2.381940159731556
Ni 2.2134436196300777 8.447617145677583 11.917748864090361 -0.1649046432276063 -1.9973496637704053 -1.578842203346836
Ni 1.3565656790928422 4.709530465901006 8.50376630979644 -0.28229709980686224 0.6105832647493291 -0.477202660271933
Ni 5.526417645911036 1.875733453059897 12.330672206346561 -0.891417921078052 1.329021221790808 -1.6173660704536468
Ni 4.2389269168197306 1.068797113649654 5.451073291535378 -0.012631315610765343 1.2614780846335114 0.03237070302122167
Ni 5.716373758415261 8.66346230957278 11.520336464893377 -0.22924238607372777 0.023683716770185017 -0.3013769992564487
Ni 8.81959305996285 0.10265482056793708 3.975399236231259 0.8309514882618786 -1.0357529676844228 -0.5698492773650767
Ni 7.732271641354835 2.5362462651133835 11.569706501729797 1.0178472910485954 2.182012720571861 0.9440784846965612
Ni 1.9280550104132042 7.017188494411367 9.778889699426673 -0.5710394410184358 -0.4607473429293872 -0.3454122830997922
Ni 3.8971783205899366 1.0161850891978599 10.580214401892272 1.9244069528640924 2.370482295603601 1.0843750995675003
Ni 6.851706577431289 9.106799431021871 2.343798694496651 0.7689411079973532 0.7517044324040925 0.49298666257906715
Ni 2.987594656536879 8.537221560607684 7.427753431225979 0.1956108140622115 -0.12911488722250666 0.03116357008699794
P 6.075775258307954 2.249883185630617 7.088021238854071 -1.384360103572429 0.12632035519650503 -1.1864867187282857
P 2.2375898684301267 0.2363006065631777 9.822444772349508 -3.4367403738554163 -0.17431822323202237 -1.597783777446345
P 0.7092344513668329 6.9318192771753395 7.822134665701652 0.16995917493237828 -0.9790850826787332 0.7983576134862573
P 0.2168374369832548 8.355782693023615 12.451641445969436 -1.089619378685575 -0.2623905906909223 1.191399839759187
P 7.949756538870526 5.706441657628279 1.7083428861455663 -1.4755710166603104 2.74811024420399 -0.14339325151839175
P 3.222226482769716 7.5619923322965175 5.466926236178296 -0.603363092851806 0.7101055259163835 -1.324580669520951
P 7.401129779173027 2.7936094842794446 0.0785263745900537 0.6512257208610398 -1.0488730500061485 -0.3195441570837787
P 6.263819909906005 1.9351667693729389 10.134117843007552 0.32461771495194414 0.16743563717957616 -0.33249583214844025
