# total energy = -340861.58027900034 ev
CRYSTAL
PRIMVEC
9.34901452274548 0.00000000000000 0.00000000000000

0.00000000000000 9.34901452274548 0.00000000000000

0.00000000000000 0.00000000000000 13.68322776691140

PRIMCOORD
 96 1
Ni 8.792420909165715 2.3136099640200842 4.14741354616329 -0.9671849888070376 -0.8112545240535836 -0.04689460766900956
Ni 4.33199674858146 4.582279215402953 8.293117157576974 -1.1553069506913718 -0.2762066706384082 -0.2433315171769422
Ni 3.620873310670659 2.3145916105411803 2.599594447363109 -0.9200337850425316 -0.4800141615787992 -1.7786467437754208
Ni 9.20784436787899 0.6524976378680595 9.694238065363145 1.4574485960279866 1.2121602122349897 4.967503205196522
Ni 5.121698653252361 7.570233594343447 11.553652337791018 0.4116318163496588 1.60164068929859 -0.438632770418535
Ni 0.3515061164711014 5.828914203107751 8.523282415026145 0.3695842523603054 2.348433800443994 1.3550986356041501
Ni 8.165363809518665 3.6142822554575873 9.931546904781547 0.14678530791907624 0.3946450519836752 0.481121535710365
Ni 0.5363090207297071 3.8025153131313365 5.389508652433381 0.4984957653227544 0.6187346902118699 1.3284023572598864
Ni 1.0400872106517467 7.589109254591947 13.317734709498753 0.08389509615275874 -0.9789197607454623 0.6573148644779131
Ni 0.6407029211917308 5.519517917687316 1.2304555832342414 -3.4053734295083613 0.7605978782389804 0.26211496843203247
Ni 0.7345838548635424 3.717691704694169 13.024489781505414 -0.3835000911104492 0.09708588381141989 -0.00016429349200616864
Ni 2.1450752798696584 0.047142405548816935 6.293942597785619 3.067638203337852 0.953665614164364 -0.9537198644410673
Ni 6.895814387307144 3.617591806585853 5.214239873148239 0.7603839624559614 -0.46669559009302203 -1.3920011650574544
Ni 3.715232913884186 7.840448160050429 2.1850469913072326 -2.109506325872019 0.6940893529937853 2.35343562453396
Ni 2.5159693825831275 2.308851315646391 11.904285256309066 0.2572769236134408 -0.3386214854302039 0.6923340608655755
Ni 9.429322521067185 3.8320955949670243 7.938447334603599 -1.8640143107086478 -2.237926758130662 -1.7568579300351035
Ni 0.8671799924259254 7.917801905912781 2.4623649382211537 0.16467915748036155 -0.4738378575647581 -0.03385063000085783
Ni 7.825340152640039 4.201643439594418 2.858590195686138 0.17180368434028476 -0.27072970668423696 0.30659325335006554
Ni 6.804352978584472 4.305015492773054 12.095001412230465 0.3775983809140336 -1.318966151547651 0.8717649227338148
Ni 9.01251540820989 8.656439493457725 11.799403337290842 -1.1808022667489986 0.08769415818387478 -0.9766409920136147
Ni 2.6894029503245456 7.276347323956325 4.867439115668256 -1.1786636231394412 -0.0770086534455706 0.11020390925061667
Ni 4.521604111384743 1.0022891450823135 5.78774488291444 -1.401999928141379 -0.5470749597830384 -2.9561423147486896
Ni 1.7026331692900332 2.248989575888518 7.06818029759419 0.3920621217478474 0.5178523154724952 0.43303625016736386
Ni 5.019803744362613 0.5574508820897656 2.1455436654954387 0.5188833278401709 0.2057558729160134 0.7778960031977958
P 1.9190722036699361 2.091140815296307 0.45072814211912304 -0.4271345399709483 0.06863302778736567 0.4094201534103207
P 6.00933148467068 4.485021417698571 9.413335706295051 2.378814469618381 -0.29812275398520915 1.501774928749188
P 6.969232198070626 3.12904970557267 0.9764914745079148 -0.6152097077777469 -0.8751531224797573 -0.2969773275268563
P 9.072648269387875 1.3677140743211054 6.160011420954546 -0.1624332988689783 2.7944458940457357 -2.6458111916227467
P 5.76391985439672 7.759429600509319 6.41663999880956 -0.2804410204347299 0.5122763640466145 1.2894336893061729
P 0.8673978244634638 3.8906952177692027 3.0883048306370515 -0.797903299557658 -0.14689226581058573 0.1417253768976656
P 1.9818882320055833 7.713030441612188 7.493811010323962 -1.115936419313549 -0.7481539960486727 0.4193569529080584
P 3.826532931347481 1.5815821297171857 7.525707043047988 -1.5742407000190823 1.1481004056406032 3.2339829214460947
Ni 9.270211643519277 0.25657715827533895 0.3623509732755888 0.7805013020311268 0.9973638263832629 0.6571120044384877
Ni 7.030066235335108 3.703107242095031 7.502992677451279 -0.30706222256668403 0.7925728884836801 1.394687967860998
Ni 7.830921514288556 7.758195530597084 0.14159643380865877 0.399649447176802 -0.09293997996384638 -0.1498320651652
Ni 2.6210149093548685 4.951397005363963 12.527227854680554 0.7203074061500497 -0.996042022248046 0.8887596575195984
Ni 5.207298229891918 -0.017582691544999505 8.294909363654062 0.07861893535548395 0.3802509880455322 -0.3373734719557157
Ni 6.473566148018633 1.4723762914988952 6.655904652058564 1.8181049497710429 0.5184817215263781 0.8093781329664771
Ni 4.76561338948571 3.7753190299897383 0.2239743400561244 0.8778710356315527 0.18304326180984604 0.6097242591831434
Ni 6.790161174593772 0.8522365276705006 0.19712023084473684 -0.7562899948922459 -0.3558152236006711 -0.5695155481747417
Ni 1.633469160117966 3.6302971172731793 9.662342967540567 1.207787279978275 -0.12586038484095097 0.051600754895427266
Ni 0.669703564129248 5.9306969238236595 4.313568906126869 0.03544599951243573 -0.5812739742622506 -2.964998993808371
Ni 7.604077026785037 6.992707573446547 7.707967015366231 -0.3586130980607824 -0.698165837056004 0.2238584960539951
Ni 5.468023545894973 7.070510072004257 8.939663212822849 -0.953039807654907 -0.7149859939371364 -0.40397995623135585
Ni 6.381310073064597 7.939444874449323 2.5843920149064044 -2.4643057066136658 0.8906105946854082 0.5477861269174501
Ni 0.31939599131533214 6.757308737687764 6.281696323709586 0.7211970078438548 1.4674794979014274 1.9672034792043283
Ni 0.3753863041742929 0.2652895048754267 7.688605206364426 2.1094495044921544 -2.036854663843563 0.1136900680270042
Ni 2.0779400068411897 4.720457649515301 7.330597785219325 0.5947902635811304 -0.1550930564538232 0.8954357839881933
Ni 7.989948250706082 8.868269463695722 6.346677583800337 -1.8652754368092583 0.1241734840568313 0.43450794961688394
Ni 7.803351270567493 5.069082399721624 0.6620859871255442 -0.40847861543265773 0.11830519820151238 -1.2083135847953899
Ni 4.896527639341948 4.4978763126176835 5.719548496741739 -1.5368157224034047 0.6080720682917011 -0.2444440335148306
Ni 0.47235708713393476 8.786577775111574 4.9688721832423655 -0.4417718302681488 -0.22258914242326824 -2.068927376008392
Ni 6.435599800188441 1.9607501102513194 10.162369397949124 0.4705617579166476 -0.3807019595400218 -0.06928840198317746
Ni 8.006982155100717 6.674738241741874 2.525814829738994 2.9671000993117738 -2.17391117451065 0.23307332978404374
Ni 4.76228514032847 8.200787225408495 4.486347107952775 -1.1823768103249703 -1.7685528498745282 0.105555868955644
Ni 7.405045857379233 1.1570433818794512 2.4313177960125136 0.3779025424180137 0.6535438274712551 -0.009079850814081136
P 2.5950620451399917 9.948566785654451 4.032433756598058 0.883182420542137 -3.34649876665934 -0.02774271733090706
P 8.873514260822718 7.220758083818841 9.99086359699485 -0.2901497630820616 -0.12423904718744408 -0.27151029360400336
P 8.214399390501024 5.210916298498242 6.206712553019594 -0.6721928100310101 -1.161421805339858 0.6114962634819017
P 6.719108664495407 9.138100719808751 11.833228071703457 0.8609711745524204 0.41307523366440463 1.7115638340839943
P 5.209532644354221 8.170300089167604 0.876840329094957 1.0673029745765619 0.2942085065324675 -3.3673182745078525
P 4.6625311557561595 2.8138944272284716 12.070713607495657 0.7587919353784932 -0.21628145503768556 -1.054922598634338
P 5.47357686050003 2.3214070421019315 3.941453822121447 0.2762730050999693 -1.175208574711305 0.8645349806442788
P 7.725838591458867 0.8602645264101673 8.386204359918873 -3.37598263505107 1.0263951806186065 -1.3070061509722974
Ni 7.1700583782578615 8.647931890274894 9.815936991639916 -0.021853862650297845 -0.6521706012728123 -0.2447610505346172
Ni 2.5508318576037596 2.537406672800963 4.5380013478928385 -0.7541222978169657 2.5229895936081195 1.9648162099190742
Ni 2.8646595758908564 7.0101528344785935 11.745066865094564 -0.43995097500932623 -0.6084510488976747 -1.935610020668763
Ni 6.884464683720379 6.196947507388312 10.706934533371971 1.3736146921304664 -0.1669206452163706 -0.5516538374029725
Ni 5.989240452538918 6.430588728423609 13.40125787002083 0.06655249110925313 -0.2210562507185096 -0.32755520031371327
Ni 2.4215630342971672 0.97718704118572 9.36656632642425 -0.2953068818029688 0.3850514947579691 -0.49116477887897986
Ni 1.6671817063567433 7.9834226385944165 9.640929049858949 -0.7916724881565979 -1.0406221228512658 -0.7104932482731054
Ni 4.023339035305467 1.4232565693861567 0.19383124754834144 -0.22179030067105673 0.3815627648784203 -0.5918090694656195
Ni 4.44613886644869 5.79870753730146 1.2554782205076989 -0.3279256962792546 0.5555326036320885 -0.14368352906530096
Ni 3.341291032448077 5.355807325011988 3.279253777019166 -2.160229820368815 1.6821606983315287 2.1991570935616322
Ni 2.358756354976007 4.278080982037081 1.460848956636884 2.1339297490217057 -2.8068704929623336 -0.5946655650778081
Ni 7.479520106779704 7.022082176963529 5.053202163714639 -0.5854592159881917 -0.6896022637567092 -1.0251389396140023
Ni 0.8345173405139963 0.9845821116446419 2.9146777382957603 0.050317774417945604 -0.5265089627062287 -1.08887324454817
Ni 5.030489667920827 4.074347258344504 2.808222380139435 2.84932763368528 -1.7000267799786721 -1.0429394581305327
Ni 4.760331196300765 5.331069832680373 11.57870582681228 -0.5851329429970245 -1.5336434953230105 -0.8543909502317415
Ni 3.365551725040874 8.608282719837108 13.229409895136342 1.4483808293987637 -0.42844503125225564 2.5665659355371733
Ni 4.777449241825779 0.5941971835294532 11.411797871182529 -0.5051657211437622 1.7923751491051068 0.7330287103714601
Ni 9.138857989982167 2.5629388313639416 1.2985379114302058 0.6003556734840498 0.7894965635512016 0.5717002145308864
Ni 0.7096088975639668 5.409872675788153 11.023974573036675 0.17393512886099077 0.4398861832096618 -0.4684706797155739
Ni 6.320578874959469 0.33260521388348746 4.453097337931086 2.437412224656931 1.3077934227602832 -0.2801003492658595
Ni 4.01335428783375 2.594828319777826 9.983091761252116 0.7450807564399877 1.0957218920388871 -0.7804941029422752
Ni 2.0228182174280365 -0.17799214720509787 11.625625725816315 -0.9311142112264095 1.9741721972126776 -0.433138322962867
Ni 8.329897115468816 2.1642501085817307 12.61013398024651 -0.5492529412709638 -0.32315655702538537 -0.573673021986541
Ni 3.636560956979219 6.510625641443623 7.050474199057967 1.597875565829203 0.06636634324037602 -0.6585253398462465
P 5.476073047367959 5.938652935151779 3.5410963002533733 0.733410262080595 1.9482783601650508 0.753259178485722
P 2.334103003774771 6.59550534396771 1.1507402763125671 1.1586331868511273 0.9303325958653784 -0.4636030672106274
P 3.0647004388612156 5.410583200889137 10.093296074217577 -0.7835699136541214 -0.5801095216405041 0.2637291069966877
P 0.5675076169730302 2.4215630342971672 11.108427025598724 -1.5057706801721422 -0.010425051988065917 -0.6407844709230578
P 8.220392108786953 8.777668164305819 3.4546319397738032 1.2833568869844736 -0.1367711182161838 0.2522136501579205
P 2.551112328038358 4.972666013321039 5.3810524688302275 0.7584967727355776 0.7554513010410344 -1.6370576353453032
P 3.743064930010875 8.703951185078763 10.07612380440854 0.08690508662367614 -1.2568943219175708 -0.9003291075247528
P 8.722443535733312 5.988305551090256 12.551282868954644 -0.9500169616681832 0.24312942846846516 0.9958872418377364
