# total energy = -340860.18085888977 ev
CRYSTAL
PRIMVEC
9.39916253358867 0.00000000000000 0.00000000000000

0.00000000000000 9.39916253358867 0.00000000000000

0.00000000000000 0.00000000000000 13.75662444981164

PRIMCOORD
 96 1
Ni 1.565618496617899 6.934194533264505 1.7107735226770264 0.5853219190793791 0.45702310000026447 -0.44010498408868726
Ni 4.954495932975467 0.1497812938386516 10.932238270268972 0.49952060704284296 -2.9623646415093177 0.40052696468574894
Ni 8.413951680500135 4.358767614946176 12.442041720249023 0.9392630655857888 1.5619282012003164 -0.2770371369595035
Ni 0.943544326118055 0.12196729218654324 2.159610789334557 -0.2123589800548278 1.1266149820733178 -0.32577419715389055
Ni 0.10253734347904177 2.659070065352025 4.061657268763546 -2.21936390752681 1.753570003312451 -0.5771329555106834
Ni 1.6931463333358654 1.3257988655846658 4.198755332732856 1.855724817006346 -3.1718005343800795 -0.8910073159031945
Ni 1.946848527372669 2.3397053221324597 1.814127653376793 0.5207054686505743 -0.17863279144697622 -0.19364520569540844
Ni 9.122028187819657 1.9226550831132314 8.916741079789212 -5.664991299459211 1.0026469291590734 -1.7347150753894771
Ni 7.832397299511727 2.395244973309233 13.556878263489393 0.27581303474441526 -1.9494582394057653 0.49870788133356053
Ni 2.053284643454203 8.764935206349362 12.083681731674544 0.1286412900201978 -0.6066556475601487 -0.19635180599329408
Ni 8.075600629042784 2.969862772377104 6.704042880772553 -0.17020651505649395 -1.5776942057853216 -2.5167145592326854
Ni 4.782970616623303 0.18340209807952465 3.098143482010836 2.080031199231037 2.812655989295859 1.1282329772927149
Ni 7.029464444303222 8.400943239608504 12.831752615322088 -0.60222717947515 1.4333283059410153 -1.7150199109533946
Ni 5.78858701185143 7.0153281039123145 5.446783648010048 0.34178831319395975 0.17713563807615945 2.4654233651578763
Ni 6.760892775200983 1.9799429785138805 3.982845291251742 0.019028220276044647 0.4859775782510856 -1.2090363218940274
Ni 5.135570798421489 7.431757998206942 3.4414121752850244 0.2121422360583314 -1.453178507897723 -2.102281783099121
Ni 0.72514914607354 0.3331730528394329 6.8266427365949385 0.6636567475355409 -0.9748689877148565 1.3952569529905907
Ni 8.057826812766717 3.9903862393206415 8.618951174158267 -2.514750750638095 0.10641693140435865 1.6330240887058778
Ni 6.164374927522199 3.763133288541824 12.813938382647295 -1.040452944263253 0.8033686935476035 0.33983787433580825
Ni 3.50229713017211 6.041838046088523 9.125360190923764 -0.31265720015595827 -0.8262124309149964 0.3067799154395749
Ni 2.399662579681391 2.526711059112166 5.941073384655841 0.11286602946381208 1.954170300169454 1.4816825288746869
Ni 6.440400132482144 7.43895775667731 10.429212952001297 -0.33161317243317084 -1.4181366858022417 0.12812321273319868
Ni 3.6009789371961314 1.1241586326018729 9.400836484794063 -1.6088816871317193 -0.22419145391338163 0.3415486863793279
Ni 0.9088163005353942 2.7068836049587683 12.285587021039666 0.7103739490864217 -0.018636384154264676 0.3747035758647418
P 2.8400979349855766 1.5133497539890217 11.462748619501463 -1.5180824076599597 -0.7150631270319749 -0.5636323499210873
P 0.7683890532107255 7.622598593484182 8.01295897068558 -0.23867139269711157 1.14164333716135 -1.6097167814385052
P 8.75623158187996 1.0491439167376269 5.516640103497612 -1.8754991714197957 1.088473695116906 -1.5194237521792027
P 7.54053450574947 6.412071056725367 12.301256364833336 -0.016896004424390258 -0.8482791809070487 -1.0867556839845347
P 4.25230330137716 1.9155681145927903 1.2854069046831482 -2.551057298378613 -0.1980325361298267 0.8938841232303574
P 4.000903902151376 7.192615106873274 1.4117598460893703 -0.030421806824966965 -2.3607498988071853 0.8525392417349834
P 9.607917892944604 4.15773832752549 10.428140507560737 0.08481529397418296 0.4743011703544219 0.7288810067516738
P 8.776355188779515 5.0430266445060195 6.6050640602137225 -1.1345887443074136 0.506904815322056 0.26042575365506765
Ni 8.505480724866258 7.515767712577902 2.176283963682582 -2.4924320325362364 0.2347679438776473 -0.2844714817503617
Ni 5.567067550193924 5.256810595431 1.2523180930394329 0.010667507016175177 1.3775351102307953 -0.35395374491190007
Ni 4.8184054592255094 2.2963187880603684 11.580202433858412 1.3722625489779463 1.1801718322538515 -0.8446534112290033
Ni 4.451885117773777 2.5395127184289312 7.872764822590759 0.1879126740870054 0.44484018478082743 -1.3626790190545695
Ni 3.0724734293235985 6.09087347681948 13.287111020917925 0.7958664716332874 1.11030390361812 1.5723591667256533
Ni 7.806925569153111 4.242725554795822 4.151129776375991 -0.6686243759534614 1.183245843193485 0.21249036342636954
Ni 4.40594201150333 8.195750123202997 13.365206782247688 0.30439136060274025 0.0939247124746189 -1.3701578439301176
Ni 4.088222121720207 7.664124093382471 7.348554731977964 -0.5589688830071471 -0.3761644766809844 -0.3805978298619897
Ni 6.329433620078524 7.549501306768702 1.0157383533178654 -1.0438683977027055 0.42444079518886907 1.3915933880960742
Ni 2.511879180696707 8.332526735815014 9.331916185890895 -0.018142475236981658 -0.5160607707897112 -0.0321866120348736
Ni 3.4850026711832345 3.847509570250048 12.45729750089296 -0.5364059101049664 0.5007398241619246 1.8010839897330144
Ni 8.235423988089975 6.254343710914326 8.584945004255141 -0.13600621502570123 1.772259609302154 -0.7928274276966474
Ni 8.281038123673135 6.993879215101112 4.948931628779047 0.7252171847468413 -2.132256989304973 -1.3290322775344015
Ni 3.1410215213920045 0.5141106905130428 7.044300082383678 0.18956512208876386 -0.4853234896068545 0.34828934753727114
Ni 6.5161855796708945 5.162771974678992 6.720400243260781 0.9959813442134396 -0.6030537891415034 -1.8136852234367924
Ni 6.564177703365022 1.149226198973248 6.044908752475298 -0.5020647136209353 0.419246138361807 0.8159005074660272
Ni 7.663691731907748 8.440250537158217 6.5236936306710644 0.26265258610305736 0.7113892777248136 0.8920462986906702
Ni 7.472493968455738 9.411663380070847 10.025580017442188 0.3870135035803464 1.8511983898909021 -0.02342480668184353
Ni 8.110480921057846 6.01325519294441 0.6394175051336878 0.16747883171268574 -1.9253634032400908 -1.4177332797162359
Ni 1.2274366300854382 5.111217568399655 5.619966036709896 0.29679477920240493 -0.9205570045358532 -1.3814187615559177
Ni 1.026294552714825 6.284063862720209 9.574651437129752 -0.11602745791092921 -0.9508034621252206 -0.6204367605046411
Ni 3.2956565427425333 4.511823576997721 1.5810491016842232 0.22437297379656843 -1.0987604217548947 -0.05666891344695401
Ni 9.312521014084622 0.29915748377381374 11.939841648448319 -2.0262267518160715 1.9702597495321486 0.0734528177735122
Ni 0.8319132929261128 3.952357227870104 8.357782285436267 2.3636418756430007 0.13294223138839684 -0.6171285220670146
P 4.8188190223752425 3.812704471534937 9.513146137518067 0.19517989717238 1.0422943683473662 1.1808832564985792
P 7.266031965113547 5.7336771045617505 2.6280246316344953 -0.6080203891181594 -0.17782752193686147 0.9569275727450873
P 3.69466038977337 0.7876488770770864 4.97323974282091 0.19090980904211638 -1.1430319899787604 0.46942224499556573
P 0.8127173833647109 0.7490183192269358 0.1403633330197098 1.2680565091819773 1.9213236859530782 -0.8556348499411716
P 2.284560435780432 3.71429524022324 3.6701849706391143 -2.0037915627410072 1.1149349746322281 -0.2424984797526856
P 1.731598307098631 4.388177594389758 0.10879248611876807 -0.4032279085566797 -0.7814839776593703 -0.517653826308444
P 0.445864311560693 8.047553528160826 3.4320167724560684 3.0177760284000863 -1.2133832860088136 4.745727559813485
P 5.154773287396638 3.525278082469827 6.076630925892392 0.9425527920806541 0.12011165528263185 -1.558960376821244
Ni 4.026394430834978 2.63961379898954 4.013399148770838 1.543495962637058 -0.19205343572825634 -0.5665631504146372
Ni 0.9294361832146302 0.669862332367854 10.020724410097811 2.579101606110339 -3.000189168556259 2.642189792820075
Ni 5.807159756939482 3.094542662859402 1.7650019906858936 0.4405032479683704 0.10377897956087934 0.6896655128944766
Ni 3.1799246549544793 5.921180997153637 3.400018263661652 -0.8378883245910279 -0.22658180852242912 0.127502034209432
Ni 3.231338073796407 9.11658607273566 1.655885233461084 -1.4382031175348133 0.8501735697162841 -1.5897354532205719
Ni 0.7976589851331473 6.170738160530607 13.126997227749667 -1.5159504489186215 0.4101778575119516 -0.16910196913840556
Ni 9.288186582387775 3.68360697468048 1.3805734249344315 1.1981129901133043 1.1576980766313674 -0.8094745493350252
Ni 5.196543165519768 4.682117603063177 3.8270927094806813 1.1860138928569253 0.43636711431280983 0.3112731753242381
Ni 8.178869227363855 2.4344488800715145 11.03240044538579 -0.5353599853389555 -0.26907031670394305 -0.29869379599733076
Ni 2.1551715648886627 5.439455121013513 11.274544489303779 0.009020715441371561 -0.22970647019433987 -0.05685994641183756
Ni 3.5196949799484183 0.8910763212443056 13.323098534274774 -0.5760350944608144 1.1385392443147295 0.31078595127517444
Ni 5.888612899112086 5.577857788736983 8.757233532601816 -1.3886294203717442 1.8213447968645795 0.04820407050905247
Ni 5.2588314153672 6.1368071839274325 12.55458447220288 1.4489030204508209 -0.4422233159832707 -0.8833546844539432
Ni 7.130279861213371 8.883016884760904 4.068728258707747 -0.1764805209906638 0.1406030903677643 0.9047218372758096
Ni 9.141531449994611 7.510109416756542 11.132878432362407 -0.6047484032351068 -0.16077365177836828 0.35216168600848385
Ni 7.390326489933593 0.37914717634610956 1.9746813273497652 1.7092554976657919 -0.5511067066502509 0.5965013327349662
Ni 6.771410438031718 4.519305310342909 10.426998509317722 -0.3141546106370912 -0.345117891787825 2.8533732645095635
Ni 2.8834280740827043 8.364812858981745 3.932963935896329 -1.2596636571325919 0.3537357153638231 0.2047757683909312
Ni 1.2311023034580804 7.485079447035142 5.649460608615924 0.24748770543716087 0.5300370304641453 0.5485620858515262
Ni 0.5342803533088185 5.234562777807811 3.071496856340477 0.011277115575716062 0.07379631715586 0.5617351328983744
Ni 5.789884096275595 0.6459940991307074 0.5936454636206312 -0.5635295057946359 0.08301629309223121 -1.8384436613283952
Ni 5.422921994186647 0.3568410839154581 7.9926953162648635 -0.17485147002767307 -1.884705777619728 0.7223012966516271
Ni 9.183066349055395 8.414355844487377 -0.017026582857797467 -0.1580374837941278 -2.7357548079624303 1.5648631154589243
Ni 2.7648576392214754 3.2728165778822254 10.281480675586327 -0.6068873039549806 1.0054106079471394 -1.422982443930317
P 6.153377907404273 7.705940967318071 7.918767143584918 0.7220411010117048 -1.018194132865053 0.5892199685822046
P 3.520663093685296 6.777115729665547 5.311281561832211 0.22744749895683408 0.32025172467376456 0.7704925116448731
P 7.8027147443558205 2.4522696921600513 2.0482372931949495 0.23941058485598124 -0.6376394975361729 1.1344416772065882
P 3.7275574585022087 7.567293921369758 11.223603848335296 0.478300521321802 -1.158452695409205 -0.41460863958979566
P 6.628684155561028 1.1167426933941433 12.008858758725173 0.7074919995529364 -0.1975985339162016 0.34336491365246025
P 2.5092192177109176 4.646729756273442 7.2093794530974895 1.6789514473656115 0.20128832406296301 0.741821883183058
P 6.7151658496678985 1.8791745574162009 8.488786872360746 1.8460124748145883 1.02281929034189 -0.09774537177228973
P 1.6065048534665984 1.7507444010988147 8.409410945099307 4.106133252543787 0.716065085933928 -2.745994740522884
