# total energy = -340870.1003613875 ev
CRYSTAL
PRIMVEC
9.26749410781204 0.00000000000000 0.00000000000000
0.00000000000000 9.26749410781204 0.00000000000000
0.00000000000000 0.00000000000000 13.56391439944282
PRIMCOORD
 96 1
Ni 6.257291612156505 0.13689479070090185 1.252605638214314 -0.843095322713264 -1.1239145524230192 0.156376294041621
Ni 8.327260583579317 5.630790468673287 10.517662495740465 0.06310978397629131 -0.9057150544270144 0.2390683710252141
Ni 0.30978823590531274 2.194811385905554 6.03013698836131 0.06669364467280772 1.434387086222833 -0.5832082151704859
Ni 0.7760469905281482 0.35621189464396674 10.173397327880679 -1.5456523468584282 -2.3631901328175626 3.0923683590946807
Ni 8.95750579472277 2.9918714928020615 9.726805122717707 1.1438452299086752 0.9921275176849882 -0.4367247547625447
Ni 4.884581102498835 4.35203381530142 1.8017491540403168 -1.0085190716691341 0.44733415484727473 -0.8127889584202389
Ni 5.080709082433383 6.38435822524929 5.5791909144191845 0.3769332365262089 -0.02968210044546501 -0.7588610980535317
Ni 3.607640877991834 2.344574092314962 2.764990260086017 -1.3638609551778127 0.5801977104789362 -0.3573396306649975
Ni 7.042850758740261 5.180075155336953 6.460804858225811 0.8903987357849181 -0.41745562212028753 -0.4756756821044454
Ni 0.7325351784698059 4.078058884015446 12.25944540175524 0.29062953093195754 0.8090197211857937 0.15508508603402324
Ni 0.31480565726979626 3.089967918999066 1.3250533474398651 0.8316585416312322 0.5028244746050953 0.5095448240480644
Ni 5.827057461020963 7.881929684378123 8.134157513754424 -3.237232281621328 0.8247070500140635 -0.01836976075643933
Ni 3.523399355636542 0.6720731195041114 7.5799363378515805 -2.435973692438192 0.09835086656677257 0.48098243902933935
Ni 8.033582959606065 6.520859147446331 4.695718838023753 -0.3005210790140566 0.4964067440042096 0.007631034182696536
Ni 5.1715305256767135 1.0419629088504079 6.1107336052443975 2.699558046326899 0.2948245428499116 0.18533899982255822
Ni 2.77557744546981 1.8585496260442314 5.360879333597742 -0.2439606661205089 -0.6445853327263866 0.29373722332300384
Ni 9.095118816224831 7.935440195938018 0.678335165340797 -1.6137675544691112 0.6666374274304198 1.4572789032193418
Ni 7.490683881377751 1.2679785576073785 10.240185378393097 -0.8579365014911547 -0.12662528803143352 -0.2799921058227694
Ni 6.594378179002385 6.957756626917788 2.6523966926986513 0.5377323422258738 -1.46994390028152 -0.3946005718989849
Ni 6.967876730593472 7.752462790285335 13.171849668320197 -0.9763360591786864 -0.40661816518515137 -0.8705734735288749
Ni 2.7601934050836956 1.028960614475878 11.442179377235934 1.256158986413443 0.6977979121936241 -0.15596311776360236
Ni 2.3244821648709277 4.325436106923016 10.171701376440524 0.8150816111091576 -1.113451448108166 1.421890753528035
Ni 6.277707901897839 3.7682558201193994 9.172624723789383 2.161669123918503 0.2091376449040527 0.4802049374333665
Ni 3.910067016497912 8.358760796394018 5.696206930042847 0.038425650966049954 1.6260489429396257 -0.8730985539435738
P 3.7146619011116266 6.711732458164658 8.460925652548555 -1.2425233979078796 1.0376674110983162 0.22730300295916983
P 4.456849174799588 0.7745938474362549 4.176532497226735 -0.3732259628779508 -0.9154559358638621 -1.538451458234615
P 7.780728647621269 3.6677683804166015 11.338876472792593 -0.5153652873845833 -0.43914673394047593 1.7020150140532946
P 2.291397210546572 5.922772141206382 12.034013605133406 0.1975867068416597 -0.6587572533513945 0.40416019056296204
P 4.356760237347756 5.0374576869623 3.780235909882731 -1.0295620083823622 0.35591035441763863 0.5471688050484254
P 5.467209928399001 0.8802321604201387 8.34262145522991 1.2979041886710294 0.6295610914034124 1.092602372573299
P 1.7536045216271436 2.113155494434434 13.186878763678127 0.6601353646458438 1.0430885821138873 0.7620718916813456
P 5.619308043348952 2.1778333365155764 0.8813275782355838 -0.5567500209789573 0.3858613922537742 0.011060114468903533
Ni 4.064333725092653 2.6917992978249434 9.09271946197425 -1.1539098132335288 -0.4323721342208038 -0.9649255033488995
Ni 9.116878892626396 3.9217903966716685 4.1511543910861715 -1.1539519793253739 0.190981028599684 -0.042256080455733674
Ni 1.7974397692333628 4.8679644853829895 2.9707823829811923 0.11170337661427858 -0.26373373498237807 0.058420348920421965
Ni 1.439556945383603 9.19701491504732 13.174223073586996 1.1265437625157502 -0.8127056546778133 -2.6685919369626876
Ni 3.5537503991693895 0.9544406935453056 0.9348019465680669 0.4428928312464695 -0.03397841382797374 -1.365343967481242
Ni 0.44385551412320035 1.1841726074798862 8.243753973514758 -0.34818701763145193 0.38475144701904707 -3.005695443086469
Ni 0.34520952551963197 6.945245509736308 12.20434922193627 0.5008125863813891 -0.01288328372057136 -1.4573920317584383
Ni 6.452363097751285 0.9972657842827979 12.400931309087035 -0.11759248840520392 -0.7124447155725213 0.6833994773801069
Ni 0.4627621290579673 5.0529807397615425 6.36094668137977 -0.2568928008011447 -0.09726688947397441 0.15127676803152657
Ni 2.379818372789899 7.940954354992077 10.99950732212316 -0.5588027897429279 -1.0860355179890586 0.5953281383624716
Ni 7.358937183709672 7.984761800115671 10.554434986010383 1.06191239968861 1.0090366347355009 0.9153119540868301
Ni 9.024815605159127 1.829004854507524 12.251131532700793 -0.44476639412009855 -0.16485424960564513 -0.4991863636318758
Ni 6.436765904998374 8.856091605599122 4.35857388596436 -0.007510963665064483 -0.825515919068604 0.07534772080337991
Ni 5.43087208360746 3.2610921995590734 6.822879369706076 0.8121901484939754 -0.07523330671270269 0.3792999369861726
Ni 1.4201044750399552 5.793045757275758 8.761732759816407 -0.4204985227116694 1.2235401719371573 -0.8202580131037744
Ni 4.602293228907834 8.092440815324267 0.1650633393476467 -0.9793491349733973 1.5095507160398647 -1.5492976569204995
Ni 3.6564342349996024 3.368131757667283 12.348940666577334 -1.367314975164684 0.32983062661145135 0.5462524638817431
Ni 1.243262150553301 0.6854535276423481 1.6043672821393575 -1.3765910011499711 1.2816237063434508 1.059215055362105
Ni 9.062775261437155 7.634135424231169 6.977657643981126 1.313675335462357 -1.448709416382776 -0.973338152892627
Ni 2.8184859436551792 7.013908374327107 3.826448269753431 -0.14791299376561623 -1.1937320874367892 0.6777420219840133
Ni 7.3994732033776645 6.449184347237769 8.442926325296801 1.889994022601861 -1.5795456571717634 0.3797131132641912
Ni 2.327160470697185 0.25515913779445015 3.522223310621483 1.4511301100091267 -0.27549858882779005 1.0261851214903297
Ni 6.41470000128793 1.6580473888432694 3.0721048239121767 -0.6548635747239432 -0.27047850990537936 0.8812371238903081
Ni 2.8040471876783317 4.21713616960245 5.237556788165192 -0.3118244198420178 1.1254741836006552 0.44775170200066755
P 4.71721942458748 9.024472707873413 11.560795889109405 0.4467695405930564 0.14061980253831266 1.090393023626806
P 1.9698429639941437 1.969611276638931 9.558382316719477 0.9112344415833469 1.3031957760872717 -0.18288333919321406
P 1.2845581047463905 2.350171658816898 3.601382539152832 2.1461095789173488 1.054802528116706 -0.09627624342593097
P 7.849975364347204 8.673318084819027 2.5354483297827106 1.5707285731007656 0.8777265396338884 0.512613178560743
P 8.684503950328688 8.898777683923488 12.432087697866601 -1.4707067465894734 1.7104312631414478 -1.7661519537425197
P 0.941623749054946 6.386165386619948 4.805356074758605 0.6768364794506085 -0.19616000169746217 -0.3788543648083217
P 0.08737764239544955 7.38520126229657 9.58297361260174 0.2342408677295837 0.767229267512569 -0.4795778453723289
P 6.904626082620439 7.839957203107812 6.3111264860137 0.4846830278093782 -0.9594503391669411 -0.7327872837846154
Ni 5.769219029665696 6.377435407075538 10.37756115204342 -0.5465393989945427 -0.19228997721909463 -1.123850017733671
Ni 8.164597525231672 0.3733697334215892 6.086806788696885 -0.9854891864328641 0.5975323451026419 -0.5249673292507216
Ni 7.8288732800344425 8.92432816545633 8.439114604928843 0.4215341630650353 0.9616059520573632 0.5572773542373369
Ni 0.3143330150651626 8.516336000421193 4.448625200438963 0.2694816932097488 0.771896076860619 2.4842692942197866
Ni 0.7845740119493918 5.885544616970826 0.7301469452122746 1.4078936679179945 -0.8376366135915381 -0.4792567145874843
Ni 0.58796319556658 7.294852461257874 2.6797005841357424 0.4070326270147506 -1.4185922852824215 -0.241685496933087
Ni 4.887787655494977 2.9508906334120613 4.56705172868116 -0.14837065012832512 0.9121590102801452 0.024944071539847363
Ni 7.012203155392743 3.5614887568334894 2.0037564323007397 1.8199584580400143 1.3442773766189302 -0.3137653456184726
Ni 7.343858970632439 2.0350861232220048 7.745767952469112 0.33925603369040924 -0.03202668941824161 -0.23337594862612712
Ni 1.360366207371945 3.5300997539492895 7.95234688562259 0.8339380816940282 -0.3368739066114779 0.19789009701469146
Ni 7.917609537080859 1.687369740518973 0.8742064356857701 -0.1039558714583758 -1.1687695039541808 -0.32027435038158386
Ni 6.197812834326333 3.7690435571271217 12.962774998976371 0.4616896522379984 -0.6628576486730132 0.2466351276288785
Ni 2.436174005071806 4.057809409169867 0.7543110096115253 0.5692808064561163 -1.0053710129584557 -0.1683206108876908
Ni 4.737348422008349 5.687248043391487 12.385820659780071 -0.641744777953798 0.3651982074774678 0.7207028418162555
Ni 5.2290631297231 2.5449280496085884 11.014590168947498 1.928642073991362 -2.04216322054067 0.32572740307635517
Ni 3.9766632298802143 8.647841743239852 9.565028036816397 0.8059557375484895 0.07290465857952605 -0.31814213452992945
Ni 8.816426730386729 1.2758281252019807 3.4938740458376722 -1.7046817622521804 -0.23629620759671563 -0.3601735005693668
Ni 2.667425788056581 6.742750761280519 6.487864087815798 -1.118339886548719 -2.0469148762930423 -0.11652882302737995
Ni 4.605184687100888 8.056306855405314 2.7814437693037926 -0.5947570963503499 1.533111019858308 -0.129379453737803
Ni 6.483112643535098 4.77924676332499 4.1526872346282575 0.3719026160808369 -0.4216334076470609 -0.38241071470101234
Ni 7.969173874856969 5.597501629476344 13.279723300907174 -1.0375373132783552 -1.185216079545978 0.19260288047382312
Ni 3.1530424845821368 6.317558126994401 0.585128269088199 -0.4457357000119033 -0.8571237757818723 0.3845341888019184
Ni 5.216765164908416 5.349104982205839 7.876592534463445 -1.0024736368060025 1.0363394363155118 0.12038753465183782
Ni 1.8837016053261084 8.139677233305006 8.198382175368769 -0.28515668074284434 0.8893019031763136 0.7308283602860317
P 6.9945207764429185 2.719416430566282 5.141998728631897 1.232069292454091 0.17157177083513675 0.14682773112123745
P 4.679463653182038 4.5150119684521535 10.491538356316115 -0.8900300395915898 -0.09148730667771986 0.18194591498060922
P 3.5158185453739867 3.950093323984437 7.370481701245205 -1.1397486912417982 0.5160376308612595 -1.0598305774589167
P 2.5948335059213767 8.089030377455538 1.716730088920931 -0.25501126750771563 0.7632630837759694 -0.10890781614701245
P 8.32253416153298 4.204069002768461 7.930454284053844 0.18876293790244267 -0.3306353819009338 0.4219188000979637
P 1.3807917646074854 0.330160041674444 6.384073713177089 -0.2452055942712035 -0.8100340213829211 -0.08781551425308746
P 5.45179808553026 6.329003482341902 0.8259802493235623 1.1025376294091398 -1.2169884868615684 0.3387703523032424
P 8.7506738589774 4.994771608637936 2.077924188451389 -0.6091784139820025 -0.027832963051868193 0.7265119922988649
