# total energy = -340874.3144900376 ev
CRYSTAL
PRIMVEC
9.19795597187720 0.00000000000000 0.00000000000000

0.00000000000000 9.19795597187720 0.00000000000000

0.00000000000000 0.00000000000000 13.46213830848001

PRIMCOORD
 96 1
Ni 2.447916439899756 6.261113096092775 3.080352264116454 -0.6477079375157684 -0.01696670976132562 0.19280599762356473
Ni 7.504235257555976 4.3898073255132415 7.869239588663 0.003782606970883808 0.8149440570900288 1.0835189222147918
Ni 2.9957926943951056 7.683696578826164 4.835613861278887 -0.029851536143793746 1.2405387633776828 1.6883753117826727
Ni 8.012698270206071 7.898211310754991 4.4396648464985855 -0.1289973878080359 -0.562439872274883 0.6508557391161307
Ni 1.028910962085341 2.517305820642019 4.365838371738551 1.3133161523507253 1.8376391631492286 -0.018762625319483816
Ni 7.735655832778052 1.2220128522368625 1.9113545911906011 -2.3327945512448403 -1.4029787471148807 0.5301391032596483
Ni 3.166157237092375 3.1118249104692906 1.7811887957886638 0.7785038119851238 0.9620708075089238 -0.33276785486290433
Ni 6.871195127624171 7.785490358873172 2.185591652011198 1.4555004711626804 0.4063407431540486 0.28208986889206256
Ni 5.631025510065831 6.047932067796985 9.835828825969104 -0.010361545739982155 -0.43994480436173905 1.3953937356787711
Ni 2.5765314599049343 0.8390559504335569 9.137991854770728 0.7147360827098593 0.025632612966439722 1.1464042488851032
Ni 0.6714443559939965 2.9572440604223025 7.242064995329729 0.17039471980790008 -0.15880727208061682 -1.3245086786324352
Ni 3.2437603926229266 4.320868644619384 8.043560172274539 -0.018110850668097842 1.1958391064774632 0.11923285222210432
Ni 7.514270227650065 5.150055188168469 13.038067805210972 -0.025317652829182205 0.6195361030672427 -0.6265881248180177
Ni 4.699401329543443 7.92123379484803 3.176270389813229 -0.5580900799466195 -0.2900127232835651 -0.8414557302273121
Ni 5.355077629412511 4.204496104169872 11.502252884032774 0.07459567312870378 0.7761265700021989 0.9940555879456364
Ni 4.596549784546096 5.653367345408217 5.160791962312218 -0.5763675380995686 -0.44917480760043926 -0.017982038399717418
Ni 4.6044324329151465 2.478839968274025 3.57489784940691 0.620256526173035 0.5986785428919431 0.827067065605808
Ni 8.338361103525342 7.21201619257961 7.449664703870162 -0.15611404151916985 -0.6409510784079091 -1.1941838302622272
Ni 2.012779533198404 7.879107155956253 12.79420147560364 0.1781766777461641 0.5046795255359631 0.5945316106031051
Ni 5.343460610870958 9.100034649374505 7.388533248105419 1.0596233465441172 0.6003968111346305 0.7869992510506445
Ni 5.16194814539272 0.7682022550817802 1.8012072274227389 -0.3134979508896988 0.15682572287421376 -0.11877673852129221
Ni 5.521882563102987 7.923616065475317 5.2342413208725675 1.8506764559491613 -0.4179736994072867 1.749579394095819
Ni 4.017887971017825 6.752486306327823 11.90704573359352 0.9499028046878222 0.0009929600408886124 -0.12340395288065843
Ni 4.225237495152614 2.1271929090007653 8.023394573343024 0.820705127943522 -1.2537287797053958 0.10775364793791119
P 2.854613266371113 3.9385647976984615 3.7371433562636183 -1.2064806453517094 0.05475832668780247 1.7992464223036433
P 8.27678078750341 3.402489520866463 5.713304906472491 -0.7908584768957347 0.27330158117647124 -0.7069728938246728
P 0.7208428989704546 5.63012411036902 13.295315321337899 -0.5297876334575005 -0.5607329168861053 -0.10813288565420086
P 2.491027260093153 1.5180490689905404 0.7276880178925639 -0.1156839585285814 -2.326935521360902 -1.1143096823434038
P 4.0181731076566125 6.996535675261343 6.877940908620509 0.0691351642347648 0.5614564253156911 -0.4595227264936667
P 7.572189757148213 9.127187015751915 6.44031411520562 -0.773461621575526 0.10753767527236319 0.12323554562359419
P 3.166414779862893 7.937275030268829 1.7177955626214112 -0.9607824277148034 0.27708753058146474 -1.1050465118739226
P 0.26092025999362867 1.7682610685042988 11.285162724398774 -0.9815564270373611 0.7617139941212946 -0.0378756919998509
Ni 6.079149930766132 6.796912434242077 7.796085484493137 -0.9895337888158829 0.7304105560223226 -0.31798683989898785
Ni 8.35848623145006 6.655576640964556 11.12146302068425 -1.575099448474952 0.9720184056399388 -1.2007820523050352
Ni 0.35069139163551843 4.733038254964236 11.21711164626759 -0.23420281540279667 -1.8954997829114386 1.0044690699694765
Ni 3.4993715923614603 3.1344886742748232 10.470070208966252 -1.3001119949556257 0.9979654645230037 -1.630691069697327
Ni 0.744813692336363 5.221118596919096 8.827070585676752 -0.4383082971995806 -0.7869840815419931 0.6777029412159619
Ni 3.9254945020947027 2.6578321937836287 12.791239733742689 0.15247927298005998 0.8727640534222905 2.0290680779196086
Ni 0.7365097775783943 9.05002536211368 3.54312718927676 0.13028911003626592 -0.603660826597883 -0.006429300565111507
Ni 7.185139764884899 5.185789247577761 1.9287203322883468 -0.6695420026717244 0.46157472392668897 0.18675182100968482
Ni 1.7857831748555726 6.584917942281884 10.747820889013195 -1.769051900998134 0.9903472858561136 0.19346882801854423
Ni 0.565406639007105 1.9869056827174938 1.9954662204503708 2.8337542047270547 -0.009148499268487471 0.30085969330039797
Ni 7.0804670245817505 9.10372302976656 11.335416677291594 2.887613930859988 2.9681012868827783 1.7737853019180614
Ni -0.005378964721378002 5.236028483740836 6.571166078131864 0.8655616221365803 0.1659189434247336 -1.919598218621539
Ni 5.467642216040801 8.533808472479791 10.104505722333352 -3.706844016919881 -2.372115203221334 -1.9555486685742192
Ni 8.999105477199949 5.101885492125622 3.966188099427672 -0.8537995965046457 0.11524198589515638 0.9725092292334282
Ni 8.267757592579212 1.437217430872432 4.5361615236334165 -1.9148121100868056 -1.1447538577658738 0.26087492537734425
Ni 4.422046161608368 4.972635813150241 2.7948339101515853 2.0850890733699186 0.6561540114005926 -1.2894825402662373
Ni 2.2986152166483746 5.170860964843841 5.7369307764850275 -0.07854437336380668 -0.6556865848458707 -0.8288344419188758
Ni 2.677074317923715 5.847499406641808 0.7187126523400319 0.9782731283003991 0.1772431101883012 0.4423570133476575
Ni 2.3565255481904335 1.1666319586195284 11.539395150519429 -0.49642165640254504 -0.06822267972282443 1.2421919827103898
Ni 8.054456990854252 2.788525951865126 13.419598104024733 0.5802817855523102 -0.3954639483405447 2.857839527811033
Ni 6.0895896109281775 2.157702529350989 5.697822906781958 -0.1890511585668228 0.36916747653786103 -0.07995076679303005
Ni 0.5441032529072698 8.626238733227272 6.225175761853897 0.8802943003610646 0.6974726676437214 -1.0436945911290025
Ni 6.0627407771017365 3.015025620579103 1.7576171937170575 -0.29101082553077623 0.8627910013699785 -1.1734180584697855
Ni 8.86548676908186 2.9096354397009403 9.449990204522832 0.46636237512331935 0.24091802263944315 0.6321429931979757
P 6.349965351921283 6.363173616866391 3.6888283325145514 -0.22366463487563418 -1.1564163817054665 1.162687816536475
P 7.640162652652632 4.759684733756699 10.158422301341174 -1.1201805393018835 -0.3886548958385113 -0.2118846115215706
P 6.175296165773937 7.380853874565954 11.999127391805194 0.19813203782216846 -1.6738706904085945 1.0455067046370767
P 6.247113806923936 1.2536630191422347 9.530978207894469 0.9059672796471365 -0.1385706333187678 -1.056554477810806
P 5.991980900902077 1.734182641191191 13.283078360555887 0.16711142107093802 -0.0023795559757700956 -0.4602516342398912
P 1.9905204794608273 1.0008296021428529 5.497883256073199 0.43977896820783613 -0.7277682333034692 0.09733733770059365
P 8.251376032783085 3.379154306266367 2.4864163247052824 -0.3793793840738563 0.4750434478370851 0.29130238862926605
P 3.368705428148232 5.4322484810068365 10.12756683784197 1.905826104538111 -2.0391246908246625 -0.25521695576061854
Ni 0.028946887610548405 6.529785393478979 1.891147601456683 0.24653125506116247 0.7435195826004549 0.7370095493960791
Ni 6.753378508068544 5.532368233045481 6.001797879436836 0.9076608652994755 0.22511293728638648 -1.4975012410744986
Ni 2.902948525623578 0.8845177682035344 3.364821131291464 -0.8273385740996397 -0.4794696019292387 -1.7845291706981268
Ni 3.2521857204012816 7.4259238594065025 9.100351978859608 2.069500989123674 -0.2217486487998439 -1.2590468494841995
Ni 2.5007403017240954 4.667567203516273 12.153106695523903 2.02203225411875 0.6431910234820213 -1.1104473711745197
Ni 1.8134322308618351 6.750941049704718 7.495045579626549 -0.6604616376370109 0.1439028441649586 -1.309146851464384
Ni 1.4194653756189102 3.2080263332136347 13.3845557309134 -1.321643184159182 -0.2964973025666442 -0.18580514082569935
Ni 5.869087009584821 3.3459588827378903 9.212208322868976 -0.4652328895045665 0.9488285977870369 1.0885204891944413
Ni 4.8215317905052375 1.3919450909979065 11.108862740636686 1.001474763227843 -0.6320874573696921 0.13106018387433557
Ni 0.47281909321048543 0.8275686230728712 13.32042298207652 0.4378452415202331 -0.12658749281496262 -0.703926136578549
Ni 4.238574531482979 0.6760212589443345 5.17881719686161 0.05810101790779026 -0.4002713970315171 1.371038189652542
Ni 0.3398672369089151 0.7248026190671599 8.588278768444223 -0.5397429448979995 -0.6790658830017596 -0.5028255030463598
Ni 1.1256918560633493 4.473389152502232 2.1041722644989447 0.1296609895339638 -1.2250041580771935 -0.22333167701624765
Ni 6.502145535428806 3.9685133427272006 4.060193970053356 1.1321713931151727 0.39367008966491557 0.04278547059664244
Ni 7.338184556264873 2.0798602269621007 7.734267861204086 0.32956220344141307 -2.160765638267627 -0.18852562508065596
Ni 7.405513594842997 2.848156301195998 11.41324150356391 -1.1577063041614835 -0.14793819057659685 -2.4502710828974705
Ni 8.787460507571174 7.474645432814743 13.255938871317005 -0.6675026036441924 0.3163945557112035 -1.032292777049964
Ni 4.209748137097209 9.194396480900869 13.219362279129879 -0.8585101146064376 -0.08937771653388478 -0.44496179796035623
Ni 2.9157980702811788 8.943476238768188 7.185402826429071 -0.0841969436638937 0.5385011020710984 -1.3550654683733696
Ni 6.7537280303999605 8.886743245605638 0.17865833970353948 -0.20914253000005917 0.21598783505666672 -0.2391097657861108
Ni 0.30560760986083607 8.84178363623817 11.067587832478834 0.5677106337555191 -0.597990515685983 -0.5816017899153144
Ni 7.591900977048885 8.350686364685819 9.274968736657243 0.33076085173520453 0.5796639494626533 -1.0798846678963143
Ni 4.934399909684495 6.973237252485607 0.9088408432876862 0.6103379815077424 -0.50493740718304 -1.0220312472229558
Ni 3.432566837280461 2.7336509458327374 5.9932630959810105 -0.9830605223867135 1.3021241402896477 -1.277906919613496
P 1.0470861233189985 6.849966244968664 4.740369025967893 -1.944808913559212 -0.2890621864448376 0.25038688136182685
P 9.124712765563729 8.742629669588965 1.4363969731892121 -0.9301919565224561 -0.1868019575213299 1.9483534363773607
P 3.35498207766209 8.590946175710297 10.751563537346177 -0.5867977322939572 1.647754967158149 2.5709306402637724
P 5.923216981173927 0.6131633468215145 3.7606892040581728 1.0949029956820175 0.1799913623573997 0.7565411916711035
P 4.7939563181476945 4.719894375711758 0.3652692322424131 0.04825857789607173 -0.21169743521142895 -0.03801890244593452
P 0.3933000034264067 7.438350298083967 9.154967602530261 0.5851249725772245 0.5496761448513113 0.9733939458312267
P 5.300073851994863 4.071650024363335 6.966306592571861 0.09757105097795453 -0.7449038645424912 -0.037955653308166894
P 1.856478665362603 2.892039749700947 8.959416296671998 0.4163896427496184 -0.38437400907497027 0.7726411825567596
