# total energy = -381162.3100100823 ev
CRYSTAL
PRIMVEC
9.27959999197482 0.00000000000000 0.00000000000000

0.00000000000000 9.27959999197482 0.00000000000000

0.00000000000000 0.00000000000000 13.58163258460213

PRIMCOORD
 96 1
Ni 1.8037130083998236 8.985603902104707 5.279329728102572 0.18585836266113798 -0.3291037757477558 0.37712966880773113
Ni 8.714129198385399 4.677707264547856 1.4009727921550719 -0.4216640037746802 -1.3839196736009003 0.002841583213853171
Ni 2.1457683512060934 4.4331805197962755 7.942077597640159 0.8533470823482593 0.07676542708651296 -0.5762878339015689
Ni 0.6400789826848994 4.943317260943609 9.73903598505768 -0.5950324614989236 0.015249984180535027 1.2049400403374666
Ni 1.4393123883227934 6.737240291137183 1.8369432566999035 0.6681289243742816 -0.25863523741354816 0.2586920587934125
Ni 5.992691569451361 1.8288050473284516 3.3678787055129713 -0.5647476944724532 0.4300776817596722 0.0006797996758439906
Ni 7.367343703611921 7.109491452979604 6.79554309120548 -0.3476583988214916 -0.3700167119120337 -0.5936039565825132
Ni 5.683142666129923 3.632666529331403 9.619897982027734 -1.035347504715888 0.4028347868833191 0.29083830450865394
Ni 0.8959936527963958 2.8356138297394513 3.4596901418872132 3.3149580157385814 -0.15395817151843164 0.1155165797127817
Ni 6.505268845450112 1.9849064818171271 11.16715810350472 3.5441777761044895 0.06831498232631461 0.49196233507961085
Ni 4.746506220397283 1.6967377773461172 0.43078131211550913 0.6525053589044116 -1.1407941017871772 -0.1889218320778101
Ni 6.371429171830437 2.078667562192444 5.755814927100949 0.6743098563740129 -0.16877878147103192 0.21214326449959592
Ni 2.571497848975173 6.173430342459086 10.485238331498339 -0.9353434188164085 -0.49950080954850096 -1.881400110285263
Ni 3.425258185361816 8.63115101343725 7.018145852535176 -0.9979220128795782 -2.3629803307996013 -1.5567358583660995
Ni 8.732233698366818 5.965326028474837 8.030018512772859 1.198098591935601 -1.405917003807598 -0.5134912102903222
Ni 3.6066558099834207 4.916851841186048 5.889322391033626 -1.2334422615422176 2.438255289383517 0.8697687182393923
Ni 2.2674517485696652 0.4696238626138267 0.9561031910227569 -0.5437374107693733 0.45897122486557085 1.3015135032888423
Ni 8.039956964582238 3.6339099957576 12.753900139933497 1.426221776803221 -0.2547004211355162 -0.07204359613081142
Ni 4.746320628393373 3.957183427768181 0.8877014020616985 -0.4619989559483011 1.2244760534878654 -1.1932911432446287
Ni 1.1938484039514672 2.3041154489420794 6.454277442375847 2.5170578015047167 0.5992791525904195 -0.08710768955278546
Ni 0.38683498150966733 8.42997856079904 7.364368663789244 0.26414716837071284 -0.2969703855483208 0.45091055934462343
Ni 5.327047288227863 9.431878434706622 11.908307707638931 0.5572390448002338 -0.9339079719214626 0.06291977945267228
Ni 5.895691908607815 5.86049438506629 13.350704635066709 1.5026683870977349 -0.6909253534435068 -1.1655401983836056
Ni 4.682922399857726 0.8274266869518575 7.992166095615402 -1.7462325891107733 3.6817649624640656 -0.8145468216516101
P 5.742606344182677 5.447644972368562 7.019150833236349 0.9252011881760839 -0.9693218326443821 -0.9125667872415253
Ni 6.675261841431448 6.393449663094355 4.329987653782255 -0.35853647918657605 0.4559730614691953 0.28892720352887014
P 1.5262808013550053 6.1747480456868455 3.944921364069849 3.452602280588338 2.3332951450303425 2.385463342393466
Ni 3.2103890428350486 2.8069862631363383 1.9270435347980963 0.16835583500100038 -2.242859933766221 0.17484941314514404
P 9.306418240063481 3.9064147350986085 7.787844146670838 -0.3903852482660567 -0.9159680996135903 -0.20524293783533687
P 7.384863588781022 7.399757347094797 12.965528846071997 -0.6504320213151508 1.0244642821444807 -1.0535966807340629
P 5.958867426738769 3.5246891014565827 12.762389118192338 -0.5702994775286178 -0.10411733673690457 -0.43258784977603565
Ni 6.121111956556865 4.959259614079476 2.241688794546903 1.97112569707687 0.66967312893295 0.7852879247864928
Ni 7.018375058660005 3.513627818023548 7.816067122705427 0.6239203481778673 0.8733415231923152 -1.8603204067968284
Ni 2.261540643245133 0.6551212146018024 8.254495753342045 -1.6885298350826663 1.4299182518182019 1.5629862101511858
Ni 2.0949439809353483 4.565396263381738 2.5820988642385108 -0.39163249040959647 1.279992598497931 0.8829345661973891
Ni 3.058240718029656 9.288137427678349 12.524764540066169 0.9952853465876795 -2.408468030818755 -0.6932084930507287
Ni 0.9192706019267843 9.18287892266081 2.8892480629493935 -2.730527241014904 -0.988589936845375 -0.5359359124470835
Ni 4.438590526710251 3.030995811855672 6.883266863693605 0.0624675224066021 0.021163778561808715 0.880962787182999
Ni 4.215249109204994 5.615624295107476 3.3798846522459067 -0.5382987562523052 -0.8842928799974963 -0.3258539013518904
Ni 9.139320479343139 7.20946058588571 5.315565638905974 0.19503900071914151 -0.6576496221095126 -1.4253987666812937
Ni 8.854724420947397 6.671447925751099 11.559029124040485 0.09844754004563691 -0.34731824187325344 -0.4841960608706306
Ni 1.7017487614516862 6.354679493477562 6.482269356365568 0.6524421097666441 0.7244880198903006 0.5321931575751995
Ni 8.722044697352159 1.609769364313905 7.194897181338894 -3.650859274024145 0.23914678967163328 -0.7066869871531378
Ni 4.0331833533693136 6.4033138781021695 7.8614026094605345 -2.00103122638705 -0.18977569543767314 1.4311379831579158
Ni 7.933538509540262 4.813207986602525 5.689509399824054 -0.03707685024763937 0.5149757652556486 2.3221219020223427
Ni 6.104464353806141 6.410848913460914 9.085772546415017 0.710140492919377 -2.034615490100399 -1.698364561784901
Ni 8.447990264778502 1.8364050398885647 2.7363323152078323 -0.9688320374921572 -0.9465986800152538 0.11742022449339778
Ni 2.4687355564102234 4.6710166728069025 0.3179784921390295 -0.6682713634894168 0.6805761489986989 -0.5354854551732262
Ni 4.948949978262277 8.572977199811671 0.49972966952808245 0.15203447213315752 0.6407993833213932 -0.38323063949914643
Ni 0.8653876754316028 8.319941061680819 10.275659489043026 0.4981975173560452 0.3701568370343238 -0.5644221928122345
Ni 8.033526201646758 7.738815379037922 9.105127008542768 -0.29633840839127673 0.5051963172713816 0.43608069342064254
Ni 7.680687963413319 8.961411984395042 11.037032125883284 -0.35340224328380426 -0.48280020896436854 1.1020897432384438
Ni 1.2619885081870128 3.839239709283395 11.836080867477289 -0.5983723245054339 0.3663508330246723 -0.2751761724913648
Ni 6.569112494795141 -0.07591733715939271 7.127260959393965 2.0479631150518984 1.5459199986975183 -1.2500937540559698
Ni 9.062067807715616 5.34047486971075 3.5971497875431524 -2.1472177243798636 -0.010557206690556011 -1.035561420498907
Ni 8.79706098533257 0.20980712062012313 5.190370840828424 0.5953890735073939 1.7385259644951347 -0.235329215697756
P -0.30952292044089125 0.7212309423145729 0.9131933917587524 1.9030313154017935 -0.06823656367989538 0.8581928404763349
Ni 8.28942973623802 2.9565826978879692 9.84346489381774 -1.4409991922227117 1.2383831504872607 -0.3114760353636636
P 2.24138535162051 7.224465699401831 13.290225768752565 -1.0434590780794286 0.5011522291089949 0.8519437742428295
Ni 3.853836520390914 6.464457163790309 12.184747925422851 0.30470734918126235 0.8216422950458108 1.9357198067737502
P 4.444037652025009 0.42271826750564045 2.503203703376382 0.5800221041330205 0.7669600730115824 -0.6525562667470052
P 7.345490245151522 4.049756719318474 3.795116138313819 -1.402365539010914 -1.1629891498269778 -0.9156899062515391
P 2.067968183167034 1.0232800727580096 10.979147835783804 0.6552119592022974 0.04898979963514143 -1.3544232068036803
Ni 7.3385398246050935 0.783420038944745 13.18011867263288 -0.07019317318563395 -0.11341033200305631 -1.4589022977553776
Ni 1.2651435722534823 4.18213021610726 5.2377292804261515 0.5169971665610515 2.3873510463344823 0.5670092368131202
Ni 8.741624653764662 0.6900932438585775 9.0611082970554 -0.2149979603395717 -0.8579840668996385 2.3980959435558122
Ni 6.999453953861383 2.688810554646665 1.1662796397306607 -0.8397325768886184 1.1705921589852162 -0.4797202844874641
Ni 7.344933469139793 4.886795216152828 10.901610280430278 -0.3674324961246253 0.8893705516307199 -0.10103149872272922
Ni 3.2960490322396954 3.2133492352974127 4.369686711378617 -0.3343948489433661 -0.6677262896192243 -0.03173101255469374
Ni 5.313684663946346 4.12937568899585 4.813643199851694 3.450648756406393 -0.49436271699098727 -0.4090013207053472
Ni 5.75661854047788 8.76859117193278 9.144893807220557 1.6109907630549223 -1.6714291708466376 3.097231086503621
Ni 7.9361089587944145 7.664383705869827 2.6912687207384525 1.5053541614600139 0.04453767740105878 0.2919392508823166
Ni 9.418886994432922 1.6174064752748005 11.372173238583889 -1.1252083315337784 -0.09691516256151052 0.9488090574030111
Ni 6.903549285840906 0.35723862464614453 1.7687363393429507 -0.8337051397476158 -0.9932366915887668 0.535337359631136
Ni 3.650798868113407 8.65254977148807 10.157771448159412 -0.9812520084230648 -0.015904587045398415 -0.11840341434227349
Ni 2.5715628061765416 1.11012785098768 3.5560792050378955 1.7822840834176918 0.4009313992130192 0.0781913608997621
Ni 4.321352057840324 6.505036855445224 1.2004341362102127 -2.6244957179744217 -1.8309375827593368 -0.8412484993125126
Ni 5.586430672892437 7.298971609371488 10.962930806482152 0.8588674979458563 -0.20499739748343404 1.9419313349011005
Ni 1.143617928093234 2.5608541475509363 9.37003639512376 2.2311791549941833 -0.1947708346594194 -0.13819139560247812
Ni 9.016922552764514 6.665444024424611 0.5618083389159283 -1.2207644089642329 1.0153826315581869 -1.8364328015459535
Ni 2.7163338488265136 2.223466443643002 12.838377908273237 -0.8807357587738575 0.6740946550394132 0.543696787339425
Ni 5.680024720464235 7.623915369417259 2.4795305153176463 -0.17808617491488682 0.5600425756873 1.9491916160079399
Ni 3.583948628305036 7.31230639485242 4.60056038036256 -1.1124296917118712 -0.11597963539212928 1.8980899122361181
Ni 3.054881502758885 8.044049268268452 2.6192998534622447 0.8200440973207554 1.1119823197618075 -0.35533776974362025
Ni 0.5578886357933497 8.773759909241672 12.573114968924797 0.014755818152935876 -0.07391870166633721 1.5350370332364274
Ni 0.9614129782546211 2.7278591122693228 1.3052834108591305 -0.6486476757212184 -0.5975752825254352 -2.8541872757704265
Ni 4.5264312221608405 0.5232478882635538 5.0375497450088575 1.1673481981266216 -0.9927360978032644 -0.8157153880384146
Ni 3.744662024090874 4.113637487064286 12.029523413152651 1.4177319941646551 0.20375838287001038 -1.4273103818817097
P 3.5282431883314587 3.6694044665053815 9.40542971822941 -0.36709362472796775 0.06398061661701884 0.7819850856655048
Ni 4.430990534150138 1.9986402901064648 10.929099240089402 -4.261602975610738 0.4224386771571757 -0.9270423551498808
P 6.927666966749007 8.751043447963092 4.918737455945773 -1.873394466371967 -1.5603379738950611 -0.43550039543714025
Ni 5.188539975709853 7.548741328233525 6.263822000003417 0.9430598136240597 -0.5733940572935415 -1.6075616827687154
P 3.0759554748028624 1.5710548722982856 6.0578018842230765 -0.01044639214430459 -0.5062062465931346 0.39149442216983543
P 6.5856765811441065 1.5766783100167576 8.792165068269425 0.9240339073408601 0.37021571529671726 0.3966435704709427
P 2.2106420361728234 7.583595506567818 8.745919252735138 0.05136009963953091 -0.154458765303934 -1.121809076044242
Ni 8.70437633857993 2.7267548398460586 4.91820851873463 -2.4903499531962274 -1.1212035812497594 1.9066496288806711
