# total energy = -340883.07578719285 ev
CRYSTAL
PRIMVEC
9.15644430537430 0.00000000000000 0.00000000000000
0.00000000000000 9.15644430537430 0.00000000000000
0.00000000000000 0.00000000000000 13.40138178849252
PRIMCOORD
 96 1
Ni 6.464834214421234 2.159419187232836 11.573808717306505 1.1246326615359663 0.5862423740111193 -0.2643248315991577
Ni 4.443549145213613 0.575412932426605 6.094264674636887 -0.409204952075721 -1.0657610840107385 0.14520639346773057
Ni 2.5504176697936694 2.0454306127070576 5.111956756779001 0.7085986023535539 -0.7731528320858556 0.4470271651298172
Ni 3.880720829770559 4.472089781955267 4.622766397320462 -1.2129932496592464 0.6589770826716844 0.08959703163354246
Ni 3.543214294545223 2.789071232846115 2.9617324708666555 0.2599675830717264 0.5671496190457265 -1.5385738427450921
Ni 5.21573955853858 4.869122361279895 2.4523320076493165 -0.5447892490726554 -0.6028504148814456 -0.787277958633328
Ni 5.158520938391452 2.7931183812066576 0.5565927769056566 1.0687600187380624 1.4619642245101532 0.7069942339809114
Ni 5.925263267384918 8.542422259350522 12.645382810202692 -1.601496450411242 -0.572133445413563 -0.38918608575163294
Ni 2.718081320540037 5.692396577101393 11.533685178582756 0.17563771337439427 1.1528749442111115 -0.5688357484988977
Ni 0.4864626547150876 0.464326950729541 0.7887809746699145 0.18393003529017354 0.07359140023390552 -0.8141053632388173
Ni 7.849462558160792 -0.07914006333711618 7.217059916693424 2.6893037155887427 1.0096439293021968 -1.101314041414684
Ni 8.936112736522213 2.8266218107343164 1.4876200287155363 0.3536063888748104 -1.0177035663818794 1.5961516411595607
Ni 0.5444247781356905 0.4036874830088869 4.700762820770176 -0.19725452031322158 -0.20946751743964567 2.201994048789795
Ni 2.0743008814418777 6.893255084650704 0.1334707409663363 0.3719920904708497 -0.04643977951977809 2.4340052558579113
Ni 7.654970525748384 4.267562286639794 3.660479960469731 1.1770746813857664 0.13572647900175333 -0.6003168498263145
Ni 7.983439650494409 3.6102211536005413 13.006791327510292 -0.3834710376447267 0.25235454661115897 -2.363675557094413
Ni 8.221662860666887 7.473608834397102 9.064868824341845 0.8260296254802291 -0.10837636912357464 -0.40272654344022907
Ni 7.038311474532413 1.1258580726597087 0.4457164777820235 0.7743195987004471 0.18430541635172126 0.44328878113330755
Ni 2.2463504689862095 7.057640728353918 9.271115899888335 -0.8375507387459511 -0.7574724452361213 0.39180115477697686
Ni 0.08443248811628719 5.229336878256692 1.077349062287577 0.043702068873640865 0.062039947950880255 0.9442767167502962
Ni 6.829755143744906 2.291830527598913 7.071024702920898 1.1047546916651168 0.13028396782994334 1.3099930015147634
Ni 3.7559459639128367 4.8063274665817035 0.18126005482005508 -0.4675229710903238 -0.5578802779286586 1.0223528922284326
Ni 5.965643186547798 5.829889744028784 4.542264770722683 0.7011295476700183 0.30774356490442484 0.5177661835165922
Ni 5.647475061588222 3.2166130844271414 9.392519362971507 -0.05161720995565949 0.28623731540153285 0.39707911534646456
P 0.6227316050456362 5.876651704837134 12.47715512249024 -0.8226794780610734 -0.21973367525234416 -0.9338241539584048
P 4.536477897953763 6.56619605231989 12.600059326786743 0.2487184925204684 -0.19160374978534744 -0.2598220586327977
P 2.616389850648215 8.825548672147663 1.1157667554466908 -0.6528061779742821 0.1862579120924018 2.2076895565126753
P 6.4394708638359335 8.2605228100835 5.881478066603745 -0.5602636905591707 -0.17057161170539656 -2.174470389448229
P 4.7504823130727685 1.3234083574531603 12.529528152337823 0.020340511329564968 -1.7832451617793803 0.24593013114205384
P 4.382750355362929 6.766465801056965 7.983672224178476 -0.22123134284379323 -0.8683507548459432 1.340178266848892
P 4.640440166020732 1.4520197734535691 4.200019775595581 0.8745216595433455 0.46110446915848974 -0.9112573244014822
P 0.14967032214161205 6.143937469073782 3.4049831182109096 1.3429789695224805 -1.5929387906492178 -0.16069291913910388
Ni 0.9249199034920474 8.106502261276518 2.931096839679544 0.3601809567685345 -0.838662226642575 -1.3967723611938525
Ni 2.2691866409572348 6.650838223009608 4.7690424255768855 -0.8973954788177254 0.0678714670309928 -0.9882191837695175
Ni 6.028163387918352 5.891448518752603 9.695243313406813 0.5158473692273245 0.2950479717146273 -1.2993987709386847
Ni 8.96844414118528 2.941993008342543 10.300663744944664 -1.1117133823711371 -2.494490200616846 1.2455207899733067
Ni 2.437866657015866 6.04898514215336 7.101110947452732 -0.09841771524896598 -1.2083956029862348 0.029617308645800602
Ni 0.5312486548532906 0.5512362570167032 9.724417576090888 1.2425028290825892 -0.958124421266666 0.11318150382170185
Ni 1.923045578799791 1.3298544942084138 11.565419583080422 -0.46142045773701185 0.19286976098196462 1.3761246030365137
Ni 4.50308434575716 7.30990076756873 1.4638865252075581 -0.9017028479438276 -0.06650852524519513 -0.4545715531359784
Ni 5.80051587085996 8.709179422115682 7.893266071830474 -1.7573235568176124 -1.0379119230089542 1.778563440032995
Ni 7.304159677021084 1.1820420146060642 4.953753544236507 -1.5932336961818174 -0.35428413166812533 1.2595834387139597
Ni 0.513850495125085 7.5811604286118826 6.810729883872654 -0.03311092362135588 0.39339498162665804 -0.4008897473418064
Ni 5.453330974057489 4.613309621694289 7.395954861962512 -0.05420682505970664 1.806545784178534 0.7823499252040913
Ni 1.2094472522601456 7.944195130419103 11.471234566188539 -2.1681830137776203 -0.8551334848247208 0.8890188247182561
Ni 4.957884931884192 0.9115945301682973 10.111691217128941 -0.10304184428453868 -0.6017592386997959 0.07729533144805398
Ni 8.112930085143262 7.411583081016299 4.561066613355123 -0.47314083149773345 1.3544334912163254 1.058763312536667
Ni 7.226357370189567 6.405820931200202 6.707860895249688 -0.4465926486955599 -0.06510727402229433 0.9933354219501602
Ni 2.5100285941865352 5.356107848961922 2.250306052904206 -0.695688322049789 0.4337738996643368 0.7126784288498823
Ni 3.7600938331601803 4.875953068693843 9.32498967094925 1.2429671703135174 1.42642772216644 -0.17491780448923422
Ni 1.403197612687929 3.6271422625830807 3.932608568072647 -1.552873547197216 1.2865232005275973 -0.6558117975698253
Ni 1.5326697344482725 1.3269152756026803 2.8437333737573525 -0.2529705829286031 1.3484693032130906 -1.6955183505853573
Ni 1.113771566243609 3.678619792182561 8.491115039614177 -0.690739719795262 0.5861158757355841 -1.3354826611454356
Ni 4.854838308242686 2.9323970547637 5.994705740611965 0.2547945235112193 -0.9800520745776928 -1.378438595881671
Ni 4.4046983522412555 7.164249208810472 5.850051318633034 0.3248079765858793 0.7093334236370494 -0.051041797068163704
Ni 8.483949206340512 7.470468174017768 0.037263981183031744 1.3495103428830952 1.421018892446043 1.5620886380375807
P 0.420288116442515 5.949015083781405 8.245226969956155 0.2397198885662839 -0.41217097668258046 -0.4303237363322073
P 8.883911847826617 1.8791678979316464 8.219563287999303 -0.9618651192560208 1.301628688710468 -0.6880997110692536
P 2.1633106760410503 4.04628765478262 10.309937391685743 -0.13264166942884253 -2.0949955338503536 -0.23483607811142138
P 4.058841139855705 6.3756962296024975 3.4872134814839604 -0.14353054842720442 1.6114738733389278 0.8318644869944513
P 7.028431671181676 4.275098040261348 10.830487657071934 2.3742034532089304 -0.24564422447051887 -0.889412460612249
P 6.6045249279697344 8.00071786080288 10.32077953732764 -1.089655631240149 0.1826030889486339 -0.5534150430684533
P 2.0907092295461593 8.953775517489378 6.194199022876248 1.6056462109135572 -1.2816249918950315 -1.442612816566735
P 6.882001814661774 4.311320933732629 1.2977309408299265 0.8529092234798923 -0.3409827865735289 0.5643070073906088
Ni 3.0479880070340375 1.7562701031461212 0.6134451392825994 -0.9800996399861764 -0.406895330105938 -0.6110126389772638
Ni 1.5521546478221062 1.5051912452401544 7.2157725206312255 -0.20241549568887074 0.37049365154845226 0.7991173744704173
Ni 7.445022415434175 0.8130171669674713 9.359578139121082 -2.137753750753486 0.27929482264542865 0.9085154999902869
Ni 2.7774883308640197 1.8034898861672026 9.364590376706062 0.11867826527021498 0.5783583432773524 0.6691175135397961
Ni 6.120725882888316 2.50591735071621 2.8387211361723725 0.9192873937948104 0.005836918396751238 0.2922444408275612
Ni 4.471284014860861 7.641821871798748 10.327989321533728 0.0061801606687829054 -0.972031004045429 -0.08948518864602653
Ni 7.890144639984074 6.507301802874167 11.494364660020135 -1.325852337144523 -0.6483296302601673 -0.8647895198572462
Ni 7.874386399421871 4.506893426567082 8.543581465193157 -0.7503075520565659 -0.208988263810382 -0.7682268555391479
Ni 3.4799157954130275 8.427710325728627 12.543264650008604 0.44669574993232747 1.676399113257403 -0.5418023985301894
Ni 0.17402096999235156 5.108508439872711 10.349149864206158 1.3389870747542683 2.0736947154900482 0.42259037224369156
Ni 8.865379204655264 2.9438700794147405 6.136452075895629 1.072605874846714 0.3002328583496765 -0.9636664341308178
Ni 3.7711273484869987 2.9657997634045583 11.661667546862873 -0.9881736752435626 -0.48322084144155486 -0.9615506733393956
Ni 1.521031893800649 3.7048987871933234 12.339590535297662 -1.3264876567356767 -0.41552060988110373 0.8406172934864167
Ni 3.3240548013108655 8.902783279435392 8.157233540669246 0.03885373964240406 -0.12860040947993337 -0.2825398119452876
Ni 5.698760305858355 8.108919562559738 3.549797777964296 -0.21483855194357193 -0.03132812068932024 1.1912818261240838
Ni 3.113172733682686 9.066015211162524 3.7956730286003615 0.2733360339588325 -1.2015161022575824 0.6524845329688053
Ni 3.223278975844505 3.371494338994058 7.653770115906603 1.2817993126893668 -0.4759998982130835 -0.6276703021386029
Ni 5.196135611389435 4.63094493332869 11.686929260916946 0.41127983232687876 1.5254972120667922 0.5497481357398274
Ni 7.923803729064061 0.2513526355891801 2.9447262069525473 -0.22884412219404457 -0.5941996811849831 -2.1303854833138733
Ni 4.841204362747555 0.6224962844282924 2.0879082732486705 -0.33473577722255254 0.11339027739839826 -0.933109130169251
Ni 6.5227120985546945 6.322250064488274 0.21359786899410063 -1.4344943012246585 -2.029638862821414 -0.786660379653987
Ni 7.873544006550445 8.96243751375425 11.640011640556267 2.309211621718578 1.3702378052384336 0.09077176866793399
Ni 9.125028494383557 5.43555831575927 5.693697707829974 0.9830551230700747 -0.9845720739352335 -0.44511220749529146
Ni 7.3826395607274415 6.711838454633894 2.3271093916675425 1.2827902158477262 -2.144276125253036 1.6559197623571287
P 8.690903159383458 2.1727418136233103 3.709248098214269 0.6322052138944789 0.8560523970945645 -0.43725851577882763
P 1.8941569971764611 3.5675521233740066 1.1645010143474865 0.139874696842172 0.09949655013544155 0.8986671464412974
P 5.035659769382945 1.716906549295505 7.9846904207795895 -1.8043374636733054 -0.6426091828366224 0.3144472021768456
P 8.973095614866628 1.637721619381541 12.159985049954416 -0.3913573823713389 0.009323334283454911 0.9406051814359802
P 6.560372553773951 8.268525542362038 1.354866237334337 -0.16029594081100138 2.5756172471061642 -0.11617992432839346
P 2.10301549062437 4.056423838572485 6.0121277070952335 -1.0809205653599965 0.5437173561647153 -0.6113155149296633
P 6.790135209455161 4.197900058750636 5.732668450222068 1.076998347487455 -0.19992949604222343 0.6718994471603074
P 2.7319350206972794 8.842332434466382 10.460395168033253 0.1983161288085165 1.6295142757804064 -2.1027204132984365
