# total energy = -381173.2191066641 ev
CRYSTAL
PRIMVEC
9.19966826677443 0.00000000000000 0.00000000000000
0.00000000000000 9.19966826677443 0.00000000000000
0.00000000000000 0.00000000000000 13.46464442514480
PRIMCOORD
 96 1
Ni 6.243060284014308 0.8578662790645828 6.365424147825238 -0.1469604000443598 0.8242257395022708 0.3582338603444927
Ni 4.320900055990027 8.48075992402207 6.09925475404664 1.2865432551322553 -0.17424186146813217 -0.47888493307036234
Ni 7.3950243089056364 5.578283076243283 5.247467615582037 -2.0260580874486913 -0.5983856942418726 -1.897095409533333
Ni 5.575339182490266 8.470152706843233 8.07945936721243 0.670821126494464 -1.354126501498868 0.35039250992320303
Ni 3.2226804914272065 6.119922728126412 5.204771956495319 -0.7491333292428066 -0.8130360414340385 1.448653623444176
Ni 3.1699755935802325 7.465383369602732 10.154536476369964 -0.27710270009011634 0.5188326771078935 0.23386471533708755
Ni 0.9049060213705957 0.2815070802318132 3.2640992365985535 0.05074509176335131 0.6127561040309318 0.09065015548840517
Ni 1.2171804711886232 7.112428907952005 8.849354741202495 0.1176714212722554 0.6864457204055984 -1.9751841834169597
Ni 7.832716912303348 4.374736512998317 10.323140631339603 0.7110401219155109 -0.0460451151845207 -0.1122042275100971
Ni 4.316162226981266 8.664771682921561 0.9707876036627124 0.5579602392369746 0.6723715017007194 2.4715454188952144
Ni 5.195172102960092 6.300530609873977 6.828728626874194 3.2413002810431144 -0.9269814200049582 -1.536946077333682
Ni 4.268931131581307 5.893003717776707 2.7572490491416954 1.5442698646886048 1.1414253076132728 -0.6105066458751228
Ni 0.33897372622429167 4.815437407824893 8.883191120026229 0.0053851755713133055 0.2778516624409989 0.5698757597276378
Ni 8.240740586471441 8.448055104359652 7.950508541129125 -1.2946725691076089 -0.049583467355082345 1.1928630545682746
Ni 1.4615604513609086 4.92287113047404 6.936473298301004 0.8878973095193031 0.46793666158897473 -0.36889031161707436
Ni 1.989915782683552 5.506268075310115 2.5891168371393367 -0.04854602722950349 0.249361525421106 -0.18537859481124203
Ni 1.6422603297882552 0.8497972502809239 0.7682780723595025 -0.28846774739394837 0.5228402556053898 -0.4673262816984855
Ni 3.2450540839501323 7.982929091051017 4.162231542436818 1.2736203764230003 0.8102037141915659 -4.25837187026795
Ni 5.927162084979676 3.7243383862771817 11.218539715821551 -0.48832602387860413 0.14433298972384176 1.9278080081258413
Ni 7.5677296758599475 3.3454684599319306 3.842108855866608 -0.13094088468765192 0.11132722422178247 -0.2323485358028773
Ni 7.219191054838745 8.584035396745083 10.475681246052549 -1.629758530580729 -0.48577086155691823 0.2634987361534365
Ni 1.4655163085915246 6.600826172017621 13.31676226964538 1.4000332913333116 1.257130863408409 -0.8381017261534148
Ni 7.697610588375846 3.6152303240560055 1.3428102171318061 0.40848530030087715 0.5327066068765084 -0.00864893392424962
Ni 3.056690882096964 3.439360271317202 11.888957240029997 -0.049373151116489156 0.5745361413177846 -1.5190751105905322
P 7.545963261423582 1.2847796314922653 4.708034044080073 -0.950732242567653 -0.27643832703324 -0.6894901636588772
Ni 8.739574183252117 6.664644268782232 6.5174937395377 2.520674058101066 0.20065840378844796 1.4992269655163535
P 1.7269248741914152 7.478676889831197 6.601432430137383 -0.9501730276300733 -0.8186718995635771 0.3303870133355536
Ni 3.8082853565780437 1.6537691144289541 6.609187750242985 -0.0746866901806133 -0.02584498608756194 0.2898162910020428
P 5.067232320387589 6.668627725016783 9.519624150756492 -0.1780074991581515 0.3814568354281753 -0.47523936589797505
P 5.357583041446823 6.7082322956628335 4.687096519728541 0.0868022424972247 0.04610964987386897 -0.5190944154097125
P 3.3028739971929726 0.9158573061318173 2.377196045494452 -0.34740077428473076 -0.6256586710252129 -0.4116492998511556
Ni 2.4217849962510787 0.8517337803903301 9.927011207900495 -1.02867754889488 -0.4596101440011504 -0.43715747142458905
Ni 5.698237547010727 6.738177214931799 -0.006303612498646667 -0.1631519222025577 -0.7743694781017761 0.6129502223196088
Ni 6.981149645903423 6.141744340570647 8.40506137603044 0.6613083019080224 1.721798624438125 0.6711831378195731
Ni 1.186508778149382 8.542094110432574 11.933242601743343 -0.120559798563644 -0.17570661893911674 -0.5088447126572462
Ni 3.2721287068099065 0.8770439069318898 11.961908767163342 0.5897591289151263 0.37544148247203085 -0.00989360496462812
Ni 1.0354318306117645 0.5084306904155085 8.032239311414045 0.2018331408228395 0.6200261553297838 -1.707286546864879
Ni 8.402535147203634 1.9066863864849877 7.174190878923494 -0.4338831715486915 -0.40229922609482327 0.5029293756140758
Ni 8.955977973102765 9.2117195432281 5.8790671407565664 -0.08183692807214939 -2.718736419027563 -0.22391351766164666
Ni 3.988930036997521 4.238471030905564 4.290373717704841 1.453242014145807 -1.7815587752158932 -0.16481259773443227
Ni 3.3473727912034135 7.994235482996197 12.676720209167277 -0.828362901599096 -2.453878854853387 -1.662820346131704
Ni 5.055962727114323 1.7151033008394583 4.291020454363707 1.9041505166079011 -0.5593118681688625 0.06483987929352059
Ni 2.1635135174317464 0.00029346940850383637 5.487367357448951 -1.4665932386417322 2.533491778691024 1.5054534060420395
Ni 5.1292012838885865 4.49833405228512 8.893060523833217 1.4911997243365027 1.385612230811975 0.36134206695617127
Ni 0.9687802361098743 7.290985263740436 4.2488758553888815 0.39117406271593924 -0.29518449729249163 0.6859261004567025
Ni 5.496056443854339 1.548175325375442 1.8323631888560958 -0.19602424745054628 0.34507366881345086 0.3717246957420759
Ni 8.72926135544858 6.888996571766028 10.255736503997097 -1.076522950512933 -0.14541773814758827 0.26163211525834296
Ni 3.6429305243382957 3.1437013418345594 2.1550562626594085 -0.28303372086257067 1.9784119463256378 2.0044042566243414
Ni 9.068112726088762 2.328113976897283 9.434205233579123 0.038651908044243115 1.35564653768782 -0.46706762872046015
Ni 6.593834424354207 6.264173522024223 11.005502084484116 -0.5749269489983002 0.22955940309351433 0.55347237866895
Ni 3.0926523842236575 8.662609760946689 8.06557798820016 0.2955210546963039 1.071759467686019 -0.11659541459925726
Ni 5.5965812158518755 8.385322568416466 3.261796559703616 0.12500909258424922 0.11515045462261458 -0.2667478392183535
Ni 5.990483399673467 3.369139205639779 5.832910566576458 0.722909105438955 0.07698834173059645 0.36264098827325286
Ni 2.136236501876452 4.440560137382171 0.44039914571689187 0.37808483363214884 -1.1277884335561286 -0.04168246734045079
Ni 6.978950925256639 7.941447788137419 5.632718431636952 -1.6472073221847956 0.05844811683456385 0.5770923320807352
Ni 4.50933685518702 2.4741311070469036 9.94397631561905 -1.2009044368155124 -0.7181988444474792 0.30195935412248
P 3.4989557204798305 6.264872696790564 0.7205833136934432 -0.042878544531080996 0.3921104584872795 -0.28979366529422346
Ni 6.864893441663204 5.790022634428996 2.1899165645291134 -0.12003503640842554 -0.21891966399148105 0.43173552907806934
P 5.558034607023315 2.6423102373559515 8.061875121838943 -0.4828279768785104 -0.4853605134923769 -2.4315087146883028
Ni 5.640813219490949 8.85413764858435 12.38854980941887 1.0482277031126657 -0.7406170642416793 -0.21738600095577398
P 0.3399139322916614 2.620332230556088 0.24414538863884203 -0.44774244602928703 0.32540395829866536 1.0638553823475936
P 6.469362916609476 8.930301699775674 1.0646389365088798 1.6804617133625508 -0.372016773061198 -0.05514476349294375
P 5.418990825201152 1.6565474141583636 12.072776725868744 -1.8627722107714306 2.208861465333589 -1.8403781593469466
Ni 8.403418315329539 7.36387423313153 12.89561434913962 -1.0918469824645132 -1.5469486970723487 -1.675766621879727
Ni 1.4413855794847672 6.032056699266847 10.974788992938972 1.1303392250024404 -1.2321423117838717 0.6130422678127829
Ni 6.949594784738277 2.060054051349171 13.360926195741413 -0.032585647245505174 -0.478764348332098 0.3039033652227282
Ni 7.325281625963079 4.007274174946005 7.889850530315017 0.36253223060953044 -1.0590700451438084 -0.04174803047106358
Ni 3.929877368245605 4.061239427305989 6.60555204145801 -1.2084115438258352 0.4454729332688199 1.2868731276678484
Ni 1.5965195806007606 4.131819280034561 4.5602321783426865 -0.12531685363265516 -0.31677225076559634 0.550651107170071
Ni 2.922357330279629 2.0765858547059546 4.1211909036193735 -2.6953774325866484 -0.5750159091676806 0.9393288858267176
Ni 8.520162101972602 0.4831490828446811 13.079878178941712 0.5124578839298013 0.07380197358281484 -0.02712282435872103
Ni 2.116392818047525 8.035551191886189 1.8633182316690649 0.5752897316543576 -1.3107514769473425 0.282122779012527
Ni 0.3672581054231959 1.8824544610304703 5.0143011107083515 1.661984223383654 1.9895931597534382 -2.2837273614045444
Ni 9.1674139422452 5.616857284075778 1.005403194364198 -1.833570906617126 -0.7960783305337774 2.3096078287157322
Ni 8.69287666859489 3.8594723092086185 6.007479786263149 0.4266218620005878 0.781761656800789 -0.20802050058047397
Ni 6.676484241470146 1.1252573887506816 8.92196956048784 1.0012672752027272 0.05330513918104368 -0.05431892515753871
Ni 8.956125167790416 8.241283366882152 1.4169926598406317 0.13187110981140515 -0.47449451731215053 0.9837210387888478
Ni 7.9236832292715595 7.499090953074771 3.5624214699608783 0.4557671161059763 0.12129282007492659 -0.5780690941717077
Ni 0.9639044120814406 1.7632635627052131 11.75308550372671 -0.07559274693465044 0.9372969429983535 0.21233224058195047
Ni 7.975339364969022 1.1197743866356882 2.226958107676444 -0.3291467131705493 0.16420864560184625 0.6212695408185817
Ni 4.605813773274159 0.15006314412642252 9.992031701269855 1.1324781257223142 -0.7270120718637351 0.7670184370533436
Ni 0.09389733118605818 4.503780255728201 12.33020735503487 -0.24868429684842333 -0.7940314753070776 0.20600321304012909
Ni 4.026243890317006 5.751310431576829 11.52652988026214 0.4934530606925244 -0.2920091848883036 0.39468541830330733
Ni 0.05580334602202415 0.17096018993885084 10.000661909800183 0.32460614498771834 -1.44936530479922 0.8172292535797796
Ni 3.580989159841232 2.248647244901793 0.25211966084232557 0.258665062210219 -1.4446817832806216 -1.1750586793970021
Ni 3.023084494972685 4.878280339783818 9.165046867674416 -2.242034352541132 -0.41229336119305765 2.5020479583594457
Ni 3.3176578636339027 6.372453614127363 7.658097094442779 -1.8060727011968574 0.8305228853648923 0.3665063847659301
Ni 0.5921587086184902 3.02406885944635 2.585844515239499 0.5488330801247258 0.045293067509844576 -0.80662448148074
P 7.087056223668194 5.097434830359943 12.87951125031062 0.28575266245563047 -0.2683488651568862 0.24898048793260344
Ni 7.6601955387086 1.6161332727302333 11.099107786195265 -0.9201618259799637 0.5317234170276327 0.2663824854591348
P 5.703554955102114 3.860383076338458 2.67978692479865 -0.059859909580425946 0.048767913432322466 0.055192586011743656
Ni 5.39433571501964 3.80749418513192 0.42415805186821876 0.08297746943449581 1.3233059165735856 -0.3095988729456087
P 1.5116710428380369 2.7683180896530377 6.556607967880514 0.7924204220662159 0.09722009539643901 0.13631346185347493
P 0.07772799474761484 5.394712901406744 3.570742569647139 -1.8266597813195897 -0.1765435130181153 -0.28941802712235964
P 1.3962336090478757 3.5556164755574207 10.433241337735625 -0.15372625801328363 1.2072563471754691 0.5006220676371379
Ni 2.228959955428495 2.7786401171245525 8.607273758057957 0.41523058944451063 -0.4990341543247277 -1.248849340125907
