# total energy = -340898.2204681927 ev
CRYSTAL
PRIMVEC
9.03909864511238 0.00000000000000 0.00000000000000

0.00000000000000 9.03909864511238 0.00000000000000

0.00000000000000 0.00000000000000 13.22963455321921

PRIMCOORD
 96 1
Ni 6.411044012120143 1.7808741827347467 11.336010486289137 -0.12473012789124968 0.42548132063824134 1.5247186820295546
Ni 4.612751486230015 0.35681480473345734 6.029432247979235 -0.5698055686113348 -0.39990064395565966 -1.2178348940222639
Ni 2.661029299354199 1.5555927263457787 4.775170530852459 0.5202714664369492 -0.06564797701711275 -0.16437371042480078
Ni 3.714210842896478 4.478701652813156 5.18395292171405 -0.7959803715033323 -0.04560725631615371 -0.5903031743440543
Ni 5.1308093488477144 4.339336829372755 2.7351869688306154 -0.12690271006253628 0.4892827313649186 -0.40518708916557955
Ni 7.182151442270207 6.101626625222467 2.770946547116552 0.6141874371608197 -0.33527262356262905 -1.4131505454415598
Ni 5.200961793699249 4.5762968012556255 11.551402264812872 -0.8153793448552344 -0.3623496822850792 -0.21256106876330488
Ni 5.7698917036851265 7.827705791762135 12.346344894270889 -1.1373102570036349 0.3552266980870527 0.5716832452500219
Ni 1.7585656871937616 6.551294667231133 0.3172542854527946 0.4248372592963393 -0.13261055908059097 -0.5486726432874616
Ni 2.5430329051921157 1.641211069037923 0.45057737533582326 0.9360008498947493 -0.8103078438695981 -0.5718169426144087
Ni 0.40688689186850086 0.3599558915245807 4.8504870127795865 -0.02638491775143198 -1.1247612166940306 0.30929548277257696
Ni 8.612606886497106 2.3971870479985196 1.4715987096863392 0.2993499415240909 -0.018379530948452214 -0.16929660164771487
Ni 6.8324377534593586 0.7284953111552065 4.89821887726651 0.017579403644660048 -0.24361073898025787 -0.44895652094204613
Ni 0.6089152669044768 7.473201380651157 2.3500589953033866 0.431203053613367 -0.15792898324072155 0.6523703759884443
Ni 7.507423408251712 3.7601204250896156 3.76032561262964 0.44584214368278047 0.7083515193397543 0.46374782031860784
Ni 7.599685488473281 3.730680080690511 12.643349790861885 0.8980459679175309 0.06160131775156487 -0.6662885287314332
Ni 7.794667886088594 8.582868251841578 7.111630202192551 0.09583864166788011 1.0374696932652132 -0.4952641457593341
Ni 6.896109164557698 0.5754986229962644 0.37826006635055104 -0.24209044568098953 0.6069232993992386 0.09688945152989765
Ni 2.0205820406161834 6.497539147384197 9.194979744039124 0.35090184545945374 0.03505673449381705 -0.5561069880783197
Ni -0.05393178227118636 4.865547958999356 1.3055305809269846 0.12071766429774695 0.2788664768587585 -0.004170586437921849
Ni 6.484242633226665 1.8866225981861184 6.98241628656922 -0.33010084955370245 0.0930461665244075 0.10928962496646338
Ni 3.481896967734865 4.3786569086285425 0.3432362706971252 -0.18198936662403495 0.02136483882902127 0.2555954221459598
Ni 5.937910469939515 5.620592910795964 4.740098827976032 -0.11936474981427828 0.15147011498925525 0.9625487755866068
Ni 5.271548115287398 2.733233619605977 9.499657931499142 -0.022049523600871705 -0.20799916042423536 -0.8728162468164646
P 0.21917825696057533 5.453704031876512 12.296323426088449 0.039606301537712434 0.7601919010498134 0.2984374570121506
P 3.997496195511743 6.212066332888495 12.53190403151283 -0.08418820191314533 0.14074964324795758 0.4617606146852499
P 2.4095525349920637 8.491853567237778 1.2759519383180844 -0.18312270889752977 -0.08310191082750204 1.127354945563136
P 6.184334378139814 7.746182160771801 5.790954611428078 0.6437322406974719 -0.7200855199472309 0.4250804856553969
P 4.534382500678824 1.0001762688857405 12.665007471297947 1.3624630463890213 0.464374141048697 -0.4904286720439038
P 4.083467063052387 6.096808785626298 8.222152172118053 0.00985015332120239 0.2741675287211923 -0.030893090034430665
P 4.771089377798669 1.0674904367519142 3.8002919874410113 -0.4092525174842048 -0.9398505626581427 0.1750083073205115
P 0.20267105495208787 5.702902943371415 3.535619946826555 -0.09283867849929173 -0.7745206589676596 0.7615630703657271
Ni 1.3862090561907865 0.9920410800741982 2.5368356991374563 -0.015036068397516039 0.8296597660336485 1.3627594945835175
Ni 2.0394918350536795 6.413303786790015 4.782314130538862 -0.5995324062518061 0.33509778854766165 -0.6919064864098535
Ni 6.126918023327684 5.5863618440967295 9.32840045618789 -0.4226955303629881 0.10630688818905563 -0.3100058785760403
Ni 8.570312943775765 2.1889352535217133 10.193472932750744 0.7651603007986822 1.14826598468419 0.08415863422679055
Ni 2.3453839734663533 5.319328790907191 7.04695002768158 0.3266941378649987 -0.4517603089394285 0.10485035824818716
Ni 0.6267846610839637 9.03991219837271 9.077711901230607 0.05989487658341943 -0.01934395174425056 -0.10319431070200293
Ni 1.4541921173592425 1.0430396748238895 11.318812697141535 -0.07077141428660715 0.43412716923869754 0.2857022688336692
Ni 4.1262129607077025 6.885162816056833 1.530787631749518 -0.06337486471221988 0.2191037549778291 -0.2962065107991028
Ni 5.6185048790010015 7.829097812958778 8.012263396870392 -0.6180757164716323 -0.1801569414009865 0.34068299594492296
Ni 5.302281050797669 2.852838973333009 4.920682845304782 0.3302494593164248 -0.20755641645986192 -0.03813511630882464
Ni 0.7697994725711431 7.422446841565812 6.884715380672199 0.46243681481666815 0.2522244487911979 -0.3505151515439963
Ni 5.220016213715617 4.4300893801148495 7.274327651054324 -0.5028751253373727 0.09554013659085482 0.05607730260954213
Ni 8.170215318925429 7.1541483145611435 9.131358047983522 -0.4960159363236941 0.14362722190606877 0.5039981831982223
Ni 4.673656933132429 0.27935063296008267 10.463635321903123 -0.9663617215747938 0.1823475212944021 -0.24239229319212446
Ni 8.098688931074614 7.241411773212954 4.775620677966698 0.3486475022076383 0.1751450900086919 0.3478628015228138
Ni 7.2387090827077865 6.000786440354059 7.1290268515111 0.4886273571691068 0.0367883724729431 -0.7534553536569282
Ni 2.128056923915338 5.276600971449234 2.4035333991813905 0.8045004931592016 0.6007667928795395 0.7317537003137784
Ni 2.351024371042356 5.320630421117038 11.276067703396087 -0.16219521471624324 -0.6433771713508983 0.8384274849239497
Ni 1.0188600858562495 3.3901410770393468 3.7253596672077625 0.10398209671062092 0.010863167966749035 -0.09377584560158043
Ni 3.596178292339677 2.526319611733736 2.6544199103997546 -0.5711991065247518 0.6943477488614945 -0.3153347469881215
Ni 1.1292455589302006 3.4860639922261107 8.230724853305682 -0.37706847655249254 -0.5215338780891405 -0.25477652578909027
Ni 3.6218945280828305 2.6837174370397228 7.170422307823699 -0.05917882435300131 0.6127208799176221 -1.086761854632122
Ni 4.0499681633461915 6.814251086916222 6.055124078155954 0.840501850954475 0.7476893977074284 -0.035593837944209665
Ni 0.7760138529132937 7.327979221266445 11.075453043393585 -0.5267470468589639 -0.05120557633953762 1.0747602021855553
P 0.33636836352044747 5.661865435366523 8.048632210407325 -0.6469170661833569 -0.8087212161087686 -0.6857157842181093
P 8.587740326029824 1.6324883388122136 8.043022545766833 -0.1587964734473394 -0.09849484834380456 -0.9130768941087243
P 1.8851221078053229 3.276881170585317 10.432783974200149 -1.1111801355754862 -0.5784871555457327 -0.7571567137679153
P 3.955925380684761 6.046144637527748 3.599095209483549 0.02874596178444082 0.3738653962341626 0.510745786334701
P 6.954682524000803 3.866130974402692 10.511302104879553 0.06800490728506353 0.11801157822049353 -0.9627614058180451
P 6.326591713157653 7.849164612027249 10.247543013231725 0.7876605387837273 -0.9678102810958622 -0.35610575825789637
P 2.2855632184054784 8.519278192631354 5.660166988724646 0.6749994262418698 -0.05136909850059541 0.34378297502648536
P 6.9401566924228595 3.9490827829843864 1.4880959686862794 -0.6715957998769594 0.473681791602868 1.0468704177538228
Ni 5.383370805051388 2.960594068691228 0.2440466252475925 -0.2858063985117013 -0.8778597227776431 0.20135902939989836
Ni 1.562489558638231 1.2534427747864143 7.039872413415539 -0.5724121529962465 -0.31614284471171356 -0.3759364198305784
Ni 6.861887136957142 0.6696562022109241 9.159921599810716 -0.28339007576072484 0.012634400934558887 -0.2085627462371892
Ni 2.8477861171711734 1.5937648400692717 9.131979937972671 -0.36263893139072384 -0.5621385389843803 1.0240845302075587
Ni 6.257894563193517 2.0483863081542997 2.5180226230558302 0.4411897325124337 -0.25538022081136025 -0.05366277963077854
Ni 4.2476351732693125 6.802789509790627 10.405861922693152 0.007424574598845277 0.514036798381147 -0.17255624623559315
Ni 8.195904437372544 7.126407320713784 0.29041448974378037 -0.035188374975674876 0.13977673781172703 -0.1889097478929521
Ni 7.41731263351586 3.6459566087676367 8.304744224572302 1.1393386002875734 0.28796921049097507 0.28225416238406875
Ni 3.013517991459651 8.40935371359006 12.416183682398245 0.737543310412362 -0.4403960329665448 -0.5481879903415592
Ni 0.11124961090771027 4.832067137490519 10.07142973410985 -0.43036127443836203 -0.320566427700706 0.8696005680926442
Ni 8.643954480717582 2.511061613162754 5.8717614418931285 0.12596991383562176 0.351684232151433 0.05183446817278815
Ni 3.617935402861213 2.6183014798962416 11.4943565130466 0.48925496345077674 0.10203551450721138 0.18697422143313605
Ni 1.1611897336635237 3.3161741325450667 12.633229615980326 -0.8430816958665093 0.5647206978892597 -1.1763172343944515
Ni 3.161741131605954 8.370232494505219 7.868232590691637 -0.4484530989430664 0.0975311988789546 0.3465196572313581
Ni 5.633437470019522 7.831457017714125 3.606398801216578 -0.8924191086490565 0.5264045759178806 -0.20212444681101316
Ni 3.051355658532003 8.355932640394263 3.42602539488706 0.4240278760211665 -0.1668802788967384 0.571905388563157
Ni 3.451037484843081 4.173125882854264 9.208249140900618 0.11357102595063667 0.8532828047692272 0.017035615326048078
Ni 7.220630885348804 6.063454511498974 11.452921284699812 1.0129400835549651 -0.07170652450636683 -0.31963697390790113
Ni 0.47348335529952285 9.172786948961237 0.5807006242863119 -0.9182255281891993 -0.021172520312557085 -1.7036355803758527
Ni 4.550571526413793 0.46790713532414446 1.578454414725949 0.08678938698141828 -0.8950040957674135 -0.09337861016316176
Ni 6.057190416114086 5.669883115895232 0.40738675402547675 -0.32071092369837023 0.040674080680594464 0.3220985480745162
Ni 8.027831436526078 8.93839408110334 11.32262267723494 0.15330793952894242 -0.7933172228488725 -0.026362292043612665
Ni 0.2482000910908189 4.963296772119377 5.818882714618103 -0.725394333754654 -0.1282687371721275 -0.3955148561831382
Ni 7.781163472661434 8.941720469417392 2.655677249026071 0.1981189251960459 -0.053668436057733374 0.17142444662399509
P 8.406397928321866 1.7762552033095265 3.637117274168962 0.050142939402978155 -0.146043030436413 -0.17338722677732074
P 1.816406879643828 3.386245225508486 1.4645735221926384 -0.2741101931206956 -0.48235257990398867 1.3247454772335894
P 4.735529563593548 1.029309283929742 8.039318323127977 0.5421597818696081 -0.12969132855126697 1.6991832010314543
P 8.55402448795532 1.6806576956752237 12.464300612488913 -0.05611432649506465 -0.515496413645809 0.23328621712579825
P 6.355471633438628 7.735588337119437 1.4147771275673195 -0.22128507889986407 -0.3060201544554149 -0.013797825115040753
P 1.8937182906495194 3.33549972552182 5.885070610788812 -0.4573629998381865 -0.05748986668635261 0.20471200503253134
P 6.9047866992900095 4.041625075265021 6.040082114043413 1.0285124840719255 -0.24778415363165712 -0.590620448474157
P 2.4535096718704312 8.419558855999204 10.15456503639474 0.5772368280783994 0.8045750551508789 0.012787895793287655
