# total energy = -340892.1640913032 ev
CRYSTAL
PRIMVEC
9.07208988338524 0.00000000000000 0.00000000000000
0.00000000000000 9.07208988338524 0.00000000000000
0.00000000000000 0.00000000000000 13.27792056523511
PRIMCOORD
 96 1
Ni 6.586455061812146 1.7741106461217606 11.278106210506847 -0.2818397005544695 0.664022872625708 0.7111877032369687
Ni 4.670729095420793 0.5343742070065233 5.912086716966021 -0.06269120838163396 -0.6965468133953423 0.4160271172038771
Ni 2.7464662926185692 1.6099239666701857 4.802703505962614 0.2722343162542215 0.12442468083568894 -0.569855962233296
Ni 3.4982703663367705 4.1902167921921425 4.698843501411533 -0.2874346781437437 0.5060105856425607 -0.19109852801415475
Ni 5.04662206019019 4.529884902775986 2.529935469996495 -0.9779437699854383 -0.012091898167527561 0.515076552499571
Ni 7.193042195648517 5.990119389340581 2.6794181064568487 0.09571265761297709 0.09331099015001994 -1.2013227552998536
Ni 5.096382472213169 4.580489019141379 11.487511813875896 0.4492254583327166 -0.3393606775890736 0.13446406734956196
Ni 5.5510030314284045 8.331208425653802 12.35059051105974 0.08171531489262056 -0.9564963987449399 0.794799978041986
Ni 1.8173210093789076 6.395324275941564 0.523780727859899 -0.3349800320228747 1.543094613433581 -0.5926490488684115
Ni 2.7175535427339317 1.5499937420897292 0.3187977682212435 -0.968895286629925 -0.5603572787142413 -0.262683953561625
Ni 0.594851478596093 9.067853037477674 4.936252831276941 -0.3447831341562256 0.04517505387474155 -0.6493269611764301
Ni 8.654029665658491 2.310869905511299 1.5068976871628441 0.43948123446175924 0.7171092109277263 -0.46080596408146446
Ni 7.028837372017535 0.8504195032117645 4.748635665748475 -1.4513532817635262 -0.5741036817660565 -0.05979023268475509
Ni 1.00564114361847 7.542090846985644 2.7629493724006204 0.202228062268413 -0.30457365181687546 -0.1637918697794018
Ni 7.7280959021738225 3.8206107855871796 3.6045308458233625 0.2540064803922852 0.02101156925466059 0.9540983308264085
Ni 7.710768210840388 3.905407608044571 12.947167501117415 -0.7657148877505715 0.06612748775669257 -3.1906518627586276
Ni 7.852537756634937 8.971353219302937 6.706903382385836 0.44535080586865883 -0.8574130248875169 0.026436854035289954
Ni 6.83338827144815 0.764733615963443 0.45156507940314 0.5422014337408211 0.05785779154873262 -0.32409783789273217
Ni 1.9406379247168044 6.456669746515746 9.23995874403132 0.32371911439707474 0.8380395054569115 -0.29150319178616246
Ni 0.09532044651329964 4.857813729283671 1.3144995303607023 -0.23658494248172804 -0.09833646838906936 0.8239040944967939
Ni 6.428537196345598 2.1567078851819477 7.290348522597883 0.6437319835871559 0.08863543905122154 -1.3268609809146956
Ni 3.365228170836862 4.580325721526719 0.5655785667502318 0.7373191102166978 -0.7232322931063286 -0.6829510769887787
Ni 5.766592171139268 5.435225022634007 4.674797020443783 0.9734631085062655 -0.14315311048312765 0.7873368368957214
Ni 5.298699144688005 2.8549231250223475 9.377571458323787 -0.16431226105924604 0.3127142786461389 0.454200800060121
P 0.17329415030478715 5.588561482800353 12.331696069834535 0.4116693544558136 0.08305845918407631 0.9841969499840019
P 4.070156757057755 6.2456438679256765 12.533838558187066 -0.033806407026483715 0.7406654009811116 0.9460991146710158
P 2.2755159719372697 8.630160997648927 1.3234364459274914 0.9568296137146425 -1.0882047577262357 0.08384753074427495
P 6.219951709885734 7.889143638588031 5.877577394943376 0.3352751946657903 -0.6500072750729063 -0.939051463795615
P 4.634095997198588 1.3301316481285776 12.545789221953314 0.8031285525123394 -1.0637288840720585 -0.5976233621545515
P 4.260915587250498 6.058985622278856 8.271786238096736 -0.9424008398838222 0.1085972268851291 -0.6961187247189882
P 4.70381500656898 1.119350715960499 3.615511703200321 0.7716582498182002 -0.7317161622076236 1.0451539492833484
P 0.1608136764998622 5.568648245901457 3.5771911962932896 0.1043685335157622 -0.3790451406628892 -0.5103400662558502
Ni 1.508588724683552 1.2065153538304698 2.5018128991250213 -0.08381667750633952 -1.1828480935344339 0.8577822353014775
Ni 1.7409793745250564 6.360823118799652 4.858524073907445 1.2668007823980054 0.6683598094381651 -0.3066099655206139
Ni 6.143092965918791 5.508409570271086 9.258959328706057 -0.48145115113564185 0.5418617910132153 0.11253692825916747
Ni 8.71816933986131 1.9539285361322403 9.955186873692448 0.3491313838225923 1.5090472940408848 0.561560040773091
Ni 2.4880478174180993 5.416309715602482 7.038001089826908 -0.2943388614627447 -0.7011624577904828 0.11006249857674592
Ni 0.41296424492427464 8.899003303918569 8.969222185431615 2.1140386665247335 0.3726911734204033 0.19734965113018915
Ni 1.2484919128879586 1.0337646216989143 11.56647618986299 1.1857470123487837 0.24584219941393792 -0.4908680735741675
Ni 4.173506002958536 7.112336885647345 1.5762619778258344 -0.6291299174032648 -0.814460689695707 -0.12678263954490426
Ni 5.676950852780278 7.822835734946106 8.003531803239872 0.19985699093307516 -0.4318573993679143 0.2968132911451662
Ni 5.4588759604906905 2.797923185416079 4.857381897813791 -0.4426596321897409 -0.0477358726233823 -0.21437369649201143
Ni 0.5866412374145439 7.4658217888494205 7.03184023370935 0.5926973856078438 -0.2738476834879284 -0.6462740332827192
Ni 5.167689097281651 4.373826815698631 7.104762597954002 -0.27249245501161456 0.29882029427286605 0.07159956661485734
Ni 8.054600410598077 7.152898198711108 9.263753020905316 0.07536546141519278 -0.7357728487755005 -0.2336870521086427
Ni 4.522944754152909 0.36356036602663727 10.382350753420436 0.35988579412561894 0.22079785485080042 -0.26635497465530905
Ni 8.053820210883588 7.161797918710113 4.620875240873868 0.15777600260262506 0.5257538297077591 0.757431821806173
Ni 7.410309671954504 5.999744876515855 6.751889153597933 -2.4380233758783687 1.577879068102618 1.8011364402375045
Ni 2.218697474125069 5.035000713280174 2.521610013275713 0.2881905824731617 0.7484694704065625 1.8358190792213542
Ni 2.4196896215032124 5.212677590120658 11.611806700483816 -1.322077443483123 0.3750169933401025 0.22119843272332873
Ni 1.030879697173243 3.1640727258440577 3.848459379349612 0.2694788649962714 0.8898258940005837 -0.3098778376386082
Ni 3.6485858206318937 2.4227196994641376 2.3481335139678885 0.45745144578693475 2.0113765741771163 0.7795471656479736
Ni 0.9561891826454049 3.2340638979055507 8.22561837359629 0.2784453301609398 0.8394466702170834 -0.43538392446393404
Ni 3.229228474093655 2.958898345112661 7.702335703461105 1.700622247470826 0.3433713414103635 -0.6719531832163782
Ni 4.197528896493058 6.899251642694609 5.842629890988057 -0.4947674086285737 0.826661345526957 1.0324257030834025
Ni 1.0422288813921579 7.509240810169745 11.57616881050207 -0.7885557969044871 -0.4557128658292732 -0.24114942192395888
P 0.21151486422508134 5.65877945710443 8.07698579194114 0.08794149830799049 -0.8742542648145717 -0.1705800963458288
P 8.60238225897721 1.5450857415602062 7.75649607899022 0.8979829758900794 1.1462096163757938 1.1321425967597663
P 1.6456589280117566 3.1764016957509367 10.336635586196188 0.7688665460056759 -0.3856415629334842 0.6737732671442525
P 3.9539251437781893 6.2235079690494555 3.7728017800593943 -1.371525670811922 -0.6309569433096747 -1.3172118878607055
P 6.952804188213599 3.8677675078652927 10.51161170193198 0.3575358058362036 0.0868022424972247 0.2838215068711886
P 6.319309236317034 8.018856377166804 10.362899285887442 0.25709051863424753 -0.6871769421446682 -0.33776376541559894
P 2.3171931520345477 8.34048917342035 5.918659445956113 1.5096263064728066 0.29598411037565153 0.13474277493224535
P 6.8583909506706355 3.9149877347713287 1.509102204960763 0.7451458053499683 0.5229772954038864 2.282886610670804
Ni 5.24521010379694 3.047832040474789 0.43431812966806493 -0.42297526638693606 -0.7877687822268175 -0.5274661844131755
Ni 1.7579441822703568 1.1994028355030282 6.9938925896891275 -0.6976415891214178 -0.984738938530401 0.00984835354898949
Ni 7.246041343695599 0.39958835586562713 8.95671449535758 -2.7607407884838064 0.22383741300807258 1.1604746109352402
Ni 2.5394774939464986 1.4067998782117506 9.358092774521682 -0.3892724748178522 0.9353099944753117 0.4684146296666578
Ni 6.550810821367607 2.022849201608736 2.5261106769775545 -1.6305691994074822 -1.0875167305202755 0.6629880036032905
Ni 4.060631062869217 6.898344433724272 10.391180618328724 0.8168309897000965 0.6733179247743888 0.06593054125453807
Ni 8.100269310164837 7.033681867919134 0.36618764320473296 0.13085500984206497 0.3096397534858732 0.144671346899867
Ni 7.826528075455378 3.9416687505889376 8.50611468629888 -0.9141798973649159 -0.034413187372547185 -0.7960824442988353
Ni 3.064479325080471 8.389623611253796 12.507720919140036 0.5111913585125519 -0.3407994669181292 -0.11898962586304669
Ni 9.462280281511054 4.963140690739786 10.209419486703784 -1.4080865006550911 -0.5769311239125224 0.32100711478255034
Ni 8.916031616291791 2.501474510179085 5.884097505813187 -0.836164914142018 -0.2638170387248037 -0.54397472359116
Ni 3.323623567457211 2.9049194113776147 11.775735732587814 0.17917966508938174 0.019752757146895013 -1.0778869207399955
Ni 0.9214158628123909 3.3358164560185393 12.716437043691627 1.363194268128091 0.7000283441860395 -0.7202166462084564
Ni 3.38916034347435 8.598190953534253 8.157157663067755 -0.8257290635206747 -1.656320083119341 -1.2084665654334865
Ni 5.690749501219102 7.663756641997528 3.693134317120288 -0.1610114788207872 1.231879030820156 -0.17164967526092373
Ni 3.2667687812861965 8.464023818911127 3.66282083658545 -0.3753175552996568 -0.3543504661296865 0.18399277020730892
Ni 3.5170314478433378 4.464103180336856 9.68048036863855 -0.2726235812728402 -0.033181371847975115 -1.158974629350946
Ni 7.223887300639971 6.271816846719896 11.486210876212432 -0.1516212958551389 -0.5729135181126972 -0.020123510222752442
Ni 0.32706244194101286 9.13922316717408 0.44407334772609774 0.2541167807179043 -0.43391042524220114 -0.18984794343650527
Ni 4.57728657147609 0.43075098399670014 1.4267258160362304 0.5484155329713329 -0.6328657302966133 0.02244058839170329
Ni 5.85216919331115 5.529982999585697 0.4130957902249735 0.29973226456417407 1.5198652105919954 -0.27864690464878467
Ni 8.16336569405177 8.988517613021711 11.374410978752964 -0.609803449160511 -1.1794367538600397 0.06308021628993653
Ni -0.0021346627072027606 4.963920890454276 5.8467994234157254 1.7842288658488885 -1.5534831557567568 -0.9128431808313633
Ni 8.044485030578821 8.63975926855509 2.4495767138219917 -0.7531702183163416 0.4163456768855604 0.4203691962226567
P 8.627321433571773 1.4195008037964671 3.581121225552789 0.3857652329955421 1.1299427608949701 -0.41449576816101524
P 1.8113969348026078 3.1469355483943935 1.4899283433726922 -1.0312237123555015 0.878071838788449 0.14174491728169136
P 4.654707785004642 1.2276986832878367 8.145472811529816 -0.14915457948220118 0.14973539168633565 -0.20965109420536154
P 8.517086471586133 1.7754623874875624 12.556650327746187 -1.0545400184839389 -0.9463346277205897 -0.05570860641621373
P 6.296084686676409 7.758832142088837 1.4546497081432006 -0.08337676175544351 0.17988440446589019 -0.5909847737921112
P 1.949102184410048 3.3784915659831873 5.964959762966227 -0.37021751506893014 0.0018653353435129165 0.2473702060226901
P 6.914066365180212 4.020477993842105 5.853491903989901 1.4594879950555186 -0.52610375684801 0.5379606561865962
P 2.326836783389229 8.479210497074568 10.096743225378969 -0.12699578399697484 -0.06184454411062252 1.2056512074718786
