# total energy = -381169.44269598107 ev
CRYSTAL
PRIMVEC
9.18945356750380 0.00000000000000 0.00000000000000

0.00000000000000 9.18945356750380 0.00000000000000

0.00000000000000 0.00000000000000 13.44969418023974

PRIMCOORD
 96 1
Ni 2.9986104967046336 6.126636063818055 9.433319305635692 -1.053874616985798 3.395136839382017 1.0588697562075442
Ni 8.669789688075715 0.8209682952273858 6.403776190277148 -1.7222953615688854 0.5074082373210357 0.6808345448664082
Ni 2.430941210371294 7.775086138750972 5.214109569875132 0.3964671927940785 -1.5099582358909285 -0.8509878380874635
Ni 6.001089753236157 7.173268844064367 6.949537820013558 1.965430703574622 -0.506584712978476 -1.0635149682890395
Ni 6.593690026292429 4.962773428199669 10.548877580137567 -0.7874029142469664 -0.3529247894267535 -0.10135931437579317
Ni 8.551016004554196 7.614592337381274 7.531048260862961 -0.21395100713229606 0.18078146235886286 0.22056954089007816
Ni 2.0215786355292686 4.791004167667038 1.7623809165808733 1.0851595431420085 0.15367894971511598 0.32312673222871446
Ni 3.204242892539146 2.2867678780100458 9.049330649164236 -1.5570040244258216 2.0623193837735707 -1.9184345373307412
Ni 1.5803102789319845 2.279986061496399 7.474156355665149 -1.133777304149712 0.8728910659184579 -1.5157205922960024
Ni 0.9064201022446599 5.139486614591843 6.588063324054887 0.24902831045140342 -0.40304458890128003 2.014928810304749
Ni 2.9739460041265477 8.682057608191865 8.70482999234155 -0.5215392774057792 0.5521420898933007 0.7677445165860907
Ni 6.541898267659756 0.9571642632044924 0.1944258575711081 0.22908092079519904 -0.2568112968309319 0.7897935259663301
Ni 3.883141321258906 2.3314194314515206 4.397996062810564 0.3105944040896586 -1.4217100049757967 1.069639078908906
Ni 7.870123464474731 3.6592586712291335 3.4040638781253785 0.5015394372450847 -0.8115604853297764 0.8504756743377354
Ni 1.0935633180988777 7.610732767007654 10.157087996784766 0.39933114460543484 0.40925328881515327 -2.440347138915539
Ni 5.517798026832768 4.822478045118582 7.2481206167340915 -1.1684578862510329 0.4518315284969961 -0.5438644232655407
Ni 4.741583287978161 1.2738603912665554 2.1997106735064107 0.6357857321568857 -0.1338696282986727 -0.14704704622089512
Ni 7.700761840698976 5.468900945980311 13.221035506242824 0.13924246257481182 0.7395983931691779 0.2544019160584909
Ni 7.319895760448845 0.9159881609899292 8.771285361557997 0.49841760378665134 -0.35661252269098587 -0.2910373078933375
Ni 2.8300299764568737 4.396271202431686 8.08816162222445 -0.08920288151891734 -0.7581735850682039 -2.1185676647433382
Ni 5.378678893770307 4.684865982392487 0.3796852355048687 -0.04436129972419457 0.1462788005963029 -0.4352132032140247
Ni 8.74145823413253 8.63056910151712 3.7186785950216676 -0.1327051756769263 -1.7525616166525944 1.1785031863021769
Ni 8.33357516126706 3.6593505657618386 7.8970007774003586 1.8688029903465426 -2.4924813977169333 -0.4907261486796645
Ni 2.8502100158389445 4.8475009263742175 5.382392351836927 0.3789392112126442 -0.6464151868462739 -0.04933047080401182
P 7.5265206172365735 2.8165858063220974 9.968227272114287 2.483585380778884 0.2687671836412275 2.022038424766337
Ni 1.703329489864487 3.082831835928985 3.5104373134036537 -0.06591845706968003 0.6169881398344084 0.6783089502310768
P 8.872527406130013 6.606187682740341 11.255348963395535 -1.7293692376965315 -0.9874969608915122 1.2453323281115842
Ni 7.910823553009881 1.4765245936946885 4.376409118132776 -0.5011486295645692 0.9444194129757476 0.5325816512628699
P 5.639080431097143 9.002273296856538 10.458037996667786 0.8979924889717761 -3.263562434875425 -0.22165608908603762
P 6.102964032193185 0.9198275145663541 6.837299675658035 0.07954401827291462 0.7893602950836534 -0.02166411523699495
P 3.168661329475677 6.128804774789898 3.658114584296953 0.34611676536598457 -0.7218446687301826 0.4085236097379803
Ni 5.295973814335593 8.770827726785125 8.396872115394428 -0.514998648073784 0.17336202996634015 -0.016414951022913665
Ni 0.5469112303405533 4.305929687329167 13.36906289530573 0.04918777457856045 0.8879788134895158 -0.17388936322471987
Ni 1.5091931000714003 8.432233131579403 12.227977238563666 -1.2807685574320071 2.2431036743459107 2.175455121959002
Ni 8.259508167906638 8.559093533978984 12.746126399112805 -0.29931214630762 -0.038312779537269505 -2.4774005921244107
Ni 5.022973536574871 8.766536252107791 12.579095220686456 0.9498318422405708 0.23405163453691308 0.6463480810537642
Ni 0.47556063936689796 2.5467283215798946 1.407241629706901 0.861142410022962 -0.09302354081658817 0.9579750401729953
Ni 7.749971362962631 7.728789673174074 9.668903805460149 -0.9746409308644505 0.06164476939499062 0.8162242093540331
Ni 0.5496046590941438 0.1731605437577889 8.629673129823244 -1.4747811737691632 1.0807693844941129 2.635734267002719
Ni 6.505140454577661 2.897471374009248 1.468330358213362 -0.06891790601763614 -1.6703045703238912 0.36586540874782153
Ni 3.268578254886083 4.775666970158533 13.081656311652809 -1.8680761394828473 -0.4290726375339256 1.2376336739157459
Ni 7.489156300238624 5.498766669109513 8.374411253710614 -0.7503528034722046 2.5608069215662095 1.0874447396317595
Ni 2.5325581846367466 0.40352819096056985 1.2139745621932059 0.6140869070272134 -1.8007016666929312 1.4796778397398322
Ni 0.8899636293278057 6.652704695195733 0.5992506803881489 0.04865992709954846 0.390091885395354 -1.3483392053931296
Ni 3.441762691222375 8.015748730452723 11.220232386667554 -0.4268810291992455 0.903488993309973 -2.6027724673647175
Ni 6.717260604421163 3.021630077147296 6.191486035548142 -0.42164163517717707 -0.7195702708737092 -0.8410798349451322
Ni 7.764573404209495 5.481242381722624 6.060512433864673 -0.4724576893877798 -0.3791101895728696 -0.7445336256872661
Ni 3.2623018583023153 7.061258598149952 0.1994129738610214 0.16231785633703658 1.0154787908164187 1.1964438299409976
Ni 8.241368187150623 8.000576943103088 1.3444896101584747 0.06314217987612351 -1.5540410851427557 2.2477311458155937
Ni 1.2648731059679832 0.8999681871034251 3.1801398755558883 -0.7300341465195104 -0.5367026154097789 0.3318173180241769
Ni 1.4754402382087666 0.006219421973490533 6.809956457451591 2.0680953670253994 -1.2641165506976229 -2.8695966683469614
Ni 5.167523636520212 6.155371484194983 2.5981580157537083 -1.1027651720389136 0.09423401618492158 0.32583513229881306
Ni 5.11294747354657 5.068231593932201 4.75414435165364 0.9172577649592913 -0.8631067328381844 0.9750679910995401
Ni 7.252564636335717 5.9895477999283795 3.7133799562658836 0.5140493967866372 0.022512065059587038 -0.40507344640585075
Ni 8.998551568281977 5.3150511193252 2.1272573481402928 -0.6049409788618872 0.4730094481261918 -1.4939268934596788
Ni 3.306778812131651 9.125246560522688 3.6685923989160045 0.8175598974463211 0.20906231158142705 -0.9532115573460809
P 5.999178346955889 2.660870520653071 3.9661799778473403 -0.1083473156578521 0.15970844373864754 -0.5257116636159139
Ni 4.887980468030876 7.528514728596278 4.738891697115224 -0.0060935144922475695 -1.5473665013360576 -0.30561983369320267
P 3.321243011579455 2.3553395783146946 0.9532486371659223 0.08611215840873557 2.2349573910896927 -0.04599909243793368
Ni 6.088343612039782 3.0298178800113327 8.633210150387068 -2.9565405786283727 0.12542021197973885 -1.0455254736901543
P 0.532819203750205 0.24112206436527497 0.6873279142048117 -1.1528214652653566 0.8190498517282861 -0.08407147382962295
P 6.945774738899279 4.848952859990962 1.8606437404025846 -0.35027706739126124 2.003347533225053 -0.9030431640218061
P 1.5668109720775851 6.993734495518143 7.771851451199749 -0.20029150736733248 -0.16668101840173874 0.3166609219987127
Ni 4.221754295371168 1.3103149523907236 10.462006002589998 1.9238217697845839 -1.8938794736991966 2.52767825733304
Ni 3.8838764775205474 0.1306657549989055 6.226495095672856 0.7473078459982936 0.7505803461019783 0.9577518684185957
Ni 6.793275761874936 3.454876041039413 12.315951550503698 -0.13661068137891955 -0.9623603137248846 1.0324115620160157
Ni 3.706088125095723 6.990214934915532 7.075346030013665 -0.5417525191288605 -0.7840753925356303 0.28249173231617153
Ni 4.5725432950668745 6.295455509850847 11.901916138673611 -0.40108643673364475 -2.494370901430162 -0.8271298005229433
Ni 3.957493187670714 2.809316948785113 6.731679775547942 0.6970258099142899 -0.1847777280024495 0.10159431320473471
Ni 4.034748921316008 3.8320663399813344 2.923290980863439 0.23313992135592107 1.4899956767260725 -2.5410500506542557
Ni 1.4808436367318345 7.142851753738933 2.835464619121062 -0.2140235122414443 0.6531532769010557 0.3475506695990337
Ni 5.226519926516975 6.304856320546594 9.168077683271273 1.159492706637945 1.2726829522103953 -0.049889428631275365
Ni 5.625820050027776 0.4631309848731875 4.652625704538181 1.163815759493331 1.746981808571972 0.598382608918079
Ni 6.5553700061543445 7.040086097814665 11.850699639815673 2.368844502889862 1.2480031900755282 -1.6010534493365522
Ni 8.762989123145369 4.21407191243701 11.195726871631049 1.04615333708214 0.7134970680964356 -0.10894124048810917
Ni 2.035050374023857 2.806440649911439 12.60408501991032 -1.4517800848882998 0.8399022696972632 0.03153843692791342
Ni 0.06329511623671409 3.29272813808102 5.483372496990731 -0.06094028712879827 -1.1839076451471997 0.26540186671342036
Ni 6.421047767699097 8.586266747299923 2.749655342371564 -0.7374600066699364 -1.0161120535250436 -0.05305831327756023
Ni 6.682616365591287 1.3098738586337384 11.363108168227004 -0.10299864975142906 0.7745697670380401 0.1975280856895824
Ni 0.6284538439365465 2.518452373866493 9.782137167604871 0.31812156570463923 0.556563358889448 -0.4112088698796273
Ni 5.8756720950000485 7.0195476697550445 0.5868008090972431 0.7936969747857944 0.6401414380224201 -0.18512097027448118
Ni 0.37302471977439305 7.0938352099939594 5.622375842941984 -0.8495410783386078 0.5399913134633797 -1.8291365249948563
Ni 8.791347775938204 0.6292514884804281 10.75289538903245 0.9935017723246955 -0.7107110207108663 0.09041592799041202
Ni 0.7199376080805925 5.12188881157879 4.12416046374755 0.2596659926709077 0.6032106264343418 1.0764000517818237
Ni 0.8863861751695908 5.13961526693763 9.237263239054391 -2.6605495262741856 0.9198360672094287 -1.456675465307388
Ni 2.1805469876560606 4.280713827554849 10.76021203172644 1.469963697775862 -1.9292601671913354 0.7674832925049041
Ni 8.787855783695406 1.9397373647019833 12.810456247787782 -0.36286724535144604 -0.025756797249129836 -0.24216989276867326
Ni 7.995927079748202 1.0130177601827364 2.197975704728936 0.2588506958584639 1.0081094949355414 -1.6024073922612854
P 4.200921804806891 4.4639423363158235 9.76248735967651 1.8645632412335824 -1.9724734693540158 0.9709621964612827
Ni 4.31827112307148 3.167916983760765 11.885762917714684 1.1356593516637732 0.2547577567360129 -0.6692792359286408
P 4.4685003051380034 8.212844124198917 1.7098457311786157 -0.33100742052837184 0.7920321854888618 0.3369906346950003
Ni 1.8970799226202117 6.224384278256617 11.856873114522813 -0.6796852617533132 -0.7679610034722709 0.0825717493556449
P 2.003650012198477 0.8707218331246559 10.428771425891822 -0.44592339054267716 -0.9492937103489135 0.03528761955770052
P 7.338642245120714 7.553160842267822 5.0552689511488 -0.4780632085000154 1.0453699219488963 1.3267175133582956
P 2.2777989716180143 1.5308434519767549 5.4627412554530785 -1.2626242824228127 0.17092668105197015 0.06495737870799136
Ni 3.155253917153983 1.0197720083365713 12.59475037327812 1.1527350761991373 -1.490576231819891 -1.362902447919285
