# total energy = -340879.2958993031 ev
CRYSTAL
PRIMVEC
9.15329748449820 0.00000000000000 0.00000000000000
0.00000000000000 9.15329748449820 0.00000000000000
0.00000000000000 0.00000000000000 13.39677609805242
PRIMCOORD
 96 1
Ni 6.980478386165646 6.942126070739418 11.792591915169748 -1.0358007902032227 -0.10200234727643077 -0.25170611439388263
Ni 1.0518603053747826 0.7573630353767169 12.63774147836468 0.42800460128072737 -1.2342099929461776 -0.5419219548271893
Ni 8.900483168056068 8.677161022049123 8.71169549719748 0.09915562185625504 -2.2746922477854694 0.9892262848777932
Ni 1.4124086835702705 4.934112335907904 3.476047921045395 0.24579643377766697 0.3276624153155389 2.082098109062395
Ni 5.95477820429639 2.714886267315006 10.974785996813187 1.0868942664449281 0.05557182372803333 0.15439268795268896
Ni 1.2820474243100486 5.173443598783695 6.016344196847308 -0.23857729032140848 -0.9986663472447703 0.28841555399977425
Ni 5.271484565497375 0.9997597374974351 9.653047129691025 -0.6648762217649388 -1.0211951244749058 2.047707547397667
Ni 7.4189304771517355 7.315397532095396 7.0936863664022995 0.46663954004410607 -0.02706728853043726 -0.3154046809941084
Ni 2.490621331692573 4.782506273758834 12.678279601171283 0.8309674291014786 -0.6865614200478563 -0.16486890489366443
Ni 0.7355305908052043 1.321827654105367 10.227594105327071 0.47808249177372497 -0.5831380240541828 0.07399480631991127
Ni 6.62651122868411 0.43543058756790387 7.875508842657767 -0.23575241927810367 -0.28711097625573784 -2.138808931490878
Ni 7.024231146962154 4.590122272415529 11.71498476920965 1.4788311754688208 -0.2283494419458132 -0.22079014154131651
Ni 3.470573333967489 1.0453340044442574 3.7895996099033122 -0.3673954722391028 -0.8339190555306347 -0.19910160082428938
Ni 8.51419571802799 3.946974995301344 4.69031792529898 -1.5270537579206345 1.1286132434502691 0.42978766132307916
Ni 1.0972972728630386 2.405120382194628 4.566880220069401 0.41932044324316814 -0.8689547069785293 0.8019558723604769
Ni 7.914169624200906 4.543531989475315 0.5588536475219014 0.5333059310234042 0.15955366332833812 0.7505667192552236
Ni 3.3394615043337703 7.958663802073673 2.6296535094261277 -0.3624782374431435 -0.2673602759913718 -0.44238606681338005
Ni 2.9028217662007583 7.087205831957964 11.775377309054688 0.3493545555769919 -3.1516891083421847 0.5419849468546407
Ni 6.607188618215191 2.8133482857016237 8.67912806562552 -0.9520710159837344 1.4094170465410565 0.3223188916154385
Ni 3.7483667518363606 8.638872779703561 0.07932796584079754 -0.16186714195286314 -0.03288260966063369 0.49854384495187043
Ni 4.315221296473791 7.74929128105708 9.227256794773933 -0.7587042607606934 -1.2849257741334903 1.5427151186069752
Ni 7.456523068907228 5.044711626431795 6.691876754918423 -1.2166581001053434 -1.2583786197725813 -1.5665546442287344
Ni 8.150974577039076 2.120105012805161 12.02005592817678 -0.3129117393689256 0.8263453569484348 0.6097489417734918
Ni 5.752288962802594 1.5133512455083218 4.887733494133882 -0.0838794124234749 -0.9263772107620561 -0.9705055685398383
P 8.26879581908356 1.1362445526097205 4.312622675387989 -1.7168618492581398 -0.05040467770479706 1.1503583484368447
P 3.5180331801452907 5.527731121668554 9.345055153575325 -1.243766269176045 0.1666830752842678 -1.047058622505229
P 3.6741792777242908 6.324672098971634 0.4028640713256666 -1.3748169399686838 1.4574257132098514 0.524506073343587
P 0.3208404594483478 4.408502548623834 11.974239098853156 -0.7349696361479149 0.18878453516899743 1.2070408887305535
P 5.326248742870912 8.503495513557045 3.4521083874497496 -1.3147001771824456 0.30862622461969424 0.6554086485941357
P 5.290807175966294 7.750298143753234 7.417259085076119 0.8160946257547043 -0.03617002216265384 -1.0154127134651738
P 8.815842628498473 3.8205405005561226 2.601988583854713 1.0422486027110953 -0.23611263083099981 -2.0556160036114663
P 0.9603914060778161 7.897547236417129 11.259989924125751 0.09017604406546405 1.0764887548408881 -0.11965399891992295
Ni 8.608904884547124 1.6912638839187228 8.174190084823215 1.8328558828279724 1.3117107555368184 -0.19140860305540583
Ni 5.338889446356263 5.253635635883738 8.10124471314631 1.0675752544013422 0.6741090532171164 0.936885823602864
Ni 8.971988726077473 9.092107445728637 6.252262195183138 0.3426195508460035 0.42654010092005895 0.0077891570271156185
Ni 8.626698894377336 8.57242899505464 0.8727513310154058 0.9518743265918962 -0.6667906651788323 -0.21832291094774656
Ni 7.880934001930589 6.678328044347086 2.765549767526025 0.6936520083460506 0.40333100979344727 -1.3490850824202185
Ni 6.433074598158462 8.854707528570014 13.136530274082656 -0.2474594233023867 1.1780640418822292 0.11385333307774587
Ni 2.204882851821323 7.099562783228944 4.9331347637629115 1.4718624574604715 1.9834880752969646 -1.196742335018023
Ni 3.4522575861947247 3.2348301636089003 4.441540459673816 0.8994053101589027 1.6727867133157965 -1.2326940705222835
Ni 4.718314200230401 1.1867707533621725 12.39590221204574 0.4754283419803296 0.4032878152603377 -0.7358882913074423
Ni 5.927794284039464 2.799847172275923 0.39005952381975983 1.61530970214525 -0.38792058877564806 0.2910195672815246
Ni 8.20402708782915 8.986057343931915 11.531207613259014 0.8936691790060738 -1.1802764761525155 -0.0026747186186857163
Ni 3.560705851867742 4.29136780387218 6.909454291578946 0.6782472437552061 -2.3195811378783597 0.21912175269995812
Ni 4.142059219329789 3.3665003443741224 9.43017807189735 -0.2199725307360276 0.4318185757101789 0.07007541666084706
Ni 5.952114594800201 3.9147279291327046 4.833543228497153 -0.13354849751382808 0.11348386555346907 0.6921983066186594
Ni 5.798192748449976 5.153223965185477 2.8180924396599565 0.9689107132488926 0.09229129063625395 -0.5371756983914555
Ni 5.252262641298072 6.229258128565192 5.6746461189832695 1.6070816578085032 -0.5829729592312283 -1.2086167178581055
Ni 8.860675478369036 3.4863078519192032 10.119174214875493 -1.6775651085410461 0.2927776876232119 -1.265720147739317
Ni 5.473003557483968 7.407150183606734 1.3009947495922183 -0.49080456732608374 -0.49264830540304183 1.9117787225771206
Ni 7.291086374631898 2.4804520184614183 6.468324861150811 0.19336392700956376 0.0043857877725214794 -1.670090397430556
Ni 6.655920772709042 7.661392167682841 9.327237345172296 0.5328351620345726 -0.5591563164276048 1.3847359988546086
Ni 3.9610619197502612 0.49100391641725866 7.916677627644053 1.2300031539536815 0.2409005391379464 -1.8253258929995144
Ni 0.8232814207641915 9.009672850805343 3.939081191763497 0.7402594237919444 -1.291393384135705 -0.3664945576913882
Ni 1.739547526847923 4.5481360979859105 10.314579719636983 1.5140763718243602 0.5285596745876704 -0.7945428677258575
Ni 5.428317160369208 5.211676921345831 0.12475669536153951 0.5925883708338052 -0.17317305388398563 -0.14379511494250072
P 5.123484902459984 2.3770106063774574 6.80852271359758 -0.7195162777073222 0.3641394271956503 0.4123830926933865
P 1.258157318519487 6.967297638143267 2.7604458889862484 -0.5560105717097715 0.6328647018553488 -0.0741066493074272
P 7.360770426502989 6.773028057568983 0.6047830624015489 -0.16299688468193219 -0.8964457133099464 -0.49119640344786375
P 0.6788835801898601 7.174711353550977 7.256256247982762 0.40635231311827436 0.04584585468952104 -0.20342516790030774
P 7.459928095479676 0.8917489994323832 9.905308340244881 -0.15413377786434745 1.1180670925033067 0.0269310200628891
P 7.376221192240332 4.9900572886251116 8.885893727588797 -0.4311320911661156 -0.047257647435383125 1.6883357167939894
P 0.2345321891340322 3.0966611418048666 6.562021672995449 1.101038419155794 0.6766045659454605 0.4230503425992456
P 2.066063945913408 0.7571021664054406 1.1154619912313795 0.6450633008040696 0.48718933917099966 0.9872205673016738
Ni 9.109928915450562 6.236086488304562 10.319844696208142 -1.514359707392734 -0.373786206256795 -0.264699441329757
Ni 0.059524807266897115 6.570785955100608 12.872640714717944 -0.8243005586042643 -1.1686748873578452 -1.5505227875768521
Ni 1.2130773296235038 5.233489228663421 1.1973693562337786 -0.5013972552402655 -0.05970281517727138 0.02491398963286032
Ni 3.0593431489665064 9.09467952225245 10.998056424380751 -1.253791771732847 2.8469262233326385 -1.1228313466611695
Ni 2.937750748460062 2.069295059838338 6.342274804889576 0.12947252767224154 -0.7657958775001521 0.37905362530332143
Ni 1.647318903880222 7.649035216411861 0.6074045667304443 1.54938661708988 0.3800573839774874 1.246429160720189
Ni 2.733677986544134 2.3275553414018235 11.603724610625191 -0.5608815266488276 1.012140213361489 -0.006960747588549302
Ni 7.1350135034308 9.12843688246532 2.575235326688179 0.8945155861667692 0.4583793569178428 0.29221230203804516
Ni 1.754998292585267 3.246363318128482 8.237985820581251 -0.4875955734704828 -0.42844040326656535 -0.0523502314669421
Ni 4.4391752476675785 8.562845492846701 5.552199715844541 -0.45639935037333657 0.45285122801076205 -0.5465275719200007
Ni 0.2083482670556871 1.4589257401325824 2.423758326030161 -0.6370967376588255 0.825219727984424 -2.01471155208762
Ni 7.008395942740823 8.236338227078454 4.910883098177909 -0.6188874137396503 0.46870027922787666 -0.4077684767395106
Ni 4.9417187259124855 5.6293510276021985 10.901305157247872 0.2907940815342798 0.12397062401740584 0.5978074531408994
Ni 0.13707794877329238 5.167228509959254 8.019644898931098 1.5061373194829415 0.11081866001648012 1.8231605099170796
Ni 3.552229898625573 2.6953256711179066 0.6915398442805151 -0.32843631736708595 -0.20861622518294395 -0.24768002395362507
Ni 3.4622712933728375 6.506465735410846 6.86805758949144 -2.2142751801499934 2.4881837987828437 3.067904826735678
Ni 6.896899629087631 2.50949543059684 2.7980375654120175 2.15887536322345 0.03485593133692061 -0.14883216314577594
Ni 2.0368283145359927 7.264395359886581 9.339736172550461 -1.3078700416344893 -0.18962605723368633 -0.945415715450746
Ni -0.002097020397171523 6.945338878069873 4.865106543362131 -2.0147845714174015 -0.8532280402718918 0.5060800054279155
Ni 5.004244899343644 0.8450461309361446 1.811378026921269 -0.5097718524572059 0.4017492671286242 -0.568156463043686
Ni 2.036544562321622 2.9819520208212196 2.3871176771873954 -0.2032629312908306 -0.6556320774588514 -0.061648368939416415
Ni 3.573136029516624 4.973068768951824 2.1647044535961615 -0.4403790636856803 -0.269074173358685 -0.2913347845290983
Ni 0.9024528652222233 2.903782862410723 0.2091354506181347 -0.24087868476107552 0.49474581136201895 0.03516754904006846
Ni 1.731016653822328 0.5221782161496322 7.9377906230526785 -0.8106495434797331 -0.03930342558531296 -0.4760122395082576
P 4.989279258359902 8.243605945085237 11.293562387734418 1.623826738477326 -0.5298421408445197 0.8391224541084452
P 3.2438187014963837 5.283283165636853 5.031052160963881 0.9704898848105545 -0.4177497563219386 -0.620300492037093
P 7.113732087353 5.985350217070518 4.610044423853521 -0.04214243769600484 -1.2150395906653138 0.33857314869077176
P 4.525115555432936 3.5663168230744904 12.198340190455033 -0.6794443493871009 0.5900928581054612 0.09754096907096749
P 2.8219432318078836 1.6764446956907844 9.49792528607293 -0.28684563840949306 -0.4097256004658814 -0.20553192983066537
P 4.892986571418635 2.9294120946764597 2.634583475318387 -1.8282605501478062 0.8716505086431374 0.22746678223054376
P 7.856448931819573 1.3793378206502325 0.6924350367503682 -1.0714383369011742 0.9696211090523558 -0.258886948413038
P 2.2683975813541606 0.2126365868115791 5.474378382729079 -0.013013381540532425 -0.1453596312161432 1.0356838050093842
