# total energy = -340866.64729051746 ev
CRYSTAL
PRIMVEC
9.26579928612544 0.00000000000000 0.00000000000000
0.00000000000000 9.26579928612544 0.00000000000000
0.00000000000000 0.00000000000000 13.56143385658977
PRIMCOORD
 96 1
Ni 1.5198968490157383 7.044388743375772 6.77758376017929 0.37561014683941113 0.14365704670273968 0.783017126474445
Ni 4.374569143753454 8.74691449568597 0.6617995193309589 -0.3651239025961066 0.724652827602939 -0.6164885744901705
Ni 7.92871662416843 2.8986477779967474 8.86791656814271 2.2867265532421843 0.02091078201073818 0.8018892807885996
Ni 0.6152935462956862 2.2406370439807097 7.450638445863967 -0.20149966874282071 -1.000053200289968 0.09726380415018089
Ni 0.733054442173411 4.630796290521679 8.62542411560855 -2.0901410339715296 -1.2206276262760527 1.462741983216442
Ni 6.802486522254084 4.85210990570119 2.7565650856574484 -0.9810213804694976 -2.297639343499946 -1.1021802460697212
Ni 6.414268065113988 3.068675194305897 10.867007197693084 -0.24763322987608966 0.1401055819060555 -0.058683886994453774
Ni 1.046479367735989 1.7808310218049466 0.35480135213088915 0.11697928030123723 1.4525190199368534 -0.2300150025736942
Ni 5.479765881361436 8.248794393595311 9.108401121978552 -0.22468433438940014 0.04106797368490346 -0.5730130198050389
Ni 2.7790170438295845 5.285063641639138 7.91123854703579 1.5827945031263644 -0.15115361219010098 2.0272335958140313
Ni 3.7832258353692603 0.6785891475790342 9.169400658206783 0.051472971068311356 -0.7713294057238717 -0.9034432276737021
Ni 8.812970378567057 7.225637042581401 11.912892627696896 -2.381436223511944 -2.8634033950520554 -0.969219245628247
Ni 5.438143911112897 7.435915090849512 12.671207491796302 0.34058940778985214 -1.1086432280862457 -0.27172575204891913
Ni 8.094500304419292 4.36774951550258 4.710563703138693 1.2909041032041122 -0.07302678597968713 0.49787690079183283
Ni 0.2179038010540752 4.529317257092916 2.0199488702508366 -0.8937725373531576 -0.29003894853581014 1.2805692969370075
Ni 1.4336507895603938 6.773521633786379 9.25045787007994 0.06801853413181834 -1.4075851355386404 -0.1591831673627968
Ni 5.615398650840093 6.337602842087181 10.462605095576116 1.6357376309822989 -1.327402198130146 0.1822588182353377
Ni 5.666592191717916 4.319928725553178 13.667755320512851 -0.11842064073345412 -0.48432358758743044 -0.6622765793585627
Ni 6.104299282673117 1.9369041444377162 1.1561743853631896 0.07020294337764685 0.23798002305704175 -0.3510949353068663
Ni 4.446212303584645 8.251444412181929 6.821618544553546 -1.6401175052175496 1.93527552014748 0.24770907741934758
Ni 0.29338300177638227 8.655887283815613 7.940043137176403 -0.28536519720922465 0.23429177557217717 -0.25138472649872196
Ni 8.604026605391509 6.992453938557637 0.8592592609112188 -1.3536457052077073 0.007625634866057835 -1.439833968270017
Ni 6.086962972269061 7.003647024056353 5.780290034622802 0.42914745663591897 -0.035256252099132836 -0.24098461421132047
Ni 3.7611917647434754 2.4685293766304945 1.1196180275667598 -0.5851581398080051 -0.41176422816246505 -0.3239471712474808
P 4.488353158591403 4.537915918800539 11.219129807259668 0.7288023309949384 1.759343415461118 -0.43777607884519437
P 5.0474885487690235 3.7979028613874455 3.324503911706204 -1.869480990250174 -0.2920346388096003 -0.28938280300905
P 7.02990629914192 5.895513028084883 13.154590340173627 0.6635634164907862 -0.1614457381447284 -0.986986854024313
P 8.157915434513015 1.224382713410958 4.540829086085966 1.0901158587060193 1.4656766403647339 0.10169278645581195
P 2.8538291070056103 0.9829159848542031 13.068001446145887 0.15458577780010152 -0.5106485986352045 0.6611604634762485
P 7.593656057347985 -0.35306216161093124 13.26401757620239 0.3420721629829657 -0.33020857877616033 -0.1920323526823338
P 8.575432348893958 3.927170026778669 6.886428177434982 -1.762542124904074 -3.248949570058256 -0.049424316069398753
P 3.8018964208658783 7.266573343685152 2.203461730794119 1.5997676406455934 0.8176935948107078 -2.220467167893318
Ni 2.4726804546962438 4.30951396719179 10.164552130975768 0.012793809330558611 -0.004541596624095404 0.49686748569071204
Ni 6.609841289966153 2.2652470067990804 3.3896128299035406 0.5392449222156583 0.37973753874422345 -0.10675683124228066
Ni 3.9235193018726306 9.169472004861039 11.561908784858616 0.6508451975931694 0.08065113529416433 -0.40636362597218406
Ni 6.469167925693373 2.7022498970109843 5.80525673071245 0.6041236251669144 0.4982183432916516 -0.8504311942530451
Ni 3.7010103985893643 2.898240082829575 12.206443340439774 0.2541718023255558 -0.8377016625015186 1.2290227923182833
Ni 4.31779759172478 2.8092698783935828 9.805296709143525 -0.3091558718709192 0.11902510708667242 -0.39715290600719344
Ni 7.739397813812651 5.018162294130416 10.584834886433999 1.9639674887655336 0.007818467603154277 1.151242550814011
Ni 4.224778233014832 7.555110332451742 4.331128297111373 0.1697205765590109 1.3473673283981633 -0.2862514564689199
Ni 1.662645752321393 6.214905128366976 1.0883561474640109 0.763886062071949 2.027296587841483 -0.0535769047851916
Ni 1.3479514122610299 4.4360940507993805 6.345177632977248 -0.10631820104296527 0.7246993645701584 -0.9870920121436095
Ni 6.153157842138955 0.1449096876916653 4.678423425266674 -0.43806609928178747 -0.05000641382511388 0.687504500687416
Ni 8.107750397352376 8.597132850746602 3.619464879095526 2.2377575795426496 1.5552885843966118 0.9217026881045224
Ni 2.164453642515106 1.5414120348833047 10.812720733024305 0.04198560040316641 2.4143936522745713 0.6086742206520743
Ni 2.6738594880970212 5.97806203363792 3.2956863494466355 -1.2212485476895032 -0.4750555320219431 1.7923962321510294
Ni 6.8182661783834835 8.860207423163462 1.8206767383365126 -1.2543738694885622 0.046729542846055 -1.5172236592040902
Ni 6.011604226937054 0.9598626763104885 12.634956905375251 -0.35325106241792065 0.1307573079219361 0.918698868281192
Ni 7.524829700489982 0.3914151578826933 9.309001969505886 0.6592946139121032 0.681068258143769 -1.281256295701703
Ni 1.840243326620983 8.753641465944305 10.161161775028765 0.022764290279709182 -0.9754950513346295 0.7002666854490908
Ni 8.215446782080509 6.436663501910675 3.144937355065159 -1.0415544048575482 -3.1995365668427675 1.6164471581838031
Ni 0.933964767395825 7.285142005389977 4.627758034946323 0.054214281258874376 -0.5898228922735261 -0.4942765850350842
Ni 3.5785350640512537 6.1288814480937255 6.042174878415462 -0.6292096216012648 1.013201821856784 -2.5511686271454965
Ni 2.802848679510627 5.320588715978609 12.619578458353544 -0.04889466881817386 -0.2405174447669148 -0.14682053203238585
Ni 0.5807098771604126 0.20751776667037347 5.664950292090124 0.36468604372773966 0.18283988754978833 -0.8270390405813498
Ni 9.099181651720917 1.4725578806275395 11.433888796046968 -0.4225093824941111 0.9596763391348182 -0.5125255039429432
P 5.800890686104009 1.0322100368849758 10.578054174539991 -1.2042517560211905 0.05931329304833655 -2.4949848808650774
P 6.383301764007439 7.311197432891956 3.6950839933865676 -1.29481860776717 -0.03712261588391026 -0.7293659168078922
P 1.1301865981957633 4.616999515432615 4.089830206101039 -1.6690010210211192 0.8591770587664752 1.1017372449950316
P 0.5179035100776708 3.8233096829416517 11.019993882594378 -1.202931751658186 -0.19442527839454257 0.3268275781190694
P 0.44020700359390424 0.9095540192614132 9.329927850540903 -0.6035045035256767 1.8416935357242605 0.4854319901602607
P 4.521571048916651 4.1362898501400425 7.044039422743901 1.0710315883810586 -0.46539872565846946 -0.34947359765335945
P 7.11165844595912 7.441947126163804 7.887113185518399 -0.17800081428993217 -0.20656885573561198 -0.37035995418406537
P 5.302409217842448 0.9571477971290944 6.5421444340372 -0.3710533807066642 0.01759740136678905 0.2920477514357228
Ni 5.976551708359533 6.628465546466502 1.4056291594567354 -0.6979022989819723 0.09083913157075968 0.38398448694603543
Ni 0.8679237097935452 2.6175512260310425 4.92534956274383 0.30051028038077926 -1.0994296799077774 0.057793256859384336
Ni 0.5156222703013594 -0.38219846736483437 12.792066870944533 1.86328694562432 2.4903067586631176 1.0000840535279034
Ni 3.8425084189957426 5.032227777397844 1.4420687681825664 0.8639685666178476 -0.079760762269411 0.27548187665724166
Ni 6.392511968465819 4.617889032160989 8.801248215930942 -0.8713345200646154 0.3552449529194979 -0.3853348303263428
Ni 2.5847039676759507 3.5088469878626367 3.0520551301841685 -0.7014403940422178 -1.3855374117099815 -3.769977197934939
Ni 5.074516885192663 6.188710713876187 7.625079162357752 1.1673034609316155 -0.37633005572457123 3.0407313516446792
Ni 8.494393668619308 7.259475741456661 9.523476498256091 -1.4162548953984966 -0.5679158077877897 0.49779462549067166
Ni 4.817353892699795 0.49211679075405423 2.710198099610984 -1.4356800940026435 0.4928635067376415 0.4400039397344486
Ni 7.682755982973532 2.949303902517844 12.79807388860084 0.6323183424335755 0.4052243701614182 0.21235023830407945
Ni 6.787457395864251 8.402375016228781 11.041651761770455 0.6561686666886118 -0.5092769150986584 1.74283847582756
Ni 8.66345744180605 5.875081940730023 7.077319393924149 -0.7227638381103423 2.262267905979188 1.1547603341592823
Ni 9.479375926707132 4.94605584433653 13.275789774154475 -1.17598659052791 -0.43062069874733583 -2.774717819489189
Ni 5.939673827328993 2.397201253973936 8.005951693849353 -1.605197553411913 -0.4327035494182935 0.4241273777135082
Ni 8.201668538589953 7.757419793361495 5.993109691626261 0.3174116841218082 1.130132508308273 -0.42398416726742466
Ni 5.6772478608599055 4.8393786975263255 5.132650509711661 -0.31532754789926987 0.1291727370436356 0.19505468444842536
Ni 7.89568404982826 0.9837313751885468 6.621410566914578 -1.2181238860175925 -0.3615225583980935 1.6400136326498336
Ni 2.5554981684276434 0.8848606642497574 6.841376934882573 1.2238870137536149 1.1985883870878262 0.8724022992074975
Ni 3.2700580752902604 4.239381132638985 4.898485230966983 1.6975464367589796 -0.216240317387105 2.6059572928506025
Ni 0.08860327878553764 2.1534366072022135 2.731313002950782 0.43358698046451133 -0.6551078295242654 0.6677502008786242
Ni 3.4860067927017613 6.821462879126081 10.858897770186065 -1.17931719756304 0.33282724734593006 -0.30485544472335235
Ni 2.2814806870919213 -0.4023413883628976 2.043111515225747 -0.6761273691987258 0.18795458306853438 -0.1101000366829007
Ni 4.228836653088042 1.9479397113491164 4.7985637783928015 0.1120795290067747 0.017422566351821607 -0.33234362284129215
Ni 9.081428380350436 0.15918828434193233 1.439749538629314 0.17430099684084174 -0.9306370144796747 0.6328479896848004
P 2.4998755755064535 3.039126560485195 7.9873728397653485 1.0979741784081736 0.2578813899666591 1.124284019947296
P 0.5088999329426517 7.419023538809644 2.55626259686609 3.9229182410427668 3.0421434015008573 -1.24479599599214
P 1.6512488192390904 7.227999821391147 12.037739080264082 1.2608455932558351 -1.0953943334961393 -0.10300019241332582
P 3.3381894972042208 7.631136215330029 8.735692686209568 0.501330149447756 0.046929060451370797 -0.17984249548436126
P 2.564810296677817 8.58462402175383 5.500002386931964 0.1275557702655029 -1.5688480682486012 -0.8229239899717117
P 8.04117562971307 2.922016123715095 1.3210120275102275 -0.5651541858822524 0.532649785496644 -0.14845961029770563
P 2.735856950904897 1.4113109475592298 3.2023565864616805 0.13741749355093108 -0.7199392241773537 -0.15295544128553012
P 1.9414165886743675 4.0649709932827385 0.6972384217373679 1.2008085346675963 -1.2088069794920406 0.004412013024766595
