# total energy = -340884.8032609444 ev
CRYSTAL
PRIMVEC
9.15308088391500 0.00000000000000 0.00000000000000

0.00000000000000 9.15308088391500 0.00000000000000

0.00000000000000 0.00000000000000 13.39645908120423

PRIMCOORD
 96 1
Ni 5.382249493020414 2.8315970776135666 9.890337665059922 -0.053074511227476334 0.5656056715973743 0.09227689245855075
Ni 4.126007458793924 1.2502284601380742 6.762719885846898 0.18993690360588578 -0.7462061282936826 -1.4946048933633098
Ni 3.877217569452657 3.00958788693369 3.265722208312315 -1.289394094317489 -0.44162964826332973 0.5082767559689181
Ni 5.508433864988285 5.086650748446034 3.1967702199974766 -2.5555981236717598 -2.2679359028982424 0.15324083373643285
Ni 4.874207742978582 4.814163532902473 11.672548673391514 0.3802574158034354 0.31246051076411996 1.515341868800345
Ni 5.947900733644413 6.370937822256852 5.321502326338536 1.3011648617001719 -2.0262259804851235 -0.06310875553502679
Ni 3.328810733063929 2.9573512547836365 8.299240237997555 -0.6200264124400999 0.8884434118307603 -0.37923128853176624
Ni 5.7012984306153704 8.046372651157979 13.042846332212118 -0.7483051769145563 0.5290471557470502 -0.34567479273255947
Ni 2.273332373198624 5.663926401691476 12.134244714088931 -0.2573905663731696 -0.052111633093574763 0.06521114659001027
Ni 7.949560515491058 7.416961049651331 9.67402473702842 0.01500521515958061 -0.50402955065679 0.2485683400958493
Ni 8.256939275060553 9.016123256210353 7.705026808723784 -2.100321831159273 0.6316244016903444 -0.9218808655535994
Ni 8.510140949349484 2.1632116580422727 1.8366681778847667 0.09618522637402144 1.914927295508431 0.3826503415156442
Ni 1.2643333576574773 1.3875155191215431 3.058277700272084 0.11848826074659595 -0.4186840952107499 0.08247790409025796
Ni 2.0225654184036315 6.897642704058621 1.002600096750871 -1.1614554867912708 0.07696443047119647 -0.9727660824392408
Ni 7.7147931459419565 4.179516369175773 4.433879569418769 -0.7430704108781784 0.19396402248740788 -0.7107138489243437
Ni 7.871969849513135 4.287266436403814 13.174854809495757 0.43651083897952564 -0.810111925808708 -0.8742259826797976
Ni 4.692921824568916 0.4235807816122125 10.891991333255628 -0.6844649425301438 0.8527693554679184 0.4012075356925413
Ni 0.737434430542658 -0.12253869988352452 0.26432815931462095 -1.7353799626669857 -0.5831727339468601 0.40679068620727366
Ni 3.1859952132746727 4.827929766432117 9.930835471078481 0.3647976296049395 -0.5549952430713797 -0.69718187587618
Ni 9.366805241064919 5.2500973123681485 1.9160015904478254 -1.0398425643727638 -0.5623028324763865 -0.37303878656780914
Ni 6.226923248882234 2.4756429182157325 7.430332785398311 0.7300434024908911 -1.109595821807502 0.7359312287302358
Ni 3.4308767371125097 4.6286031257572064 1.2646473083290641 -0.41416975228016417 0.5430444984674067 -1.0365803486817244
Ni 0.057485923991311104 0.6083695840456784 5.479366426278117 0.4016333103760502 -0.8655441386350836 -0.377773215929001
Ni 7.279408551324538 0.5268192953118219 0.6432135320514301 -1.7554690201073766 0.26067592199266076 0.4839587480488439
P 0.27278743659394106 5.783474790076241 12.97019741456043 0.03282681672203379 0.903642745279018 1.357654055036152
P 4.0174336142934965 6.271727579419209 13.217937445533444 0.1475923772014039 0.8729201193841806 -0.03431908499684412
P 2.234038197305829 9.042337679633825 1.6940759932671345 0.5500229866677689 -0.37323290485648625 2.4501731238670255
P 6.219207201764222 8.220601544267543 6.608232357416018 0.7669647009972728 -0.23466047176550556 -0.5690558349295038
P 4.865905898689095 1.2012594778351502 13.289608814155235 1.3814030778266337 -0.33641496469718835 0.648354827071148
P 3.9619018730539004 6.392603164520594 8.548561921333551 -0.3807569811476733 -0.5288471239211022 -0.033481162476581054
P 4.501421067981668 1.1749077581996141 4.522885957775796 0.649236715455469 1.1050449692120259 -1.169077779223219
P -0.01570760196823326 6.162027905979854 4.166191314140896 0.3783452863823871 -0.800260229825609 -0.23733416194292675
Ni 2.22218495766428 1.6250654252351482 5.251465697948389 0.838256506563724 0.34909538837833426 0.14192618005456203
Ni 1.9244077798584804 6.453214865606569 5.152398243171292 -0.9886156478769876 1.4393914814159599 0.8696347637646894
Ni 6.966446412464429 0.7930988914539164 9.608623228757562 -1.2735162467449679 -0.2508036571842713 0.542271367746808
Ni 8.630384971875376 2.356616255436812 10.799488468031367 0.5079121735406479 0.3545957493712732 -0.4925269493338292
Ni 3.1506277090469155 4.398924869135286 5.166666065529012 2.034890855248973 -0.36166345485133194 -0.1868397527378008
Ni 1.7757525945160901 6.807832675206977 9.930446465144298 0.4616140618050566 -1.1052984799837287 -1.2253335163921542
Ni 1.5088670644247517 1.4084211556785298 12.227604307676478 0.24481170126689453 1.1020349787411086 -0.9224169405627276
Ni 4.170042930543339 7.276653474002448 1.8974345660363332 1.027191965488289 -0.647147437026608 0.5655992438394711
Ni 5.19881260062174 8.275849540002206 8.566539487341247 0.5152411031018933 -0.3330769014628909 0.27922437441880943
Ni 6.577550315251974 0.9637461840447622 5.444696386807647 -0.0451637410208319 -0.569945950843941 0.30415430489126977
Ni 7.950658885187573 7.754810415218289 5.11022633867363 0.054533869381822205 0.12584264422913813 0.49857366974854134
Ni 4.9042298480166355 4.352976403497776 7.268436753364441 -0.5696934685135028 2.193301149001487 0.35739645204486187
Ni 0.8586257969317918 7.648332626222043 7.465498006540292 0.3148855752658448 -1.0647565540056245 -0.23819908104638335
Ni 6.506531561291528 2.2209218325132887 12.109193647235685 0.09717638664269716 0.30999559416339517 -0.07378886095669228
Ni 0.8750116421876226 8.149921454296855 3.5367989341039356 0.8924211655315858 -1.014067769401505 -0.35283274393357944
Ni 7.42605921197079 6.495145128770998 7.589362072524278 -0.7674688943272009 0.2002439419588487 -0.8995292373312767
Ni 2.3122878851016604 5.570802957588682 2.9997217811347516 -0.6881051103858923 -0.15232706367291182 0.5223255207525004
Ni 1.1564002288133501 1.2922594071913505 7.725389667589076 0.33453497406565613 -0.23813634612924792 -1.0168761853845778
Ni 0.9199212331538462 4.061066350487523 4.5293022674196 0.14468034576093147 -0.4095538507747076 -0.5426979137612653
Ni 0.43310456218907095 7.540500181266764 11.595519091266894 -0.5377917347088996 -0.4581649269141916 1.7275836065510184
Ni 2.2593190064872637 5.314699756684791 7.257451225783139 1.23913365550004 1.2034056059708114 2.0300152723242264
Ni 6.156499445174066 2.2446649241196037 2.8920138180784094 1.865364139868323 -0.1358588908145596 1.5574259424545887
Ni 4.080864464267191 7.084905584233485 6.273709221413336 -1.3552809268182853 0.7292679577774472 1.9043202094165461
Ni 8.086829268312918 7.378353354818857 0.6621933604071951 1.1825992107484216 -0.7731633736088168 -0.3417510321981211
P 0.2571567205044638 5.868451992263221 8.67384563015028 -0.4478560887890158 -0.705349756398953 -0.5692918621997098
P 8.225599126386681 1.9900811346292244 8.466937492645181 1.3243281871905126 0.49028649003908464 -0.13894884259379295
P 2.071982901665965 3.6411230031869333 11.40077539815069 -0.5381308632158733 -1.9799726059445384 -0.3540391055368548
P 3.885482801418926 6.424309436426637 4.080145947424055 1.3684763424626367 0.6386746236689065 0.5886309288479541
P 7.1642811009682426 4.243011290715097 10.998345555661018 -1.5602585268073774 -0.4204216467271469 -0.2962106245641608
P 6.232955129132257 8.091213594018171 10.735653967194203 -0.7031069831113633 -1.445306304238498 0.15953797959905427
P 2.3754990611360514 8.7603129538922 6.479478715666383 -0.2828758551284677 0.4999497241604615 -0.41050027384837695
P 6.889926656940608 4.241766471725715 1.6227396274027794 -0.35460629089423445 -1.315176859708548 2.3748829957744584
Ni 2.8778109825944007 2.0189041860819175 0.8119286092844914 -0.3693528530757897 -0.9957396605162787 1.3474022954011569
Ni 0.9184841994675736 3.5809872623027816 8.576909012584421 -0.8625606305267273 0.47525479251694286 0.7944431089231996
Ni 0.471672898774086 -0.1690711320763479 9.680053871354202 -0.3673736178622318 1.2118331679128742 0.5577481232261684
Ni 2.0885133655985038 1.6619798001188288 9.891074488064667 0.4573365174756253 0.8265980963891892 1.155481528596023
Ni 4.933949901388149 3.0271618020779174 1.185670865917373 2.1438822322487274 -0.22807947611387813 -1.7758231582836967
Ni 4.024170281765451 7.212691745342106 10.8920581507455 0.45314356244020026 -0.06954654074057054 0.4118583305381681
Ni 7.204994004385702 6.385958027856683 11.914730038392088 0.11632467743637386 -0.4426791725737666 -0.6508104877004921
Ni 7.464300783571092 4.188431469879147 8.687228349594227 1.2979085595464035 -0.3791724102693728 -0.012308127943391705
Ni 3.3658440979980657 8.83640251461822 13.275234816060186 -0.44967925804068365 -0.7982876794802702 -1.1617637620603087
Ni 0.06958263558225398 4.998579804947204 10.767979902670698 0.389610060662929 -0.16644164869742303 0.24868018308336526
Ni 8.664516810194554 2.7582717472904403 6.388905319875663 -0.29837189388153773 0.505637261463542 0.041511231869909154
Ni 4.023959760906952 2.6987401097393717 12.109581737861784 -1.1975483758590861 0.3134115618234796 -1.1134974708547531
Ni 1.105664701915199 3.3862188558684037 0.18269915408584766 -0.4793605871552002 1.2034197470381984 0.020966060728705826
Ni 2.700369358122534 8.691097356850197 8.949544661748066 1.8353051156994133 0.2225284643886619 -1.3503662631254871
Ni 5.643304510639422 8.321257973872262 3.9118866936150467 0.4028661543418868 -0.45318470009078077 0.48166326714644786
Ni 3.1800274045902786 8.586468490176417 4.445936007454174 -0.16756984876459527 -0.2393527350348523 -0.6465704814772155
Ni 5.471784929447928 3.1870661237287736 5.251613062549338 -0.4181541908492089 0.11184067352309127 -0.9705325651230318
Ni 5.787346543256453 5.510749594431768 9.716036462612006 -0.11617349657049025 1.418977436535982 -1.1160405489915812
Ni 8.098334690883906 9.158481121959396 2.906106816592767 -0.7681180978754255 0.5637048550302356 0.4788597362593817
Ni 4.4766619844060775 0.43422306866335453 2.335900087652474 -0.8732253093294252 1.4262410600769309 -1.2406832593753472
Ni 5.986087386759891 5.879032953672975 0.6576360414747418 -0.188661636437888 -0.019059844844928463 0.26871936112242756
Ni 7.782699852428945 9.066684874573223 11.82059334824426 0.8763394294783746 0.5594802754259268 -0.019030277158573677
Ni 0.013871493958893715 5.226363373842638 6.470396113584291 -0.5423325600020465 0.27039957703832784 -0.13001862998369867
Ni 7.217103530289771 6.328165475658429 3.099310961517692 2.2493123742597843 1.6495645095630624 -0.8447739959672678
P 8.142653908138252 1.9686629255471977 4.184866344905878 0.012175201909953226 0.05797940472826143 -0.6722581160513067
P 1.6726614454174293 3.4250645308017886 2.5485829038369983 0.5705966970540625 0.5833174870548405 -1.5748855326919327
P 4.34958976360019 1.1878044490528514 8.811159233068082 0.5155264955527961 0.05964933623151662 1.948872542105624
P 8.532135802522182 1.8884727846208582 13.05872052025099 1.4190445423284916 0.4622478387343136 -1.0856534520592915
P 6.476600987061516 8.071259877864831 1.870052209502235 -1.5100963041306896 -0.6478400922182584 0.526789470061125
P 1.8409957544890325 3.345258819269229 6.554927560736104 -0.6017510111696798 -0.7516347555084216 0.21282743505081414
P 6.966611167918907 4.550170376345289 6.450489078143052 -0.5722303760027436 0.007541045572051528 0.34341556438473764
P 2.2262214662989694 8.723105680422782 11.170557109761317 0.3059111396813764 0.5703257027808629 -0.07800804124436243
