# total energy = -340859.6520585705 ev
CRYSTAL
PRIMVEC
9.39866895782209 0.00000000000000 0.00000000000000

0.00000000000000 9.39866895782209 0.00000000000000

0.00000000000000 0.00000000000000 13.75590205178983

PRIMCOORD
 96 1
Ni 7.049086166732816 0.05876893596205328 8.720292596887491 0.21236386515083427 -1.9297576756530443 -0.12677621178700102
Ni 4.921274550182247 3.356668761102144 6.145215251099388 -1.186975485439246 0.664088692866637 -1.3607805164802758
Ni 4.0029400231761745 5.640488880592809 8.580711087226431 1.0513572498805828 -0.2070144279134628 0.46859872065300584
Ni 6.9910587857368425 2.2338379989631973 2.341708400188817 -0.16628172608079106 1.5909942653283373 -0.6833120598726231
Ni 3.8815186213156356 2.4517367357644004 0.0553910544055336 0.03425943540350229 -0.21532526177200334 0.32462517115111195
Ni 2.686252318953825 0.895840693034957 7.980528077207786 -0.406595539477332 -0.24153148785372597 0.36018789874707
Ni 8.835378356129082 2.081523172850348 3.6633069088443375 0.5287054561369153 -1.1212742865866947 2.405114798075806
Ni 1.3788974928216926 0.49052028265827785 3.431038547358207 0.7565260221624519 0.8968321501150877 0.8875481537100005
Ni 4.256403322609183 1.765840686149226 4.082807090796757 -0.8382858171397628 1.4009252070199616 2.1519102447595264
Ni 8.84732406413781 8.909073317967344 4.23696875532323 -2.065682129598217 0.4771874907632814 -0.0065959080499628335
Ni 0.64778162814563 7.227237933298843 3.291745576828435 0.71133039946242 -0.2305680468636868 -0.7561629823960784
Ni 7.29445721235346 6.530655597290339 10.75767962118632 1.454780048056888 -0.21979512461789888 -2.5941469304792357
Ni 9.4108870410216 3.855465511480709 5.656096309954958 -0.404178188285091 -0.041588879185379984 -0.73307653289026
Ni 7.641944794177738 8.309569831700886 6.594043039086765 -0.589928564613455 0.7006919459119674 -0.7739529593896477
Ni 0.49238497854256696 8.396958653939395 7.9031920710874 -0.41536171570573627 1.129108437919133 2.842575402563111
Ni 4.814421084917715 8.081388951263532 7.505370858523595 1.2269533113837645 1.4205087855788439 -2.6779607797720977
Ni 5.493550093017324 2.954706495077564 9.343366064699415 -0.7302979417038584 0.01225439188732083 -0.6490305129819339
Ni 7.60804379591851 2.024586037431883 9.795192028024939 -0.4547834120364684 1.2824071214766946 0.5456212580556474
Ni 0.3834656858820346 2.8160667320274198 9.670233907105638 -0.15212626051601544 0.20934847536327816 -0.4799146598864573
Ni 3.509039979227623 9.046359672714376 3.6780120660044116 0.39782190704976006 -1.6523664977882317 -0.849979194317291
Ni 1.5438535284323687 4.8972327554644455 2.621888355472027 -0.28528292190806354 0.12716650524688422 0.6566114106529853
Ni 2.1948711182360667 2.494218718612116 1.9041881506005731 1.4368694863250542 -0.47768782743846766 0.6193299005937076
Ni 0.2721600712203882 2.479340625946644 12.08098304835701 1.1657520572840956 -1.3966319789612465 -1.3737607307900277
Ni 6.573203370819456 3.956463606100521 11.799055880549158 -0.7853606870059571 -0.6042256979624174 -1.067033522965259
P 4.872006728481423 0.5428793265180873 8.869791581836363 -0.6555929966908 0.19578719173907572 0.46075145669444517
P 8.973952328497825 1.0989393461214925 8.37247418192245 1.3165516285688874 0.11388701452915871 -0.4380753552531681
P 7.013888152183104 7.183505927504503 8.509992683788141 2.7581977103469786 -0.5288635789813344 -2.0587874593609126
P 1.4290769853933636 3.0128372614300245 4.353866577903989 0.17260561141628986 0.10029410633607244 -2.6754992056054827
P 4.5742005097839185 0.002798923560187987 13.224524717001097 0.8746620417759516 1.8113434626774934 -0.9660097375520138
P 1.6990631445268765 7.9729189149702835 1.4402012497514514 0.28095884061141285 0.42309533690456813 -0.015525092218792617
P 0.16884990408275774 5.287033144098551 0.6811675793561731 -0.5787473511856549 -0.6967491592141355 0.46436668484952925
P 6.24565036545978 6.728290804219933 0.5776271448336381 -0.601657423014609 -0.4834854079568512 1.0919557401282356
Ni 2.6046248806723185 4.75062292129597 0.3003852134084357 -2.289217180874522 -0.41202185269922587 1.3776852626554144
Ni 6.018653717287649 0.37891297072906255 10.818617769900863 -1.0331936915976787 -0.8573412911093171 -1.0776611778824343
Ni 7.137884789287067 3.3822707348360326 5.501383883438469 -0.21897982780545514 -0.19467776072498086 0.8545279900302378
Ni 4.808236760865991 3.1772105795768604 2.3446793193875255 -0.8185736834228161 0.8906633023002144 -1.2457922984671383
Ni 7.3960286257683405 4.879441075479773 1.3679574423715286 0.11944985332891685 -0.08531074555336275 0.46634900538688073
Ni 7.307972498047047 7.156475356117328 2.553631463385025 1.6817413514059232 -1.416078003501 0.8512904569295469
Ni 4.689775939668511 1.3529759643495687 6.7996520766022 0.03304201805663341 -2.4587968609802946 0.13315974671584163
Ni 0.1555601864396892 0.11563558136473098 1.5732901590250776 -1.6341715720467598 -1.0733507234325386 1.6579357643458932
Ni 6.9861996739819165 0.7676287529869232 0.339154722091362 -0.29907586192709784 -1.2065600924393929 0.6842091177655959
Ni 8.429882190646374 5.721035471965579 4.727738102703956 -0.2280689345909169 1.3646857650719528 -0.37973522475137833
Ni 0.22806715654521723 9.073465433451723 13.099869233216243 0.3475707242036917 1.1357621957902244 -2.8077775781576353
Ni 3.1138165587122937 8.001838618780553 8.844315550264014 -1.6697957490082724 -0.14350200918211414 0.15996555405477614
Ni 4.240453781703746 6.841582357593022 4.353027276782683 0.20325984596703706 0.3306011862288887 -0.09791866412536039
Ni 5.616559869900267 9.081181740513221 5.10572342482526 -0.027663270243223324 -0.4786738455008208 -0.22868908467341906
Ni 4.476717517284691 5.047357691753509 13.033221393222941 4.30521402743247 0.20001048579180392 -0.5335144474897844
Ni 3.1131774492358235 4.918539537569705 6.378680063120145 0.3798475819595265 0.04483978202250988 2.5061133866780714
Ni 0.4083937750649983 4.838810630380065 12.265312559906624 0.8839290689001744 0.25413323577813646 -0.2400857565461349
Ni 2.8872710466412013 5.931885207188068 11.743633810536679 0.23488055819611162 -0.7638243555960781 0.1517922742153644
Ni 7.266900315515073 1.6101423392785938 7.0040515054467285 -0.331319552452152 0.01520421854426414 -0.07169341188024428
Ni 5.91760862932398 5.322823274780875 3.183816903856431 -0.5437276405773603 0.279927314023105 0.46750214515471744
Ni 2.1542594704739035 0.8245987837460887 12.685733811398663 1.207351735102753 0.6419260407266687 0.0017087551609906053
Ni 5.163196284363706 7.959516413301955 2.239955592466644 -1.090022527661265 -0.8927903759455462 -0.6874399659980677
Ni 9.238007927636447 7.819213085879235 10.280652067416577 -0.33989212461251134 -0.24191792465886724 0.10924540199208928
Ni 0.1967056785880806 1.2059055954112825 6.1316106780524695 -0.07402180290310478 0.1110909398412603 0.2326683810361412
P 5.38830380011274 5.665094595436906 10.77484628969768 -1.9803148197753058 -0.7243404385688429 0.4478116087043256
P 8.434929275776733 4.42723352620212 10.640313744900734 -0.07273830820499086 -0.7549188255763322 -0.44484532698715007
P 7.723769604503449 8.735902845850273 11.69394680820864 1.7757737931029998 0.09084273111518548 0.5875276684814462
P 0.3834036546681419 1.7412631673114434 0.365298059146496 1.1109124837363964 0.3714547299101409 -1.9466459667679508
P 5.939939866325345 4.25830185370105 7.59603605669589 0.21860187564074607 0.9202479579358668 1.4650135528594381
P 5.195339731562641 0.8312708987070607 2.4982507475151405 -1.5705573376302242 0.1451961090550854 -0.7116890683534195
P 3.5494072616017243 5.503174329839462 2.253945510933198 1.46208198103494 -0.35121423449354994 0.8638855199857379
P 3.1006396250944843 3.631128686570947 12.108948787286963 -0.7183459115483048 -0.2792302879560804 -0.7083085819169609
Ni 7.542911021331195 5.808095340797081 12.789646433204554 1.009000639291243 -0.7375474241774201 1.8233633699565048
Ni 3.3768758989611234 0.19471034120786604 1.2349935353925645 -0.5161404749877111 0.06472649364410789 0.6030697299811033
Ni 8.168138664025571 7.798817974644823 0.26519283805998745 -1.2602966627309002 -0.836538495431353 0.890658417204208
Ni 0.08935690347928567 3.1747293310211533 1.8727007304818968 -1.4251043753693264 1.8843944170268967 -0.48053660974117235
Ni 1.6610455293456796 5.775162405421329 5.023188075140414 -1.4414463070624595 0.8187940269637384 -0.8417164400878664
Ni 7.017318666284744 -0.07553146171623487 2.696637847946463 1.7237557481644958 0.806292809172934 0.44980884164001245
Ni 1.310916921596576 6.801130487199976 13.381493763889651 -0.5951844136957557 0.6134785840192531 0.07008338708064704
Ni 0.8882475085343664 8.250611982496524 5.814605798655181 1.9052861728742414 -0.7053348440006175 -2.179792572992091
Ni 5.445475902250497 6.173083243874114 6.439990399118044 -0.08794304096988725 -1.5138747973365154 0.5873541190180595
Ni 1.6045407326907095 9.231447656833858 10.29564576370794 0.13994283107594607 1.462441678367204 0.10697974588636415
Ni 7.9772892959490855 4.205537727217183 7.907180866114075 0.43997720026157133 -0.8990425275028453 0.7928873344003055
Ni 7.244973221270888 1.6454343405160214 12.082083632470168 1.0931168503158721 0.8263777528482671 0.23686673538820496
Ni 4.07858050945016 4.553429451798642 4.38012645845189 -1.1051604117439675 -1.1684758839731617 -1.4573987166266575
Ni 2.408023527307603 2.5131852321932424 6.13635606591526 0.979874411349248 -0.6869609694791201 -0.49678932415460897
Ni 2.572660008180044 2.2281893990314545 10.37080785774145 0.24478753289717842 0.15781559759130886 0.056305873680580446
Ni 0.9198900066877743 3.8285665214563367 7.591620562106985 0.975439772616662 0.7949156776842439 1.1976586761847052
Ni 5.439949485012784 7.7063068779257815 9.606846465309212 -1.5276733937825044 -0.6969599896733609 2.4999144569562106
Ni 8.717096109638264 6.310801937384639 7.212384277172179 0.8910037163587688 -0.6185351726065541 0.09014904748227055
Ni 8.212331204589722 3.2844211942547124 13.580486138589867 -0.8730131933186192 0.545564436675783 0.35650145103441827
Ni 3.5471045877526777 7.596126283916098 13.355549678612475 -0.1433785962303724 -1.0780972369785884 1.38906136570284
Ni 5.992027288657654 7.632865680144355 12.308547376122947 -1.9928895711165227 0.34582108850243665 0.7898500902358784
Ni 3.826996943771477 8.734229882808926 11.257912488153188 -0.5633438721463911 0.29181532370994256 -0.49198290390490107
Ni 2.0677447244311553 4.646927408738702 9.756620831253093 -0.2094970851260005 0.00817507961162463 0.26203552134434877
Ni 4.737718549072537 2.1928316071126255 11.508173661135704 -0.1781648506716222 0.19430520787691052 0.8214533189634562
P 6.647828800866106 7.042328523886022 4.952895431397479 0.17272979569897995 0.7254683815256989 -1.5274859603620468
P 6.089171929081104 2.7598063007605114 0.31910078253335966 -0.024417766722732142 0.9302413217031527 -0.5354707998852068
P 7.31710800409306 1.00868392990764 4.881722132390644 0.5872530746638209 0.12343094946385194 0.6774843974472525
P 7.619228211756736 4.05064766586091 3.644282123516827 0.48540087981200924 0.14158756576822065 -2.6825455709293027
P 1.9542839950201767 7.0491049640703585 10.37214246870702 -1.0802279101683459 0.7673429102722977 -0.7491585260537872
P 2.9293958800755955 3.1783196224919115 8.160152615170327 -0.09737924668212261 0.5724859436569754 1.331012541189224
P 2.6989311231267386 0.35352340690941236 5.427253763236082 -0.6169678281194343 0.6972803491272572 1.7340327046104715
P 1.8354378284030608 6.768911850650868 7.15722349015155 0.00412662057386386 -0.8024801202950631 -0.1530649702802009
