# total energy = -340867.5100647225 ev
CRYSTAL
PRIMVEC
9.24957062479878 0.00000000000000 0.00000000000000

0.00000000000000 9.24957062479878 0.00000000000000

0.00000000000000 0.00000000000000 13.53768157031913

PRIMCOORD
 96 1
Ni 4.830329178118852 5.373593448769328 0.72263841546342 0.9421753541365773 0.17448611626845434 0.26530056524886564
Ni 3.5871406621523394 8.32814673846182 7.118289049602076 -0.24217683474720872 -0.2140361106469346 -1.0035455297139426
Ni 8.094900320492789 6.959469300237075 7.700855670040084 0.4366856739944931 -0.8582663740267477 1.1493247649660077
Ni 7.458132142190771 4.170622065107583 8.426272656465867 1.242846071354621 2.7160398460320065 1.4073136270448086
Ni 8.601508543460698 5.572893943196846 5.825169502447062 -0.03795642463911528 -1.1568005045177625 0.4155733174959101
Ni 1.6701116895311152 7.770027657673014 2.323472672258506 -2.3740149913472086 1.1475869563392946 1.7384902261611932
Ni 2.5174463390654354 5.868510214691877 0.5475976944050257 -0.4431193454349788 0.7535011192931992 -1.1646038026122651
Ni 4.037446749807662 6.807572854351862 12.282264108109947 -1.1725058310681613 -1.253389908308738 -0.10195761008142441
Ni 0.048516771867111716 3.6369126007291466 10.238413350129038 -0.5154604182015509 -0.2417299770177772 -0.3326464987936916
Ni 5.0676639062255795 8.459712628503913 0.2610164033228959 0.29390691613164865 0.2543988307346974 0.48969282231914374
Ni 5.059589031225106 2.4687381010900653 2.256108975648019 -0.1405940915066998 0.25284896974907417 0.8534576397841948
Ni 1.4131493729352618 2.154650437411817 1.8312965540594859 -0.6242800455101313 0.5864465196021255 -0.5314349392529364
Ni 3.494422967988816 5.146923475388313 10.288610768946421 -2.249578740547294 1.801271166043156 -0.2013790840045564
Ni 2.2892224378492774 4.925424011887325 4.45408625094898 -0.2479044812596053 1.330900955312024 0.4940071334237814
Ni 0.42907277373654995 7.230555710905923 4.349819543124984 0.9991067772162987 -1.8029125583013208 -1.9482040552836901
Ni 2.9946316784405513 8.906004402585118 11.601751936291615 -0.988012209965034 -1.0573921432207531 -0.8809368190410699
Ni 1.9512708824170504 3.784156512679379 11.8414101564947 -0.3009651085300107 1.1141232773642105 0.14319733345750177
Ni 7.667949398216845 7.8750380309609715 5.260282510961983 -1.0337325948202842 -1.6798477339276359 2.2998697754923616
Ni 0.3831135080981108 0.9978251607115471 11.625023855536968 -0.3856904138935487 -0.2682799595921638 2.0069969570521824
Ni 6.1186648474385334 1.8167913776840632 5.641760695005014 -1.4837872339225155 -1.1556273101452679 2.608128589470308
Ni 0.1017693238032302 0.3022102902668969 1.887653261837711 -1.6014131466688162 -1.9903238672718753 -2.220717593341227
Ni 3.0016428528395886 0.36729581767621927 2.819276471986949 0.8798225029309685 0.6824273432748247 0.8221778558343066
Ni 7.205729863825427 0.7789137270217092 12.484490241669938 1.2630143187723797 -1.341511640948335 -0.7821288103322207
Ni 8.746569556785373 0.6817331151173741 5.638404025889698 -1.144488777029945 1.2899018871918428 -0.6547363051174595
P 3.4878927712530374 7.716990620728318 1.6587855905184223 3.585204612138813 -0.6637732185087472 -2.0118658551087094
P 7.23963878908515 8.108746927452366 1.1665743239517024 0.7171133246927843 0.9857193001657992 -0.7706429211798083
P 0.9827206121711408 4.1141626870973935 0.47086603284553463 0.9636162976191727 0.4524339379676853 0.25695502149764776
P 7.608132426134293 8.676957289599152 9.985082414890787 0.31607033960256536 0.09971715078667988 0.2212082029153416
P 0.8346303645249827 0.6253273846157783 7.473165469038734 0.4903741646568845 -0.48466940096262334 0.579225319263338
P 3.405127614890786 1.5556112569642504 1.1853796256280649 1.7703037711273641 -0.5652688570832458 -1.01401763288986
P 8.692006340716874 1.6882778458895709 0.2990830104986719 0.9569113747951715 -1.037003295151756 -0.660571680852314
P 7.876897194620875 2.819352318464617 5.965799046570446 1.8163288317072266 0.9196560899881387 0.02113472509608618
Ni 6.261737203117042 4.2055299439756135 6.265306612352647 1.0908882180956698 0.48026073037196637 1.0803947747635134
Ni 0.2988129230416114 3.041924732137488 4.19692506858851 0.3963160119281949 0.7699762341300869 0.2487388042354426
Ni 1.0397442139786148 5.954891953099014 10.307780503698407 0.11933621056918804 -1.6358651576990988 -0.6335732978865992
Ni 6.818866579867989 1.9643775237408445 10.379746786563459 -0.03965386694619622 0.5432756406416063 0.8233068272324273
Ni 5.513983429018126 5.628557858148569 4.589503662125321 -0.4810670283233457 0.9157184454966294 -0.3160461712328492
Ni 8.051991563187864 3.32299142931895 12.519782902668576 -0.2872901821460794 -0.31582839879508834 -0.7116049932800453
Ni 4.5795363250113335 4.013148128242661 12.068517634557871 0.7307152317469351 0.5995779147777609 1.6753315912248372
Ni 3.5930511376681507 6.878443063118913 3.6444657999563947 0.8150674700417705 -0.3497924144453589 0.12061790549508905
Ni 7.206266338911369 2.7259964039402313 3.7677394500925034 -0.38316841880264335 0.0821914831980907 0.47232373491307683
Ni 3.9116155934428813 2.8849872703585078 10.27375965863627 0.3192723914796308 -2.5028234030728895 -1.1591641196539326
Ni 0.047743507777719206 5.344494300142189 12.447843443557819 1.0364726194592666 0.6916540040794154 -0.6322386382355757
Ni 0.5255485683728024 7.971122568767304 6.316533508360811 1.3942547369783214 0.2484899214494301 3.5804922942648076
Ni 4.148450844745456 3.665077542741111 5.721457768849904 -1.7266037591362522 -0.24827626277672726 -0.5903018887924737
Ni 8.556722123354975 3.2937905354168904 1.9036818424658006 1.0194092362190765 1.417361498199114 -0.26896413014338194
Ni 7.0685587340922815 1.4059439575568315 1.7598445473113016 0.7759005700343218 -1.8550337044765923 0.4118994681887487
Ni 0.13048646517089682 2.828768381179947 7.608948238247743 -0.743643509772829 -0.5766133355617876 -0.20891884402502728
Ni 2.25083672049307 8.662601956264975 4.75716785075201 -0.49360732688220155 0.35873651101252413 0.2841089562046204
Ni 4.861259741694552 0.5618929055312952 9.455921889258322 0.5784915264211069 0.4792428306304133 0.2039249903548617
Ni 7.739217338513129 6.3207494625706815 10.121799390714969 1.340853952759678 -0.48526126891035143 -0.5995018101241868
Ni 0.6296238100885392 8.17229147642517 10.14168596717662 0.19720978311821522 0.8358692372784702 -0.18758948641963177
Ni 8.967116314530289 1.152533476012733 9.352019614509947 0.6776085817299428 0.3972855749303158 0.2833800484583959
Ni 0.5197768364137004 7.560293647780966 0.3915555910453422 -1.2839009324134019 -0.8877258169384453 -1.566412205113599
Ni 2.8826563786057937 3.086452164270688 3.411577340363674 -0.26690673339372095 -2.268004808462965 0.906476100962755
Ni 5.531724105136007 5.766061972417817 10.488088855126525 0.6912428846839256 1.7116378818550393 0.4435294363892039
P 6.8212067211911505 3.803608359330006 0.7393468395193846 -2.313161093284629 -1.483735554748974 -0.9993101514763564
P 2.5487838837408163 6.745055007698704 5.664545161887797 -0.3158564238195463 -0.465229804180773 1.714992400149569
P 0.7844690190323449 0.8775788949828327 3.6733688576900514 1.2020308371104718 0.5467499723434519 2.5829747159125
P 6.905377812261388 4.317523742951266 10.886948831954085 1.3020115259711835 -2.197492304264699 -0.6880675722797375
P 1.7639948295709955 2.006620311973567 10.44988535430813 0.6295065840163933 0.6928927615825228 -1.0158485154510117
P 5.743752008498981 1.0247321611426812 3.8118589761689785 -0.4110332635337115 -1.3628358563474077 -1.6174912831776016
P 0.1270687488906273 5.0076896914454245 8.26311670847518 2.0354418426564362 1.1590905861035201 0.06932773986154511
P 6.1582992568051225 6.767540713456039 12.706480857361676 0.00721991478720692 -0.9597023072767473 0.006502577005208157
Ni 3.0486399202822123 1.884155999251595 12.572485105163082 -0.6123388139878552 0.6275713146668934 0.40532052941965035
Ni 1.636397005250784 4.264292465027176 6.545333657815835 0.06404000910004454 0.8247625858423473 0.398321729504314
Ni 2.63500837945035 0.14625235799828362 8.958953568610566 -2.6722115359931466 -1.2575756642553118 1.9014009788872217
Ni 6.139985107319511 2.6134291315968485 8.253490680510698 -2.4090794391505086 -3.2816655722340387 -1.0885518566530092
Ni 2.2646833274526466 3.8275462476475637 8.851870366585374 -1.3129492559296096 -0.18587070395631214 -0.2792752822614029
Ni 2.137640477359272 0.05823159570788869 0.37886055560645193 0.14641841149796075 -0.6782413302179351 -0.361989470732183
Ni 8.550904143543637 6.953225840185162 2.4243688366115133 -1.3935535971462387 -0.48672294105754244 -0.46442016379528406
Ni 2.1767846594921556 6.666341163192361 8.163506234414346 -0.9684659124019902 -0.467373332886337 0.28604859642949443
Ni 3.1866435113556126 3.5371929817370336 0.9642399704174777 -0.19288338782871944 2.734351756967317 -0.8106387448464555
Ni 7.567915293829524 5.730469625336687 0.4198565017428813 -0.25500869640455437 1.2132236205024978 0.4550958010705646
Ni 7.545226097522349 -0.014500551590199043 7.890911218805546 -0.3970698593750839 1.0769780357724805 -1.488532719027301
Ni 5.349627811740429 8.546242360038208 5.308449649066187 -0.10281353032381649 -0.08565604470792344 -0.718134566868447
Ni 1.523848232048295 1.8587381796624727 5.709801460172243 0.3806875613623185 0.4791631264324135 1.0491224470127931
Ni 7.680390070468435 8.937739678789733 3.461815457291024 -0.22601822270947527 2.401226004544361 -0.9152566753688626
Ni 4.353412076286708 6.059513844428184 7.392481466027121 1.0080022799337154 -1.3454539134255343 -0.5426338932925494
Ni 5.763592337108393 8.299796805040911 11.344821068235282 0.14478987475560223 1.2004133561117067 -1.164507386243717
Ni 3.5431589546755284 1.1228516044474153 5.425374394047284 3.0057509789147527 0.22487613868523207 -1.180241252039206
Ni 6.478223399435604 4.725272556978659 2.5742710751082933 0.6311070957342938 0.9559153294304893 0.9911299296584091
Ni 1.2078644064283552 5.659617915710531 2.477395699028718 0.19096817308387756 -2.6301338900968054 -0.8175241591123791
Ni 3.3216132433223056 1.7523126220960825 7.635211468575747 0.12338852626169072 1.3835000695649784 -0.7099065225317
Ni 8.24351316886922 7.806304472967242 11.882794584589913 -0.1576477045548769 -0.24108771544808802 1.3865257437651797
Ni 5.755286222846737 1.9133568931536542 0.024148778523755604 -3.398730984491179 2.1163184636978456 -1.1443288544133132
Ni 5.919660339265329 7.769324690319021 8.767408839003092 0.4527506978771557 -0.8028513875915528 -0.6327628861701619
Ni 6.016836326384441 7.485205634889957 2.7949353023978905 -1.6442366695922455 -0.8891671773706621 0.15388823751244463
P 4.345975421647096 4.472269056534241 3.1079398413767616 0.36866482586982957 1.7738863462723 -0.29363540763781687
P 4.599441400613878 1.0209860851115333 11.591300846643234 3.2794932471730682 0.6175879782019363 -0.2677279437434357
P 8.868340151723798 5.072260942737878 3.747866747986525 -0.9964228026262323 0.023737195715939765 -0.45618389192842085
P 1.5955786508669423 7.1408163784264245 12.048806799934718 -0.19070334945826511 0.26431377585556415 0.3886813782010725
P 4.0038615595135925 7.271577555839604 9.453796337969537 -1.7673194916880592 -0.1433189466370306 0.026830489929282823
P 4.300356540201117 3.6849641192027605 7.886769261159255 -0.10680696775392573 1.1942841032855174 0.46360203876936285
P 6.498766695399009 6.450039958282745 6.3990322770941805 -1.2005966757671065 -0.03701411533050399 0.40263012707168083
P 5.200395242144032 0.4877668479668026 7.254451051199424 0.9076387538122884 0.2936066112824105 -0.1782998335875897
