# total energy = -340888.1870568013 ev
CRYSTAL
PRIMVEC
9.15069029057056 0.00000000000000 0.00000000000000

0.00000000000000 9.15069029057056 0.00000000000000

0.00000000000000 0.00000000000000 13.39296020620263

PRIMCOORD
 96 1
Ni 6.724824155031425 2.019557395741226 11.721398571388791 0.10298502290467423 0.8302593472908605 -0.6572523866710939
Ni 4.69838544002605 0.6251998825646082 6.075140684936026 -0.4621028285160171 -0.8365706342208689 0.054989468862002074
Ni 2.7094828574961216 1.5810837585335578 4.712098664825588 0.4615011903762761 1.06098860232276 0.9133648576627882
Ni 3.6615939037674536 4.227719673601266 4.427859916178039 -0.7362302480278933 -0.804909298561846 1.0064835292963439
Ni 3.5911244361435153 2.5348876825493942 2.604649801796845 0.23368242412295237 0.0981688324629535 -0.638773611140616
Ni 4.9738578271642195 4.53570446412443 2.265031074177725 0.6624845816043106 0.5555470018097916 0.4117811974433295
Ni 5.547432259073851 4.440427474525619 11.702206828180417 -0.7004636319512453 -0.032198439109415514 -0.8649494424738782
Ni 6.09488146957505 8.229316633989296 12.408189921643727 -1.5320620097685034 0.03976622415434442 0.7486147377351752
Ni 1.7474067092584897 6.664319789373785 0.24614899939619891 0.602337479800769 0.018365904101697403 -1.0637859625622388
Ni 2.651851808658884 1.4991759277710761 -0.04826440203034672 1.0868793540465926 0.12244955938718913 2.3052135563027782
Ni 8.23628946015855 9.067181309232856 6.970406726685002 -1.1564742315265955 1.1336328081520475 0.20034781452656464
Ni 8.930314431262302 2.7635268356531113 1.271946896075079 0.6604852917860947 -0.781895354165176 0.2633629819065206
Ni 7.12753689372275 0.8717762192076632 4.786804902156042 0.18256863616627267 -0.15889623224999733 0.016417779236391077
Ni 1.258823890813491 7.61899302898815 2.303830001943664 -0.20548153620870416 1.105869007775218 -0.19535113264292164
Ni 7.656446805248997 3.5528745498082266 3.928611052873611 -0.12710017078532304 0.6914228619052157 -1.5312122601736984
Ni 7.6154242596889254 4.278249786602095 12.741554152298692 1.7251742257785772 -1.3885669425649247 -0.40267743536984846
Ni 8.419971270782536 7.440810783361178 8.992301208782695 -0.5217354525769853 -0.4390359193942245 0.08668577152401846
Ni 7.319353668210868 0.7341498339247088 0.3647172415522378 -0.5224543330208808 -0.02138926430905349 0.10160151229358631
Ni 2.1155206871283494 6.570140882636274 9.172772042106429 -0.19805259073448472 0.3619143945198735 -0.8945086441882336
Ni -0.04905319155238067 5.199532156542426 1.15559129088456 0.8690423815963292 -0.7651325328845404 0.4723903264849542
Ni 6.4191178864454566 2.110963643253954 7.1038539916116585 1.5455528451660867 0.7895816670658402 -0.2889850533499991
Ni 3.3030057947193727 4.702841826304827 0.13264749457600922 1.2390876327534532 -0.04154774153479941 -1.0846049561901192
Ni 6.104700160493175 5.413960287282816 4.551021804970517 -0.5554421008008111 0.893413868462158 -0.3499058000947716
Ni 5.676219077323339 2.9484256881150377 9.681128587676291 0.6438985910720072 -0.012528471484313906 -0.30704165374139375
P 0.269785232985685 5.699672297102609 12.354283203844398 -0.13038141263975608 0.28556034393916624 0.6194697686056815
P 4.384169029265007 6.181593412855721 12.137236145479807 -0.1325768776291781 0.5203838236450974 0.9806115466255886
P 2.8693271193393826 8.549288829081654 1.0371255364622425 -1.3251815363297437 1.1794994887771753 1.2568210454774742
P 6.231620237878454 8.179848001087722 5.938478782432914 1.9047536974095391 0.24285586309210433 -0.17851734891503448
P 4.999443157832514 1.2287730231759098 12.675191514576014 -0.9837467498204607 -1.1600195256756924 -0.2684038867645378
P 4.070721276506875 6.208642854005747 8.302550525216557 0.25670459604973855 0.4521755420999761 -0.6776738877502393
P 4.945600494866762 1.140496311817887 3.741618522422806 -0.2868147851715577 0.5778988871424305 -0.2708094108822368
P 0.1906647025528036 6.026791181483929 3.2067835387907926 -1.5497121187500988 -0.6333547541178899 -0.16287758549524853
Ni 0.918299244833798 -0.03064749265888769 4.502311764312292 -1.4276978471281152 -0.9899919593992239 0.153153159118633
Ni 1.8132550781744565 6.599477996414009 4.364725642067586 1.9965737048363295 0.4619925281903979 1.309710437277338
Ni 6.037140612451683 5.641995494812818 9.20622696661404 0.45004178358642494 0.5737534975154893 0.3599883811417542
Ni 8.687455105104748 2.600809256989448 10.137814844207673 1.453112173436162 -0.3533351374912947 0.7509518705087841
Ni 2.579497298789714 5.74726503844946 6.548983571106173 -0.6808484288234791 -1.1006910631187043 1.0062948103243057
Ni 0.5621159372519646 0.34553007368911953 9.066190289450532 0.00973933877495097 -0.062083913814938246 0.5462450076825753
Ni 1.8971943622303438 1.2606906316777013 11.25070260768532 -2.173825556775379 -0.38456529915016996 -0.20402937714320993
Ni 4.37608896954394 6.93820910705358 1.4984182505967791 -0.3478913407679041 0.7935229111017753 0.4179317904257576
Ni 5.853898034972217 8.384484892981519 8.259586203130086 0.058433461546544524 -0.7587649387952997 -0.7031416930040406
Ni 5.499793764274446 2.805363792668648 4.974467263152241 -0.6445457377377029 0.2484007041697335 -0.3143127334815103
Ni 0.614815678972913 7.448030678174225 6.530648332529614 1.0977782603472834 0.12795969057214093 -0.7573929981484375
Ni 5.124286028471832 4.698147522072769 7.1721986688989805 0.0854387864907948 -0.33474811851772673 -0.9522023993552764
Ni 0.776917416165197 7.341727106509858 11.07087598297355 0.05881115660093742 1.265869785943304 0.5015656624973297
Ni 4.6169625958606435 0.5621195975281691 10.492366583671425 0.9395122054821173 -0.44415164335423507 0.41915512130989746
Ni 8.027983141369909 7.501159587280132 4.793340325318881 -0.016564846337216634 -0.23269717739154763 -0.1807164134488823
Ni 7.1249472483081835 6.367507991964349 6.802271024169874 0.31905127660776017 -0.5934172944930038 0.5440657406430693
Ni 2.5725427740014797 5.266753129035018 2.3092682573142533 -0.9273264620492029 0.7669739569686533 0.680548381084557
Ni 2.578710339405782 5.267274718394135 11.065076275327781 0.23645870131650887 0.23603729750837413 1.8436581156497989
Ni 1.211258601538172 3.420720277450751 3.6159786266399934 0.042456369391997845 0.1481377081819126 -0.19147082375190896
Ni 1.5539611118594436 1.0499044757606233 2.421286435202637 0.11526332605139503 0.8122243441660205 -1.2191315013465005
Ni 1.4172223435560403 3.930340533380159 8.297943152544352 0.6137994576937815 -0.7160982531647087 -0.8205883998599998
Ni 3.6901257567802364 2.745079043583268 6.948549387330822 0.3199781592974038 0.7221786550308337 -0.4168943503001788
Ni 4.367295155963029 7.151374442503474 5.746959405386399 -0.6098849531307238 0.4469158363629335 -0.030619781768385975
Ni 0.491368288636497 0.014674962372225661 0.4685592774691904 0.9303637062136298 0.6564162639230436 -0.7728512416850367
P 0.5013315604646938 5.854163404997031 7.827958197493573 -1.1308537027450136 -0.5000083453125389 0.6653184515086801
P 8.749322923648501 2.033768418104552 7.908422964362496 0.4481373674748605 -1.6477392834288653 -0.14584916925805202
P 1.9687070085725171 3.3021913832639087 10.370517818967253 -0.5094952017570517 0.1489128957850403 -0.01236752042641741
P 4.118542785116497 6.119231457024382 3.7444442556525512 0.16419733274793658 1.9199190922960678 -0.8530771165163245
P 7.387141983515131 4.259179747577516 10.312459432883157 -1.4465111231798766 0.4656928598601206 0.4877102446714762
P 6.5480694171241405 8.135924686635716 10.367664633665973 1.1131614276715731 -0.24950602141877026 -1.8015681284582845
P 2.4632103237780263 8.777946283566392 5.885522821377663 1.1617187677549865 -0.44186850374701314 0.7081905682818578
P 6.9333500903923255 3.925939051244448 1.4057656790364752 0.8821470372990873 0.509806048129251 1.4146093893752734
Ni 5.282922399167663 2.9921934408283604 0.4132131560525087 -0.4683863475318837 0.11994453357714827 -0.031999178614415855
Ni 1.7861324315003426 1.3479973698415755 7.209939776841868 -1.5318758618996264 -0.20588237119154867 -1.4597692737413634
Ni 7.136541173185411 1.0004998976926265 9.243807937472987 0.18478184176750756 -0.5948008051040917 0.29015747639154543
Ni 3.0076489571011606 1.737048127600225 9.118248567766672 -0.8844774852044768 0.5151752828609644 0.37712864036646665
Ni 6.932059843030299 1.8600700108278871 2.4189832064010597 -0.30263066915789166 0.10221086374281106 0.6441158492891359
Ni 4.406871892422388 7.336886391229626 10.227989408777644 -0.3008681779408302 -0.6400689329132718 0.3816483826136911
Ni 8.23408414374544 7.283501262789417 0.3411642792464003 0.3685473264553588 0.32978280409265137 -1.0992653864157715
Ni 8.0518755942937 4.04918970173488 8.125696959851757 -0.635796530790163 1.1634822874133124 -0.7721542156180121
Ni 3.287165949445118 8.264318025193239 12.402711403234889 0.4904934638435682 -0.12761979073421895 -1.4698788513715395
Ni 0.2502988375428625 5.139238256766536 10.20303822096175 0.0015393194626618651 -0.8058063564548188 -0.7007657365726964
Ni 8.697502563285642 2.6728251913097174 5.747160720577637 1.2733948906757553 -0.5280559954783745 1.3542748541512744
Ni 3.826965182679259 2.635526976787555 11.353185766061413 0.6459197352670941 1.439220245945418 0.8371375624679325
Ni 1.0001613221437256 3.5422139953631038 12.545253539460264 0.6707604484598577 0.013223954889441742 -0.2990426946963172
Ni 3.401979663284562 8.596424035902963 8.215429546070052 -0.23735061700315896 -0.13175643861041178 -1.1742179286632615
Ni 5.745004817893284 8.33143834009021 3.5717020955342687 -0.11788096617990021 -1.508439485253557 -0.07385982340394376
Ni 3.17920610279829 8.817221047238894 3.363173414966213 1.2835008687615057 -1.2211583019685421 -0.06537364030980355
Ni 3.8261599219143054 4.177491533387294 9.284777409028097 -0.9266767442803461 0.737359219426014 -0.6520482167623352
Ni 7.431376421444506 6.2765318269056305 11.371440478561478 0.018696033747606512 0.5560961894450422 -0.3988948283989646
Ni 8.149174886495405 8.547541047194084 2.6593864872255053 0.23576193235980042 0.9103342983665806 -0.5355137373080003
Ni 5.074780792808216 0.6356627820946967 1.493167584381662 -1.486489720455343 -0.6267115377697594 -0.2787402356935393
Ni 6.169496200000396 5.852928061778068 0.3339388940190452 -1.2598947993067915 0.15753483312609642 -1.371572207779141
Ni 8.262744106425375 0.11410636546295588 11.404521139827198 0.5979969434438862 -0.9223531772043277 -0.6152768135702565
Ni -0.034381889456359345 5.15233289488754 5.158941523574464 -0.2011278872256988 0.07066548483636216 1.0937987068742454
Ni 7.254539327322625 6.168901405117192 2.3268659502356397 -0.21039619990150218 -0.2123589800548278 2.0839755285907655
P 9.00265979044096 1.593803218343618 3.554303887666019 -2.086111343986846 0.8303537067768796 0.025340535647317648
P 2.0192462722638576 3.4465709781438587 1.284137445973613 -1.0167383742551328 -1.5363449534145734 0.19652124169162286
P 4.951228169530926 1.358767732572828 8.3688857108677 -0.27582948980464755 -0.868670085858575 -0.3111957851190834
P 8.75700035298709 1.8481924145448239 12.551802688658869 0.7969010835453888 -0.0011783365788173255 0.19983385100462359
P 6.412328074086418 8.068950782786915 1.3029887834949838 0.3852047325063817 -1.3700953661232986 0.8256210771879007
P 1.9792211519694662 3.6796482161453308 5.781499601788595 -0.5517772503547143 -0.6219768512982513 0.1479315057083775
P 6.912751886052437 4.135178740465195 6.037238524840149 1.4095389168309014 0.02499755048560211 0.43368313972274336
P 2.340005426740147 8.669693614823217 10.114042265329575 0.4994162202544948 -0.4258592728029505 0.3846915403153891
