# total energy = -381166.3946529541 ev
CRYSTAL
PRIMVEC
9.23660004005575 0.00000000000000 0.00000000000000

0.00000000000000 9.23660004005575 0.00000000000000

0.00000000000000 0.00000000000000 13.51869780845824

PRIMCOORD
 96 1
Ni 5.998598890992162 8.73720454416417 0.7332945805692875 -0.18266633808640156 0.793368130691466 -1.7212792615995454
Ni 7.891372155477772 8.181299786120501 8.098159304138235 0.4012831261254831 1.500799709320112 -0.6674131292541796
Ni 9.273361451868096 2.3428450621958987 9.779628722668651 1.0848193861937705 -0.8868647544897307 -1.9544333240228533
Ni 3.213117493912678 2.657933190652219 9.590556448735311 -2.380790619508145 0.3580361425113898 -0.2321688156919034
Ni 4.468685449049471 5.323939169516287 5.965017385154839 0.10967143378591435 0.17371375687880405 -0.3545412419842539
Ni 3.2880909743652897 5.197730270057806 13.266451607022145 -0.29706860168908195 -0.8910016594762398 0.430185153871814
Ni 7.928096876221837 5.214864162658471 11.521201619658248 1.1827323938921759 0.9274809853491962 -1.1337184258873185
Ni 5.223980686645995 5.331060587950311 1.4208282748251122 -0.27185507853793184 0.7917974437702364 1.3537395504730945
Ni 1.112548444070113 4.190589902730974 10.259001785876022 0.4638930876472204 1.384141045583087 0.5444138680111076
Ni 5.4167115777540635 4.835452353301327 11.633272055826252 1.7055374253842561 0.39576965250642165 2.219176731216668
Ni 6.4333009866606705 1.720372129503719 13.28029542277949 0.28706546772978303 -1.1895234486720805 0.07227550963595941
Ni 5.35170438846917 2.2933645971491274 9.474876349371439 0.704849676834083 -0.9915207373389247 0.1425653563004577
Ni 6.734561925239257 8.414893394676193 3.9017392596231435 1.4429964251583987 -0.9728308742389052 3.315107139721936
Ni 0.855905824411618 6.665952462038321 12.025002718316284 1.3114973539744317 -0.9303050850615525 -0.5513884995567278
Ni 7.843757483587515 2.977778167997672 1.1775029847362337 -0.4099256322918295 1.2469919752021943 1.8689778253615101
Ni 4.887583722486315 0.9556925065259149 3.5198769803431116 1.5139035936919218 0.5309070917739244 1.3527075096641543
Ni 8.635842098126599 0.4050655415992392 0.39152745729476796 -0.016816300226390392 -0.30626929435174355 -0.44945351518312276
Ni 9.176986769714276 3.6066705375402357 3.583360130663526 0.054670394959686494 0.8274987538265877 -0.009734967899576783
Ni 1.5459758889683284 6.436921733776282 0.9020528005960821 -1.2519855717620438 0.9300073513154757 0.8720863106289755
Ni 4.96577153966401 4.6152148680343466 9.542361718378574 0.9398294796122201 -0.7508929922463907 -3.811476859840623
Ni 2.370268526956747 1.9633963064396156 6.931820597561798 -1.5057639953039228 1.1081570324784464 3.0120535240940125
Ni 1.5620013895948262 8.73916270331853 13.217541040182091 -0.7573711437715666 1.0539008422380431 -0.535317305026478
Ni 2.53735861706242 2.402522733405006 0.4026760332349309 0.803107726576733 -0.9573417774643707 0.524510187108645
Ni 1.4119897724911092 4.175340276486393 1.6386282214089039 0.7185271743211754 -0.9152312214475657 1.5470785377819936
P 6.128770291758291 4.892349807975232 7.499294196835835 -0.33359652141178675 0.8153551764855184 1.2211523884312712
Ni 0.6682476739053194 1.8874806928089618 2.1398615453267844 -0.2143675258444244 -1.5751976646157129 0.054820033163673336
P 4.83618204468432 6.706861362484868 10.263084362980871 -0.6714333061571662 0.038891534858874956 1.0808352047350418
Ni 8.426457617606669 0.3072758123583998 5.878375308194184 1.0104111464855243 -0.7646383668569412 0.027365536497146417
P 1.7328507758128824 3.8150851750827686 12.601778497233514 0.5868656094174151 2.2087395950437445 -1.4750621953446919
P 0.9921955488751476 5.8390458663108245 8.2736722495876 -0.474695320469047 0.09484491029604311 -0.023159468835598825
P -0.08564267686394765 8.541499467925417 11.529326132828894 2.183859286862297 -0.2960638145736514 0.75072767031312
Ni 2.4379450935794265 7.131966630977046 9.745777508117612 0.13814125909083305 -0.22028106311538193 -1.005829440652113
Ni 2.833511715960054 0.10192126032454679 3.3480134154686922 -1.7703760191261961 -1.0540602506340426 -0.27525741935126147
Ni 1.5085399500408383 0.39739824011793906 10.049028933949808 -1.0153723471455416 -1.5599970456158747 -0.3871682839906558
Ni 7.100562191708981 3.0204143126039624 7.699154819317733 -0.26590863114650976 -0.7776214093801704 0.5803164954449876
Ni 5.73228000939919 0.6741692580273064 11.35988348075805 -0.4310233335023932 -0.254616088951826 -0.40196318291164324
Ni 4.535650797488726 2.727253872036579 11.762632483131279 -1.1253111756602296 -0.6492683400243529 -0.25486445751720627
Ni 3.330292998781698 7.16153298688795 4.768896186232535 0.43409245934602014 -0.167317366434157 -0.7833223164196896
Ni 3.467234827190029 7.454508695459638 0.9313134250541121 0.9271380001874806 1.458438984965714 0.6334984787846057
Ni 2.9270692351795327 2.412258109578106 2.7604372804231816 1.0809205653599965 0.9661737739337037 0.6317051343296088
Ni 1.0131903401858273 7.310796439409104 5.888609460755659 -1.9953004945508601 -0.6342397278260044 -2.2488308066376756
Ni 9.03348695545879 8.205638226553251 3.3449579482599057 0.6911582953899194 0.7115265746336262 0.07571924521018573
Ni 4.537830635037921 3.259124997440393 7.098113569106051 0.6743517653555419 -0.7015144418132628 0.778872251068136
Ni 2.527032098503098 9.214995377828417 5.7697667496254965 -0.7093611915511913 -1.9329751541490772 0.6018870225269118
Ni 3.1280576464951464 7.831204944480073 11.886125822253053 -0.07522045119689626 0.23100282040826026 -1.558606335915935
Ni 1.6757039329447894 1.9178691061007065 11.674058109495661 1.191444576954193 -0.2989799597791819 -0.26516609655353046
Ni 8.116181757638191 6.103526664546638 7.00007629899098 3.1438259035440246 -0.04366324521590545 1.3251535113052855
Ni 3.9144155691677 0.37312076124376814 13.303277006703865 -0.753149135270419 -0.34542668127749543 -3.0974059215185883
Ni 0.9446547697831686 6.1813819641320835 3.414593597696925 0.157367968530929 -0.9964773100132516 0.6132163314968021
Ni 4.730930990137381 6.612934379274 7.957484042096919 0.027184273724275763 0.04685141313589995 3.0626561767422285
Ni 2.783911175116082 6.6790407239332765 7.132965107413775 -1.732268156510881 1.3592496816580462 -0.811989602447395
Ni 4.84406086430069 6.813193099206621 12.743075382440345 2.549221273611139 0.3371837245424128 -0.387038700391327
Ni 3.2179205258007344 5.0063571591180915 10.810753768656479 -1.4884933811489331 0.21214146472738304 1.0731054401909519
Ni 6.371064777311194 1.422168505453876 5.579112246149033 -0.42515427631612585 0.554130323967923 -1.0140788251450987
Ni 1.4107058851210323 1.8454911101876024 4.868475044851675 -0.5997378373943929 0.5301599291952547 -1.362438620908989
Ni 8.489201839944306 2.7343106342721093 5.84718792902106 0.6974089042853214 -0.4033996582478536 -0.5182927454440235
P 4.565124787401784 1.0883485526341339 1.4566939917891992 0.45970553192843405 1.954266716538002 1.9338619276294053
Ni 7.23875096108825 7.9731530099717265 11.180706376174086 -1.361194721199559 -0.7242296240225914 0.5045715392031891
P 8.30138481992171 1.6609069000896601 3.9135547180677634 0.40855446297591574 -0.52295646946828 0.8242576211814707
Ni 5.732224589800482 8.519544070237126 9.45484216443837 -1.2450235386219137 0.06903720520431982 -0.9703839553603094
P 2.878170675919199 4.534597825113267 4.76043361350977 -0.48370909393188305 0.20479787987811826 -1.2860622017307786
P 3.659771749702619 0.670389641395397 10.453183746810273 0.5845156211279998 0.17984558080815477 1.4272697584517613
P 1.4770800911740654 8.507970610706867 1.768907690392513 -0.4301594428402011 -0.09381389792836746 1.4953119467326637
Ni -0.14465254190861954 7.017709891639999 9.905122709303795 0.8740480623410366 -0.23385623069665532 -0.9878504875761891
Ni 7.491076394007364 0.5234270258806178 2.339653816970276 -0.281456863293754 1.7386411499167602 -0.38506435027377556
Ni 6.968608127184401 4.549902870956557 3.4996257353151026 1.6416411409509277 -1.4647775255892321 -2.939802182827769
Ni 2.8292074604603727 4.633420206210039 8.103107350642913 -0.3436261377336469 -1.0095696244208354 0.7087464407853278
Ni 5.6726669943885755 6.128613269561951 3.9694952610039715 -1.566514535019418 1.7117288989069486 0.5440806530414048
Ni 8.358171435398198 1.1881407767083014 11.484620066210846 -0.8606670130484402 0.36028740043941176 1.0938879241539419
Ni 8.341416243388707 7.216573885005126 13.498703137629118 0.4302820844609944 1.5449627769905716 -0.7138680782826093
Ni 6.204695141988729 7.158660404354901 6.489515856610485 0.6434136810157887 1.563129163486953 -2.758158372468611
Ni 0.4122257537523579 3.6111133420366888 7.698478700213491 0.7865765616909293 -0.23841042572624105 0.3515572196552655
Ni 6.908893509576155 6.43060389952353 9.149967868023998 -2.2666565219651864 0.3059635901858666 0.7422252892690637
Ni 7.42188502501999 0.954307016558206 9.27977442309863 0.17836154006346056 0.09354753164085824 -0.6274566434659001
Ni 7.14913746997685 4.64080948603782 5.639189862128819 -0.9040672344109462 -1.1035426736348866 0.14147752255291762
Ni 7.2255703331954475 3.097345952210936 10.37305901465772 -1.0960283675357123 0.1553421963501518 2.06748498713491
Ni 5.8660906304805 2.6800825569359894 2.4829116323114024 0.9337357080096564 0.40023411603567843 -0.32615394909081247
Ni 5.399005015966747 0.9826264314981727 7.655043589725823 0.11725464544981096 -0.8218274144734233 -1.1254078491390942
Ni 6.90792366659876 5.443100543339023 0.005023786622911868 -1.1588417033175074 -0.12928817957557734 -1.0673268858359617
Ni 8.185447019423844 4.711063064000437 9.23806932775064 1.6982779156083656 -0.5836815552624786 -1.317484424795802
Ni 5.078023936847773 3.445103934105828 4.4782711923060585 -0.7460845151141537 0.5670501173533846 0.4160528282354899
Ni 3.8745319312972577 1.6971420810451359 5.384213525071488 1.0804855347051068 0.34540534112125676 -0.5924189351354765
Ni 3.250313281245765 9.331552030511862 8.469004167195047 1.212416808330486 -0.5061522534267476 -1.1334178639277641
Ni 0.1680460781833923 2.5197259480733805 13.254568721399098 -0.39589820766448597 -0.13005025455258248 -0.22624216579482329
Ni 1.2094219026123076 8.493589224842049 7.756460531702123 -1.3384905947338237 0.7407273645672985 1.1680069147565433
Ni 3.2072060700504537 5.527929475761937 2.440976545628773 -0.30608314648286644 -0.3762624357114294 1.7331767843680794
Ni 0.14406878880222493 4.964626201290704 0.08291049064762603 -1.0956560717979582 -1.4983610179716322 -4.145044842007319
Ni 4.848226570803602 3.2056081382876966 0.5220498488527153 -1.0447695693607362 0.5834648112659823 -0.20917569723083973
P 6.779082336201631 7.057067043322711 1.5350342128633432 -0.9070975365968378 -0.3287926722652402 1.7309116424829867
Ni 0.8085848763945155 4.819445325874399 5.681759503216659 0.5269884734458086 0.10607600312517217 -0.5416224213088995
P 8.106427908265522 6.479354673187308 4.769179749845926 0.6234246394883715 0.7547187937503841 -0.5411488241065906
Ni 8.2622678198334 5.619094715637171 1.7358545180628748 0.748226244047505 -0.007906399331270254 4.378512321905989
P 0.08772553011540311 1.2650262333163513 7.752850868506253 -0.1203908770859475 -0.1534704332487357 0.042237825623288545
P 7.130765873005032 3.5866640624065216 12.650715850212945 0.1730900072518761 -1.124317958509025 -0.7324589539109191
P 4.504551166013558 8.588818568622564 6.323830653332068 0.09812409526794715 -0.047909422086769106 0.5101603461448763
Ni 4.980300711125382 8.123728059662312 2.7945720585876113 -2.32947062907793 -2.399789529208151 -1.6617507672166092
