# total energy = -340874.93273349537 ev
CRYSTAL
PRIMVEC
9.24100240566502 0.00000000000000 0.00000000000000
0.00000000000000 9.24100240566502 0.00000000000000
0.00000000000000 0.00000000000000 13.52514111552808
PRIMCOORD
 96 1
Ni 9.131986432144647 7.9711963802008805 3.104074007188989 -0.07284578031713261 1.050553523032365 0.16659565777678403
Ni 7.285948318919118 3.527706514288115 3.8265873353099207 -0.6178080646325425 0.8765736569763678 -0.22515227516475417
Ni 8.99964603478222 2.2520045957706607 4.904973519412038 -0.6240188214289446 0.46482485543287044 1.722602608396659
Ni 6.570630035375129 1.9574106758267429 1.9989887185509083 -0.8147005736206551 0.9181717921331284 0.35263014100447015
Ni 1.00598477740879 1.6604972642455116 9.300347333304227 -0.5176106317753344 -0.21282846349207865 -1.1615935550310317
Ni 5.684020528766412 5.624258965346063 11.590815753943378 0.21535508656867428 0.17943986072930387 0.7065190941167058
Ni 6.102619461782491 7.195885508173065 2.1343213525354963 0.2732067074698198 0.11378391329239113 -0.1939758495619498
Ni 0.22544996664562172 5.7940161819893 12.444076330588993 0.18950058739941558 -1.3220658735188973 -0.5401846604211084
Ni 4.1918111617604215 7.4547167482906715 5.033773688701738 -0.7153480052622455 0.8651682433529035 -1.7105338501575829
Ni 2.2497775141587377 8.63188185673372 9.388287485767048 -0.1586208671014236 -0.10226999911552065 -0.48804628785465626
Ni 5.793544890859806 5.599299017487958 4.680889372941695 0.5266146350461577 -0.11815838821100295 0.08666623113999268
Ni 5.463872125277471 1.673767343891657 4.126628826250637 0.08275841144515424 0.07197649033830184 1.2843904704553106
Ni 1.864436949280874 7.921082423431351 11.586771891232267 -0.2699660890453351 -2.467677708409692 1.0625160947108798
Ni 3.7210467694111315 7.497290046988298 1.095563359621794 0.4814588644451257 -1.7385380486799928 -0.009617982705738274
Ni 5.48346305066036 0.8305203175974054 12.111114692202996 -0.3973254270293157 1.424981733748533 0.6689182530447964
Ni 3.6346064316604054 1.136837373362423 10.594216138713294 0.7310394478555732 -0.2304829433490482 -1.0263825822131163
Ni 5.649015611148307 7.8172320368969626 13.283000415895458 1.5407615944250304 -0.7418889889755674 -0.9752831924341396
Ni 8.608483638304723 5.955964751486999 10.073119701934552 -0.5580995930283162 0.1262167397391052 1.7356748681995853
Ni 3.3978519466087045 5.5508114771653085 6.236740600334203 -1.0541715794009265 -1.6130396751641511 -0.07178751425594734
Ni 9.172609879306524 8.89191442718141 5.242940084773214 -0.3629752316842201 0.08960243095018117 1.1026906100472365
Ni 7.75216613801917 1.5301991284442245 9.789456963894136 0.027946348701280904 -0.16292000869740972 0.05158250006298213
Ni 0.1422254977785016 8.480856152237235 7.954365742276422 0.02546806236411743 1.5507436453384067 0.18799494938816655
Ni 7.001658116806295 2.404000605533751 6.367108967754787 -0.4328421318786868 -0.5665814052470822 -1.2414782444728167
Ni 8.439539629884926 4.428759707865443 6.030360366528265 0.6289332280114266 0.6937705362017859 -0.7786225969511752
P 1.2081779129642627 5.014796365887446 10.509724728398064 0.8067309251516172 -0.22606810211080422 0.3564433441029732
P 3.8405883782569084 6.573014214030216 12.518775974613797 -0.6440456581728328 -1.0803626359739975 0.9442229806942255
P 8.845025580298024 1.5803130852137548 7.242550722795004 -0.47892581361062686 -0.39457897463243014 0.32773286354215814
P 7.862697769389326 2.153994522840983 11.962189467583647 -1.2716681377926355 -0.31885741542939927 0.698251711901591
P 8.227172150533907 0.7945940720261525 3.422713015739641 -1.1619077438373409 -1.2245578145683942 0.4407549589678603
P 1.9068069459226402 8.083844201152491 4.359856020633163 0.03719306411052949 0.12958874153513167 -0.4852656397857256
P 5.824511490368325 0.10500366365126719 10.007076104988124 -0.11258269389543836 0.4600217776172723 -0.7444616347987502
P 5.569515266304443 0.40903541948836597 0.8169979585819427 -0.47163056550079424 0.5573508877877498 0.2822988995790751
Ni 1.4699570328918419 6.288603878884385 2.5428346553804033 0.45406581714415345 0.8032928460043456 1.2690728662616337
Ni 4.98225879594728 3.136100549688743 11.031659324107103 0.022846051360238075 0.30983284333328576 -0.5554986650703595
Ni 2.7849609352080824 2.8942635132405377 5.260820500586116 -0.47069931193577647 1.1345782027844524 -0.6656616937807116
Ni 1.567643670732651 1.6236441461195872 0.5513440862897195 -0.6265202476945597 -0.35968936184409667 0.796753502223931
Ni 8.233955046397606 7.754189917575234 1.0014908778740264 0.05984885383683241 0.04616132904741082 -1.6875271048497649
Ni 4.942402351996149 5.269746384938631 0.6583900115021274 -0.973058673978995 -0.0645197769499405 -0.006725748759607773
Ni 6.78513218631268 0.508536990227854 7.6848361935193 0.7204485597136044 -0.9211686699779232 0.0081352275126247
Ni 8.008844224545168 0.9348567808653496 0.5720254499722217 0.5584014405394512 -0.8246941944982571 -1.8075279455861448
Ni 3.1080633479851185 6.058539879670991 10.054103566909596 0.2241130352669624 -1.1052766256068578 2.7080362590012395
Ni 0.41498108052202193 3.2133922949257614 11.637464334760745 1.1845123686107342 0.4682778469784774 -1.7224465424347692
Ni 8.856530628459202 3.290831896203406 0.2585697197457503 -1.3002122679789156 0.14259183866301894 -0.4269795024503228
Ni 6.388092512220319 4.371049647008773 7.208264755174441 -1.17699009209176 1.6326376519007366 0.6622763222482465
Ni 0.48425071145484955 4.236149491943015 3.6109965942732627 0.28792293063407187 -0.03780781487639295 0.6274975240061645
Ni 1.426570525970775 7.0398511803003885 0.4244272333174883 0.5202601535830395 0.822584604354422 -0.6236326417341195
Ni 5.401421430118243 1.9437617150764945 8.654156369253963 -1.2761727105312086 1.5416141722333128 1.3935024321933291
Ni 5.327595060833387 6.496859112105506 9.458672505706346 0.8219168888634361 -0.04896588837574147 -1.0130943497446425
Ni 5.24085901100141 6.729529074034926 7.02378200098515 0.6641136325673015 0.02785173210494558 -0.10857460117730978
Ni 3.311300716827509 0.22406474036501084 13.029607505772109 0.2421166709332346 -0.13112626122558063 0.7849912194816803
Ni 1.2752029043803434 6.435933182365231 8.733616977786909 -0.8080720125605438 0.19845291149669694 -1.5277433277884915
Ni 2.2855679169926657 3.7734340128052803 1.777122412689949 0.0448112427774196 -0.31933049841107586 0.8687258787971749
Ni 7.3362840597495875 7.666307983428408 7.001370721627329 0.30426897609226305 -1.1102229138685396 -1.3620030760334672
Ni 4.311445180631589 8.731814058191532 8.365326986693935 1.1739320219917266 0.6689683895564414 -0.6215063394197361
Ni 7.47420602264563 4.0488805754881865 10.841726226620253 -0.7169073793295654 -0.5378475276474995 0.20684679198734698
Ni 8.506148776186748 3.4834143891182165 8.317921567768614 -1.5147536003970428 0.10076204711142644 0.4536894076413412
P 1.4062588023898368 4.484390543150815 5.753554452371858 -0.6769886887577566 0.9713571179068562 -0.2447096284713915
P 6.563939549536822 4.284600068255508 1.7203983668042013 0.8995845160492443 -0.925857076592528 0.2949710957301049
P 7.85005607791584 6.713680754680372 4.836104023889154 0.4231141059576455 -0.591158066145182 -0.3256299582665424
P 5.870337621959713 4.275109558647854 9.329967518742798 -0.2918052964076136 -0.008232672322437434 1.054120671558333
P 7.6561521216379385 6.918914180071209 11.98585844738704 -1.084288967611597 -0.08674285001419899 -0.3591908249411233
P 2.3330481880385534 2.471995902216437 12.292595044667333 3.214634855936787 2.0919035251885907 1.1201139477300064
P 0.5639441932517801 4.908718897741135 1.2144220583799314 -0.49232923150072627 0.8721503310976916 -0.4986898836114314
P 4.414417671924762 6.243618678524054 2.977898282620394 -0.6720172036850943 -0.12391920195418013 -0.25206761149835943
Ni 1.5246822499283825 0.8464508818745571 6.629578390572037 0.8830014148795825 1.3377496028027414 0.310193311996498
Ni 2.679012841097319 4.588037627629343 13.011578309818328 0.09606464163575715 0.1571399116805229 -0.7007665079036447
Ni 1.253782260494713 1.1521774375773264 3.712583859285825 1.709242127929353 -0.5074771428857583 -0.6711885371362117
Ni 2.1422861726239453 7.849788088842206 6.5633721519809205 1.6935208605393544 0.12602030745758297 0.32176044800880715
Ni 6.189632741690641 3.1540280946145938 13.009509249349824 0.6473202151590466 0.23463578917515718 1.2246241490299554
Ni 4.464956714811091 9.050129631653313 2.6960209062705296 1.3327876308117754 0.6494897120065395 0.19346188604000875
Ni 7.342641869496486 5.543945412278759 0.18269739249873693 0.3838569602292357 -0.022442902384548446 0.036978119886246
Ni 0.27087688692732154 6.69832220846039 6.289785803109136 -0.8868151321987179 -2.0706320174043245 -0.07572284475461152
Ni 3.329921336943792 0.6559392976287585 4.758185738679984 -0.8759619915342979 -2.409221878265644 -1.8196504398812918
Ni 7.503712543752972 7.923827001185463 9.443618912570154 -0.7236053601750312 0.7693517131722106 0.42543889743608015
Ni 4.135062165167818 1.5606297498054753 6.515168310436223 2.2175474231433614 0.054789179925737896 2.6111303524111094
Ni 4.887094951799645 3.814297726033174 2.976708041493358 -0.8455157592292986 0.13364748498553758 0.3608802968284043
Ni 4.019854586512878 2.440641180601276 0.8672154145799111 0.6208995590736727 -0.646153448544455 -0.3409984703028128
Ni 8.17905425031282 5.899760974044203 2.662951978684366 -1.017418431041293 -1.280462596155814 -0.045302066370909076
Ni 2.2261667526713413 8.772012419236608 2.1684178796040077 -1.5725530279040143 0.5771442683645931 0.0934212904756391
Ni 1.4439528517468192 4.049194769574515 8.346431908802241 0.48276935572643304 0.16156735132425723 -0.8324794948706308
Ni 8.98722612736967 2.3228738442430057 2.298705850302502 0.7254717239598085 1.2193564728731128 0.19440162424545873
Ni 2.8447871856462053 4.993874736138927 3.860115540722277 0.5836339898539948 -0.19298623195517084 0.7130129293711656
Ni 1.5031414730097443 0.856054131713188 11.465695351864746 -2.1052565494567292 -0.3796136115718494 0.2956550091710069
Ni 4.2967704685995 8.066424911366289 11.153643329923964 0.421323589716126 0.48209572669817613 -1.5215557109205409
Ni 6.724483486648578 8.475524093772176 4.207495915370033 -0.1317636376992634 0.5782251601335977 -0.028756760417718217
Ni 2.690065080134081 3.2857123807967454 10.23973590181475 -0.6730806119526022 0.5825975781696805 0.9877615274068086
Ni 7.533792007017737 9.190722244283156 11.672751102956292 1.6183117221963679 -1.3764938134504747 0.05301640429603127
Ni 3.8313473757178103 4.084532363284028 8.30800782024467 1.6492552058527596 0.4749447174756918 -0.5748657567430615
P 3.3980460076620256 6.69340599510959 8.108146189629812 -0.14589622044590358 0.4944853586117806 -0.4529229617889619
P 3.2728027002496254 2.168927982944166 3.0819741496167357 0.11951078847383932 -0.6595234420934577 -0.28853511029677403
P 2.788805192264347 2.1202463815681956 8.15269798697106 0.661667485019654 -0.13482736422625166 0.27457530568257227
P 0.23608636056812396 8.794680598465018 10.226035191450283 -0.9519432321566187 0.13789031942229155 -1.1964654272075523
P 0.6782803453672829 8.968198903141667 13.282771239032487 -0.30897743731152594 -0.00775984645107696 1.278823003669862
P 5.481540922132227 8.99041427324566 5.97317611871607 -0.13890976182574138 0.3505480616644608 0.44682816174513373
P 4.9946787033598286 3.6622000652421534 5.531769467333243 0.32998797812492203 -0.4881984971618043 -0.23010653384623597
P 8.258369775105901 5.894336505553753 8.058468408180126 -0.3684455107701719 -0.0342352670337862 -2.0082683675654383
