# total energy = -381172.33888002986 ev
CRYSTAL
PRIMVEC
9.23061713951493 0.00000000000000 0.00000000000000
0.00000000000000 9.23061713951493 0.00000000000000
0.00000000000000 0.00000000000000 13.50994122875620
PRIMCOORD
 96 1
Ni 0.8457137363467814 0.6993401518024333 1.5723682066393319 -1.1154353113074145 -0.031774721308435595 -0.5125954379489301
Ni 4.2019983509665115 5.535305579511155 11.154726078650928 0.10322259283677707 0.19093063497772278 -0.4238993208631022
Ni 4.267286504351188 2.2290278319862202 3.6200698001003726 0.3876153988304034 -1.032138510860287 0.2803785426279107
Ni 1.2217736844548583 3.36790134599745 1.9921489717283956 0.009690230704570408 1.2839940063478401 -1.2129929925489302
Ni 0.20782364741900825 7.8778146157545805 5.427510435268789 -0.7530056677140193 -0.4383553483874322 -2.6756930667838437
Ni 1.206210864349307 1.9714843896582306 7.921067440458373 0.2721751808815119 -0.7013267512824889 0.524598118836761
Ni 5.752317382999597 7.092916798900934 7.340180103179367 0.05977403473483899 1.5262957967086876 -1.7622647028729714
Ni 2.829461000566237 4.01198610193165 4.2451339468355815 0.927588714571654 1.0797851662039726 -0.13214287541555308
Ni 4.725734323664542 3.259681593377352 5.8745676733186505 1.075671144035599 -0.757481958317818 -0.1751854563283241
Ni 4.622092957030421 8.346849952660502 2.3919076056840365 0.9923049238031167 -1.7653181449873145 -1.3138177745774922
Ni 3.624475573550183 6.349861368487658 3.878055388978217 -1.3223445811015806 1.1404711712301197 -1.957077703624236
Ni 8.495232119443859 5.231627513880943 -0.11530794334314219 0.5135102364537156 -0.469025009557147 2.4732009522207665
Ni 0.6918098145295336 3.4858686300715584 4.434272979511021 -2.810916638007249 2.679497271021282 0.97079301787327
Ni 5.329924353325794 7.7193341540747396 4.699635677421106 -0.02606352985627124 -0.29350659536943646 1.5327104419857798
Ni 4.59921948833436 4.009253839327116 8.16779998426464 0.1926440181244037 1.3292657337014462 0.2649966608552017
Ni 3.9160523004150454 8.687468947153357 7.5521381439111135 0.45407944399090827 -0.37719728882087294 -1.2467140389504592
Ni 4.9845423605088195 1.1121324168310507 12.287818457293172 -1.8724796678671816 -1.0077616246778192 -1.901812612503344
Ni 1.8458649241680474 8.660210935426374 8.563910678418553 -0.7992950376988621 -0.4138866738221066 1.8090713788138648
Ni 6.379196269018763 8.244251645736894 10.796860599528646 0.5138480794091086 0.4275171201213476 2.344393311826033
Ni 7.138802195546662 6.598488034883285 3.720934597168808 -0.6190848744624371 0.20799144711475148 0.17959464113961326
Ni 1.7464234882267038 4.562610861680376 13.074555936096425 0.1692670339613601 0.5670161787916557 0.8657721954854894
Ni 3.0646940418295063 0.8417150331025792 1.5729894271571867 0.7243530369743332 -1.4296171756380154 0.13761058339834364
Ni 6.588851270832161 2.8210980616483075 2.833899081175222 -1.9774693799067107 -0.8269382533374275 -1.49316173315888
Ni 7.8399967782857525 7.16353101824107 12.577809364173376 -0.7250855442649835 1.0146930616903298 -1.0431029802915905
P 5.459152990026695 0.9897436672583897 2.020533118718058 -0.6009758235665521 1.060663100662541 -0.675235967732708
Ni 1.4120720826138429 1.4804986457469702 10.574987030115176 -1.3409948492129165 1.7915200001936629 -1.1823796385384475
P 5.421049003433743 5.990144227613792 9.005496929827514 0.026664139554747626 -2.173502883328638 2.1523571024889576
Ni 8.92252660669539 6.561704026508065 7.443612857871386 -2.293707869656024 -0.817719820062953 -0.24044236855460527
P 7.261920163854992 3.8185769858749365 4.447485684551997 0.33624964276391767 0.6901545367157534 2.798009185916962
P 9.184426900203581 8.4612172961408 -0.02181010162834928 -1.0615192780152494 2.6568121707189403 1.5007824829289313
P 2.776901867896599 3.122893081429448 9.033084474578082 -1.655270558808904 0.8890489066252429 -0.78539436845737
Ni 8.444482187688033 3.7800391602873464 6.735205471081004 0.3128510613343192 -0.9099979980730843 1.017380378714506
Ni 1.3666666780472903 7.221850055860805 12.79294089099782 0.7613093024837082 -2.3374436199810775 0.701466876404779
Ni 6.14698163948415 2.0939469841661493 0.31275360817337733 0.9387807266327316 -0.9177835555557743 0.8260849041981966
Ni 5.024400164314141 0.6792100224511958 5.821879312012311 -0.9957486593773431 0.7078169869925229 -0.9666108614711223
Ni 1.868479935590705 1.9091684949176748 3.5981563155626626 1.6255992569967164 -2.124280141747083 -1.113312608537457
Ni 1.9822657502058487 0.23529950170500133 12.84149578205311 0.37655759835434505 1.4202976980093023 0.18738688349052243
Ni 6.428912371680981 0.3878677532557763 3.773650650325868 1.0008006199789539 0.017713101009046914 0.6500268154569321
Ni 1.4945753365304613 6.072305948704844 6.371288399514358 1.4095404594927983 0.4346437038637998 -1.0888819862989183
Ni 7.941238184524002 0.874090498842918 12.271863335969064 -0.3098701243291244 -0.8980680794047179 -0.2985408153592342
Ni 3.168907706711876 0.31207515783069756 10.617625095732949 1.2415916301222296 -0.7905584291568127 -0.41482872602040166
Ni 1.1538178827839984 6.037958823193125 3.8995765722973705 -0.34767331121982703 -0.22746241135516956 -0.12561613004062883
Ni 1.6028412422350948 3.984977316861162 10.783323899834226 0.8553389159673075 -0.6256044207485096 -0.645689621534159
Ni 6.504658814021523 2.5789605189384464 8.276608650243418 0.13978856488626892 0.8632815678531519 0.04858716488008406
Ni 7.588462467564355 4.784321049174588 8.902132481700606 -1.473028709854431 0.46734145120713705 -0.8764762121665551
Ni 8.936483299459086 5.568425032974214 11.154036551567957 1.6250780943859238 0.25874245241537375 -1.5262891118404682
Ni 3.315425288879977 8.883351868541201 4.124666088641311 -1.3725708242469845 1.2328190261359218 1.5297927541183525
Ni 5.082765355018412 4.607794731441157 3.7211644395297974 1.5193890422865253 -0.38045693340875125 -0.16285470267711308
Ni 6.495483580815759 2.5479641073640447 11.001927984739162 0.42902995722144827 0.4019099610762046 0.1574101346227741
Ni 6.41473414411151 5.015723384421365 6.60334795468493 -0.4269265377252002 -1.0118789892803026 -0.22997566469532651
Ni 3.7018004513818576 5.264423895752251 1.0662368665067254 0.5545393864808837 -0.36392448297136676 -0.08069690093043522
Ni 0.481663743896672 8.637531309685366 10.982920298403839 -0.1673685313870666 0.2427288505959368 0.9982904519625905
Ni 8.108312350544452 2.9287455160201583 0.8921492777601783 2.6344939668377143 -0.313950207935769 -0.4597289289672018
Ni 6.136754115950964 8.700816419201178 13.387878150271286 -1.1020478342569149 -0.666402428601478 -0.30624126932728546
Ni 8.214270602022284 4.637960387493909 2.688086718138832 1.0673361418073426 0.5001746956870741 -0.28485457612139325
Ni 4.120935073287417 7.660175130316448 9.509174771986183 0.39216059499892464 -0.9237945376365445 0.3808631677082344
P 5.414476804195812 6.200177684720385 2.10359205577249 -0.33552073501769314 -0.42796809161583715 0.5876225421880976
Ni 1.9703213319279227 6.390319162391948 10.778339366704333 -0.19312481441556417 0.33386545880245727 -1.3291304936751627
P 3.118739303821205 7.430997373744307 5.922433960352663 0.07234492942131411 1.104501695114046 -0.513815169288644
Ni 0.1492618445746133 1.4738064484892448 5.51028599238417 0.3232000086688111 0.10542037181904425 0.5319787275715483
P 0.20063484297167525 7.313694694087517 9.435882750681266 2.474391115874126 -1.1634984853632284 -0.5565790426187317
P 7.21357019249504 8.146037881844208 5.7921170339184025 -0.07195617862332769 -0.4576054548662958 -0.33600101708822133
P 8.29086626111829 1.623868587549713 7.619404418499005 0.796481479509467 0.9294666483206574 0.5922939795218379
Ni 2.7241581228888165 2.19908371073924 5.735969960456933 0.229956638531933 -0.8523631211684352 0.3331249810920069
Ni 8.97289808315802 7.749887496037595 2.574859355846575 1.8475926748175147 0.6240679294993252 0.9276848738298863
Ni 4.04077639606523 1.6946120355265495 7.89933026070359 -0.34258252696048097 0.3759731866057847 -0.15417080174986997
Ni 6.567962384771151 0.28897461595872076 7.47794152214929 -0.783962778217166 -1.4099950305317135 0.04752787037763428
Ni 6.699092528554937 5.212787824773334 11.004049180504438 -1.8703644212963915 0.6535677387306551 0.38983323241732865
Ni 2.2370215462278615 7.946111950251007 2.2099693772579094 -0.7066358222002281 -1.0128025295358365 -0.20113148677012455
Ni 5.594686138075219 0.9036413958096512 9.600069579733145 -1.4598893442589953 -1.0024952340725575 0.6494298053028816
Ni 5.621334929086326 6.1595260478610445 13.218883092872446 -0.13623298632452668 0.8615165055329292 -0.7457968086704058
Ni 8.374560264615939 5.517536641964781 5.238114791443328 1.1713323795853505 0.3702946481637687 -0.3008753770296818
Ni 8.946738514842995 8.798679419651389 7.334438659463085 -0.2432106753283618 1.9060328212322788 1.624404465357667
Ni 1.9011932419098476 0.12794188870403675 6.3209501532725945 1.2254481875931476 -1.0729303480656682 -0.3051837745970486
Ni 4.065385220739844 2.567717627545468 10.56819144994809 -0.4286882576113133 0.3914627976009516 0.4765935659330244
Ni 7.857682640279961 0.32675368483653855 9.525480656752764 1.6773236819542015 2.160881852130517 0.5299475560741325
Ni 3.619906418181115 7.652190646691714 0.07467569077930662 0.48418526223735325 0.2950536281415822 -0.4506472783809078
Ni 8.664992394984306 2.903259782739359 9.854704454673673 0.2989480780999819 -0.32421585152783516 0.23951265765148433
Ni 1.554472809641329 3.9131631173230894 6.68190881212048 1.0109811600563816 -0.07272391002728765 0.33460053719626887
Ni 7.128731592500898 7.308950156997212 1.5455237265497916 -1.248310951123934 -0.7038749716256394 -2.042397190928347
Ni 7.106605803774323 1.946155576864854 5.8018036433008255 -1.276211277078628 0.8486789874486287 -1.4939978559069302
Ni 3.985604998810852 5.4643682885792675 5.929337538737563 0.26454954601545405 -0.15632024399270497 1.5973652018516877
Ni 4.055194619674287 2.7017461850381177 1.2166119234803479 -0.04255767085655251 2.1170041769109607 -0.014356525831988178
Ni 7.444954066508004 7.388213464379401 9.172939397462562 -1.5892091484034565 -2.092690282755944 -1.732504183781087
Ni 0.4773484304925526 2.351102740584036 12.513434118800824 -0.08215445931256819 0.9482925227779087 0.6683572383350038
Ni 0.6277013339855978 4.977840932634187 8.733690338254506 1.3315373033444422 -0.5601742161691579 0.7185482573670979
Ni 7.668039615921388 0.4225702575184219 1.2940171076791156 0.42854607560649416 0.3974246716113414 0.5313179540590979
Ni 4.849323053435142 3.4962438434752596 12.658274497876883 -0.9214846585564452 2.1648472645361685 -0.7591485473869636
P 1.8158931110703456 5.76989247759092 1.904996256075617 -0.5236408971298143 -0.6856659048167804 -0.5700642215893601
Ni 2.897019885710087 5.8509188328023845 8.418935532335647 0.4087683787589347 -0.331725529641319 -0.18999655319922765
P 4.503156458181055 8.191064831117565 11.518967144871015 -1.3142803160362075 -0.8353722430373937 2.981314957359575
Ni 8.60889793603921 1.8905964937003736 3.0687158216159767 1.0324048771477963 -0.5438834494289343 0.8502185640216067
P 7.957927139892232 3.7746023269290014 12.048408561879391 0.3142517983365878 -1.9201972856581189 -0.3385204410759654
P 0.7300541064994747 9.397506460889554 3.8258396352575272 -0.1810887091866365 -1.4797940536027225 -0.35595149206821924
P 2.6845587763568974 2.553299403936411 12.753613847664663 0.9010868116263836 -0.11666354883303133 -0.0593649722218784
Ni 6.383876191790717 4.4069180463065125 0.937021152669494 -1.0161835301929274 0.5786391077425648 0.820908759313896
