# total energy = -340862.92964526685 ev
CRYSTAL
PRIMVEC
9.33640853579505 0.00000000000000 0.00000000000000
0.00000000000000 9.33640853579505 0.00000000000000
0.00000000000000 0.00000000000000 13.66477763077640
PRIMCOORD
 96 1
Ni 4.959374529864427 6.739154445349498 0.25399911803123026 0.8079259739009828 0.16315757862951255 -0.3036058885869674
Ni 7.3620296743895075 6.685010104064426 1.9949119337556467 -0.2781373120022178 1.4653639942203216 0.8406692297702749
Ni 8.096732064735098 2.508837589752704 9.48302940041783 0.41125077886115624 0.6222884690013992 0.5703760964028242
Ni 7.424364938673273 4.334121592891082 5.678276395719168 0.2941681402128353 0.02341580782077903 0.8730029089059739
Ni 7.606652759877321 8.720833591961199 6.0935487029090005 -1.1286171001050112 -1.2035655285874431 0.16459456818635523
Ni 0.28111996615901574 0.4379934595354627 4.380449453371688 -0.11374457541402347 1.5776746654012956 -0.12542921084080333
Ni 5.902688027668149 1.0532310039187496 3.7085737826897835 -0.4699259241048616 -0.5152092214226933 -0.6086960750289452
Ni 5.344984462533165 4.049508081059938 12.117963207392577 0.47477116801230484 -0.9433454631852786 0.278567714671417
Ni 5.712836474140738 7.452429381130507 11.127706827804236 -0.18749486982329647 -0.7070040041729243 -1.4030281122955772
Ni 7.469232474596397 2.6123802175110344 12.227748722634141 -0.8359558834550055 -1.0221076089868462 -3.2986304822231514
Ni 2.116581308136455 6.5591788046947945 1.2733065952585942 -0.17876880280420823 -0.5156591644759184 -0.5933792421662167
Ni 4.5401022439347765 6.716013917746333 2.6901621584121056 1.4396375359884948 -0.5386731088725885 0.5147618494726295
Ni 7.857360531021304 4.890954579924491 3.2829153851376094 -0.5522711592719972 0.47692600957177855 -1.0557548647276462
Ni 7.113081781558385 0.22916423949919423 10.38446341100835 -0.3734581334934149 1.574957523580449 1.7566902941089877
Ni 5.54186616825717 6.4041222920658285 8.660498785100087 -0.9592194541030576 -0.3280953890878995 0.370722993950439
Ni -0.2556316859980554 6.060889854728613 12.554033906260692 1.9430081129050474 -2.2815727769553864 1.0049082143894241
Ni 1.651327520755858 8.814856026931334 7.107891076640929 -0.5930066893181465 -0.137599270544434 1.6173637564608017
Ni 3.557416149408196 4.820961972768805 -0.10807618662492123 0.39791472387388244 0.21470614013076572 0.5349596645767433
Ni 5.251804522500039 8.92266729570384 12.797333338591914 -0.6471435803718661 1.1369261341913386 -0.0502691805681973
Ni 0.6935025157149092 3.4296658337931576 2.484991238613424 -0.758689605472674 0.7370031216381759 -0.8959664596806827
Ni 2.061444695036684 1.9473334363463262 3.3022749826845765 0.2781200856110371 -1.677046517033415 0.33469566801323647
Ni 9.339936315894382 6.885720481224389 7.0727627821896215 -0.7164054999924824 -0.7412138172854138 -0.12979031602297647
Ni 6.941343869176654 0.8802593045070435 8.030369674652432 0.24980221250295043 -0.24615407422740188 -0.5273574267494531
Ni 5.809002590672818 3.90768809999686 2.6613076429250535 -1.845830954931402 0.4608764123080837 0.7544981930991458
P 3.701707448953165 8.092903393299137 1.329390547109757 -0.09152947276956495 1.143316868209031 -0.45334899358278696
P 5.100951123501258 3.208744939199848 0.4413990112919477 -0.5095214270092967 -0.28417940443123957 1.2838927048832856
P 1.495671900616131 4.400248084391385 13.670269489885383 -1.4608895033887357 -0.27774804698359906 -0.2786078238807331
P 5.407151227829528 1.6768363952375007 11.697662141534291 1.2197228550735961 -0.9747861981930631 -0.9271490559310742
P 0.8137976872429086 0.26678819117501756 9.552136451784172 0.08278669357992839 -0.5699045560830444 -0.15945159053283509
P 6.50695347965513 8.271680818932317 3.5098292270495053 -2.476621290756225 -1.0692192177626683 1.7314379473001018
P 1.9164419553226855 7.695227060921468 12.726541297351558 -1.909120716128983 0.7649168173293085 0.7930228315369051
P 2.336182293995119 3.7006964550287553 7.393896577329108 -0.35099800471768583 -0.5947966913390337 -0.7667854951069311
Ni 1.7755955239645946 6.128645169773798 8.561099360220865 -1.400092169595705 -0.06777556488307683 -0.6197736729993455
Ni 3.311632293118283 7.646006634490467 9.56811202800082 0.5593139250513917 -0.48042373831239193 -0.8788403415233574
Ni 3.6329505010384255 1.921571813383581 12.869674634410883 0.2910349939004923 0.08217631368943912 -0.707841155362239
Ni 7.187979581458431 4.861148981264105 10.793899100495686 0.5492390573138928 0.38593029781849664 -0.14180430976471708
Ni 5.761073989811896 3.3176233682258984 9.321606434381536 0.9858838507681215 0.42398519570868914 -0.5689609612228523
Ni -0.4109390748971523 5.142486123895772 0.9849542781181044 1.1794182419172785 -0.3672697452945159 0.5131716221673742
Ni 2.7059907660675218 1.6268109180889139 6.244998401102085 -3.6809450376659316 1.1152090542292212 0.2310025632979441
Ni 4.696328888420698 0.8881722041765234 6.165971439905213 3.9441419263082333 -0.8664381112042626 1.3486963316222322
Ni 7.178084946476011 0.5188280404249606 -0.032820794429389996 1.6558778533755998 0.24037654831367633 -1.4473567590096235
Ni 2.15611304279186 5.1254302819487805 10.745836636550328 -0.3398417309905502 0.5765948236190263 0.8219428570053652
Ni 2.3227023750029847 8.7845542923636 4.955871623137444 1.3358747543775316 -0.5376544378000869 -0.695220638384751
Ni 0.399087979449901 5.049324905972356 4.619433439414458 0.36827196130678513 2.485289250843868 -0.12723438237034215
Ni 3.919192836414452 0.7107802146619799 2.0517840864256547 0.6348832749472744 1.3948844001425205 0.9919102594678596
Ni 5.509224169975522 3.1063162769693395 4.983807819143156 -2.2543625350891823 0.3953721599576868 -0.08023075992729409
Ni 5.217898781812878 8.131349245591286 5.318053643818949 -0.14157136781830457 1.022949131051535 -0.6011853684741969
Ni 2.9464762653091374 2.8797974715723518 1.1438525676598281 -0.9936539816318436 0.2864951970486099 0.9404897389040383
Ni 6.921414183388978 6.602651543444427 4.763415824149191 1.934567695447178 -0.3285877553432857 -0.79065690240789
Ni 6.543929646334943 4.885581334437348 0.662166384585625 0.1607713377855231 -0.14985726197618063 -1.2904235640232682
Ni 0.9643009827900867 7.597151289198837 10.628256170930467 2.9155227414551144 1.630979033251391 0.4089979782712375
Ni 1.4664747705213623 3.3325916949400805 9.447352548151981 0.38055283555666725 -0.6049317228905066 -1.378692106653374
Ni 9.286840412753143 8.6707893927029 13.454316507103966 0.9270459546943066 -0.9041271411146042 1.4862079275488662
Ni 3.651887915011403 6.963679346062231 6.727911818467864 -1.1314183169992322 0.6477542173726716 1.1998389716654756
Ni 7.356188376159583 1.8246100071887716 5.417822830364968 0.0444209493175364 0.24469780139684955 -0.7576583359946822
Ni 0.17876525626186704 3.8206396508941824 11.239547094586612 -0.9686967974658734 -0.051812356685601094 1.3452204572584896
P 7.168592836852383 7.28255431866505 13.704960623074932 -0.05689079964977299 0.7559323544425111 -1.9091487411534411
P 3.4280931765774088 4.646088107010431 2.4203924712655636 0.5347046111431437 -0.030577358566224757 0.6171331500527049
P 6.540990275110269 6.144109632395331 6.76989146896802 -0.19340712154267334 -0.47276879287029544 0.16960719090959822
P 3.7866964659876 1.4632077623767412 4.3756818681337055 0.5676599830232417 0.33681322857687157 -1.565990029974516
P 8.17510281598659 3.160264036102443 13.963632779690103 2.098309942935567 1.6486188578203413 1.6667297084884392
P 3.6226720628069233 9.433228588585779 7.967646862697644 -0.6852822962251166 -1.1413373758851568 -0.4844608844962431
P 1.7582307672073663 6.390558123579995 5.795898049980395 -0.5270517225835761 1.1169435204218248 0.984071480149731
P 6.542001269034679 8.24576941909188 8.931680119318859 -2.1596351242076097 -0.04078180990305234 -0.23856340636433748
Ni 7.490519513338142 4.913496000016893 8.38727674092278 0.010217563962950146 0.16813986233545233 0.19593065929547546
Ni 3.472483298702895 6.5295229829121 12.017878553297924 1.2642813584102615 0.6448853804653087 -0.09543086470650015
Ni 8.056292307758696 -0.26449098831344137 2.6591293254601442 3.273804167208091 1.5397904887610128 -1.5228826572620804
Ni 0.7940870501388546 3.0671964287275832 5.41215096722793 -0.10018637711361456 -2.856571716842203 1.4876534017461411
Ni 2.5661085233595626 6.126669987199256 3.817837887175887 -0.7718467116799224 1.0217705373624015 -0.5175556101676828
Ni 0.0635737318411672 4.350643854711302 7.3850597415453745 1.6616672063638673 -0.3495779844417076 -0.16682525728908687
Ni 4.792307783855664 5.882908118758164 5.049366094613721 -0.23256862223348332 -0.33331858516005175 -2.316372401133075
Ni 9.276187532327414 0.5259686530688494 11.46858402373977 -0.0851546795914727 0.5482759220696751 -1.3385780122413076
Ni 4.404058033717634 4.608203918009621 6.675013433584078 -0.002558761866111722 -1.8597038562587518 2.268154960887584
Ni 4.494785377378581 9.70048670471455 9.960079989127514 2.587867011007795 1.0386891674946113 -0.8987813034216586
Ni 3.1950403548911783 -0.373814067445135 11.529676139938704 -1.683091437675914 0.1305189666588849 1.501209286053705
Ni 1.8465897639898345 8.81985483022425 2.492129979046342 -0.7456253160895481 -1.0365361257073502 0.8432156503412123
Ni 3.8667334850033965 2.1909361668548732 8.26942199639565 0.3294717006101358 0.6744615514605288 -0.6847647331587497
Ni 6.8519645174149195 2.208881309013152 1.5053942921892076 -1.2085131024007056 -1.0896409759521297 1.0489635528374255
Ni 0.4481829677458363 1.652179376747722 7.990130244249942 0.9677611730254817 0.7556117378782987 0.1383873136633681
Ni 5.928767926495987 8.856690581081228 1.5376328290065764 -0.9847674777754911 -1.1460494366488456 0.16357409734164088
Ni 2.83150378957206 3.961448638032851 4.782391618447076 1.023766484746508 -0.5957927367037158 -0.2769186091037682
Ni 3.842844073011781 2.78475468162295 10.513415686066853 -0.24109902830199764 0.18103060225519146 0.7164738913365726
Ni -0.0797524429481849 7.603732110762358 4.845703240752285 0.9796209005775451 -1.2664315719840447 -1.809693071558264
Ni 2.3761071929544606 0.31329578390885154 0.2836830229784924 -0.17065440122718997 -1.2384559127067252 -0.6466257601951831
Ni 3.6200696895570528 4.7580276009742795 8.934009149766945 0.3076492054184056 -0.31411990074441387 -0.7362644436999384
Ni 8.235200788159855 7.716476655443791 11.631775293038295 -3.6520931464312456 1.988774777617201 -1.0931693008203627
Ni 0.6329861043895968 1.8724262753914251 13.1650093623682 0.28955198159706264 1.6554834461506587 0.5655578490785743
Ni 8.556846632999944 8.028087449478626 9.078278918885747 1.6967568509781485 -0.35165389313412987 -0.3815650788712654
P 8.574707525664522 3.1663112775391924 4.015651017858028 -0.4301648421568398 -1.7393566879265463 0.6031057254253613
P 9.12487544164071 6.014870909058243 10.287818008467662 -1.2116771019509842 -2.5989415236544016 -0.8307239456321048
P 4.690384618587361 5.379713976047622 10.61070512918161 0.8113236867286221 0.8080606997066342 -0.33570122645961537
P 2.0106422503350787 2.1842617347427953 11.29932398257833 -1.8359111247145283 -0.24792170765078592 0.5119876291616021
P 0.5481403114944534 0.8061609386916704 1.3816626774236995 -0.5262176567180551 0.6325494846077752 0.9544837391902851
P 6.152169500626044 2.6436461407289014 7.12729186282926 -0.9439357884711098 1.5229644183426092 0.41169686525963933
P 9.623819665446787 6.759580267044522 2.5049124994517307 -0.3467250883739448 0.006482522400550125 1.3888142826890404
P 8.901398979071807 0.9120625522736244 6.329354610828278 2.272646163889718 -0.7737241312082933 0.5647500084652983
