# total energy = -381164.2605242547 ev
CRYSTAL
PRIMVEC
9.29243994131093 0.00000000000000 0.00000000000000

0.00000000000000 9.29243994131093 0.00000000000000

0.00000000000000 0.00000000000000 13.60042514834290

PRIMCOORD
 96 1
Ni 3.3693458744533333 2.594300611195508 4.647714300017316 0.4153241775995815 -0.7778687495042862 -1.10430551994284
Ni 2.235686760877234 2.361432061004382 2.2922702874464203 -0.14274327663921868 -0.4410696619948017 -0.535917143394006
Ni 7.577622538204555 7.636220665798539 7.083074227133252 -0.2699725168032383 -1.1117897441350273 -0.09568977479484164
Ni 5.612615266494013 2.2959761125787517 12.96580214394473 -1.6689459994134677 -0.27687644301192316 0.542551103770756
Ni 6.615557624462029 6.950503629714988 3.524672728558072 1.2117958869170355 0.5429560525186584 -0.975342070696533
Ni 9.040884503946625 -0.13921004590635533 7.964681477069918 0.4736385970697585 0.5377588245884352 0.21321721429006502
Ni 5.098975637131901 5.4332990488947255 7.5319427609088825 -1.3973814555327613 0.4974099884577433 0.3360359840912148
Ni 9.252817186476912 0.6026444796191205 5.678367643760469 -0.8423227062132977 0.4954567213861145 1.3046898441342951
Ni 6.736638119633233 9.042557143173855 8.697390382998503 0.489195570967751 -0.9606271330838616 0.5989433665175556
Ni 1.0943706766164787 7.560524448326196 6.549951138505947 -1.0659531454168867 0.7951403921005402 0.3198156655776105
Ni 0.39174976265373057 8.697036341028738 12.455419514855642 -0.4508403682283203 1.4842086377306503 -0.23962347219773567
Ni 3.6855490279211565 1.089659409459779 12.168545160993297 1.695405736266893 -0.9947109621414482 1.906399717653394
Ni 2.300436483851367 6.252306846508265 2.23029342861343 1.0367060756263113 0.9705755025458251 0.20049205341391277
Ni 6.184035288716797 6.525067842268845 12.230291567310534 -0.6326831819721621 -0.11703378768825652 0.1266160320600529
Ni 0.9889851128607898 5.246818359938799 7.08465208347094 -1.6120659983969718 -0.19100236875592266 2.337769892972245
Ni 3.0202103130893665 7.5129006925508754 13.631298830259091 -1.2091597348457692 0.17211915869817454 -1.5741049457721665
Ni 3.6344963617300134 2.221748100650311 10.024179855702785 0.01621697607949465 0.7326702985907769 -0.929684163648102
Ni 4.177704535653504 4.332442249052652 1.4631885554648756 -1.431040281237787 -0.21279169671687223 0.41322641453028836
Ni 3.4341792293888274 8.917806134142895 10.072978175913226 0.8882474937698702 -0.5427902163647554 -1.0143691026920076
Ni 2.6945474555475384 -0.016019237576795006 6.158136328771159 0.4095278826327786 0.7071590416935498 0.03867736196553984
Ni 8.53532929751613 3.085145884866525 5.637430727918012 1.373711622719647 1.1503200389997417 0.6432267618159633
Ni 3.4046943167888095 6.845805706530493 5.9302884839937695 -1.328287686058893 -1.2470284848670845 0.8269467379778597
Ni 0.079074019467334 3.086892863614966 8.175664472216745 -0.30075684917394657 -0.13434631082477508 -0.219597406784796
Ni 9.0019213023923 1.8055768760349964 11.33830744945693 -0.3366000841248009 0.634015013409708 0.12403413026548961
P 1.2703509082014568 5.9750111399538595 5.049008327950428 0.6041483077572627 0.4106319143302347 -1.8435946094017155
Ni 1.929538027653098 1.1264667648990068 10.966390541818082 -3.3273463621006045 -0.10262532557241036 0.43323705332426027
P 1.547730246717224 3.118617254291443 10.048511180994902 -0.8117222077186214 -0.4831779040187615 -0.9427235133305636
Ni 7.362716274825856 1.5063788880440192 7.313832464166023 0.16261867540690703 0.8533370550459304 -4.287343317799635
P 5.833728879893768 8.45292393825456 1.9812151458224074 -0.03759775574811589 -0.7533859338715735 0.04080520694182005
P 4.392675846113261 4.8174797476291165 10.037589776085099 0.6221892244193736 -0.8018635697569868 -1.6420905697835204
P 5.044475475644632 3.141290808260571 3.2389004580976666 -1.6525086797930508 -1.2704643472925217 2.0370310415204274
Ni 3.038804485832082 2.9050583947346804 13.57540108577307 -1.5951345127489562 -1.0350816526490108 0.37281330082056435
Ni 1.048540361790356 6.554617801949921 12.2342083308343 -0.31834576590030333 0.4873412913678316 2.0356187345539327
Ni 7.142150915395027 4.206678364045201 11.76665269991444 -0.1701635776337005 0.8962994175400694 1.078602715860097
Ni 5.66956863218122 0.7155885141938622 3.6120142320280015 -1.8781864884439716 -1.3241006445607388 -0.5045257735669182
Ni 1.7553976992180735 1.3315695039181026 8.540292389800928 0.6628375940683552 -0.4009344845368127 0.005905823961473699
Ni 9.265659338765985 0.6086548299089697 1.1493391770873722 0.41190692438791643 0.9411998775971856 -0.0571291409128242
Ni 8.462681000413406 5.788660545160051 5.581002385099352 -0.4140818205520482 -2.688061615651525 1.1955141190378766
Ni 5.749130504756497 7.264039852859393 9.487724498037231 -1.8747247551476165 0.11969050858481321 1.960929216159842
Ni 6.846920799348648 5.442916724451302 9.140274585316707 -0.5534644082491501 0.8612169720146393 3.297438518797579
Ni 8.837398649513853 4.232511347665765 10.247009782798482 -0.03203748805151902 -0.2694143303069231 -1.1764668725984382
Ni 1.5246478253814395 2.310360809932936 6.372791696265772 -0.4333491534220924 0.20941532404547158 -0.7433851139051197
Ni 7.637410098137903 2.7994498124153604 0.017521825149257302 -0.0255999599562914 1.4167310637039667 1.1688240113411998
Ni 1.0562623795560715 8.506457685966096 9.800371434659159 -1.0154294256357224 -0.33634117403645947 1.1191500411548403
Ni 7.611400558154465 1.6571951916993257 9.353611355553854 0.7683602957932186 1.5734647410850064 3.51186003780839
Ni 1.8971724586061829 7.934201344129698 3.855856224793777 0.30386119913088316 -2.421739551116681 1.4075812788838986
Ni 3.5459394070882957 6.072683978383984 11.628554029850179 -1.1363810603211462 1.2016459429672273 -0.3371418155608839
Ni 9.054367834606136 6.625175300018606 8.897262407456441 0.5431879660238065 0.35292941741244377 -3.988832841457705
Ni 1.149381922312068 4.447547705206581 3.0763208544548526 1.093212495353472 0.2516896593336504 2.095004275601102
Ni 7.0353621931764945 5.8671909568785345 1.6138403829295045 0.2054915635110332 0.39689836679422613 -1.2538506499952409
Ni 5.201750025205081 1.3437983551571895 8.264325502188157 -1.8309308978911178 0.004076484062218786 0.07426245815900114
Ni 5.629527507569346 8.774302980886647 -0.16707993240808025 -1.001764783664436 0.10008584698000828 0.19486673680733538
Ni 2.624370947525057 4.486650293363176 5.888794021742235 2.1781776630964877 -0.24004641866776724 -0.9738747421223873
Ni 7.712706740683741 9.184908033851345 3.1161157294027175 1.84050877138754 -0.5713801121873063 0.10550213289957315
Ni 8.493476147074755 7.787696732704586 4.85483535703727 0.19229563364604946 2.1817057308544037 -0.729873195461614
Ni 4.429167258587346 1.5148350085816857 1.6030137609092459 -0.3327557706780463 0.9293979998662509 -0.6041943305038497
P 7.823026590159761 4.6579006729111505 7.6896122391757595 2.6810851843336923 -1.3866044195219152 -3.524506780038123
Ni 6.520960583721978 3.6057827216625515 2.003261460081324 1.9339411176067722 -0.00042834578667023005 -1.503846723676552
P 4.389172596176228 7.998765218300806 11.751461418755126 0.5603858179593316 0.3777145947769237 1.121172728011824
Ni 6.872307745841949 2.2264965375676162 4.516020908949333 -0.03765149180418677 0.21503164179098452 0.16695972598442213
P 1.6837158158910843 1.0799302246213867 13.274817594955536 -0.3147971293170966 0.3719069869562111 0.14505238438836954
P 7.804850577223854 9.055947549431854 10.792345925516615 0.5626671577943406 0.31846429375603863 -0.12860760856878498
P 5.741185468427151 4.579834883200232 0.13253435690167437 1.901514364536635 0.5191054711533061 -0.5809466728298188
Ni 5.560456799924867 0.3906792735483029 10.921482037054966 1.207413441578624 -0.21041754005774085 -0.4370463997680215
Ni 5.095360877913053 0.8748888157072892 5.849788074963214 -0.10753664683109868 -0.06089503571315964 0.5939572261568739
Ni 2.7504414830574992 4.00386156530332 8.401349966170931 0.49502477605501843 -0.10392193289664683 0.005051703491294525
Ni 4.590391095212087 7.594302468276106 4.280081207288208 -0.9786572511126952 1.0125179084158822 -1.4617436238589148
Ni 9.187574964174763 6.689404646344266 2.7898823160356003 -0.11538802455471739 0.21976041472522154 0.2130441790473105
Ni 2.0837089022030173 5.194771402651467 0.28966766137182237 0.22154758853263137 -0.8789791810940668 -0.3457861214994432
Ni 6.006819162591698 3.489422786088199 8.471650992891439 0.2276051075806209 -0.8473854654481859 -0.4323536222780424
Ni 0.41069426039014917 2.9868225756258107 -0.08062399848456783 3.145015038756119 -0.8634872561060548 0.542093190297731
Ni 4.910060328856339 7.924379234889793 7.372763261117422 -0.11131179760281476 0.6990220144087123 0.12495072854248805
Ni 1.2506323502004366 4.259468716544634 11.817219371485672 1.1047804026967294 -0.30911421999970634 0.24001993630520596
Ni 8.740255480172351 2.5253878750336014 2.7810963138725633 -0.548313717286146 -0.1852235572906165 -0.17464449622318956
Ni 6.705146039960539 1.2398159498643444 1.5476196666794237 1.1417058149681691 -0.33358777966103836 -1.3998497145675954
Ni 8.177579644131924 6.492841659824198 10.74787230695258 -1.1420418581513492 1.6640755586950438 1.740753825384389
Ni 8.978346381728498 4.614365590802396 1.524185991105921 -0.9139266437035294 0.17849986541353774 -1.887012314265718
Ni 0.7821437582893892 0.4592184536161285 3.6523945307053975 -0.08496210396469239 0.793408239900782 -2.219056146478404
Ni 2.388723957728697 9.124172645022565 1.3841563519782225 -1.6657120658572022 0.47389493605493865 -0.6185043193686187
Ni 4.091489275929909 5.042607695174225 3.702674995119969 -0.005918679477280129 0.4571475413932708 1.2535937967894282
Ni 5.68927789774209 2.764203586921548 10.624720526871654 0.9704402625195416 0.27821650197958536 0.23142319577513049
Ni 4.8343083567430885 6.65724351098068 0.7684522769704903 1.0060330720224868 -0.843273243052025 1.2122154909529574
Ni 4.343974167280392 4.119115700499671 12.222933813198749 0.13932910875134716 -0.4475634972492615 -0.8841082747905161
Ni 1.522975186154209 6.118040378762392 10.22485381774578 -2.5736382690029225 -1.8466868751737937 0.6615857239391251
Ni 5.241503084172265 3.364012013806497 6.224738035067442 1.0884155881854611 0.7550113852901383 -1.1961255273696303
Ni 3.022570592887792 6.5108411163972315 8.969562238053491 4.002605983982397 -0.5361855665640443 -2.1909113086130723
Ni 6.065556676787951 6.184546372925117 5.569523433780473 -0.7682140000233414 -1.1902577557349436 1.1150115935064344
Ni 7.330044055253949 0.792739927793896 12.710930024719383 1.3862989724663544 -1.3533433434759403 -0.5754812788398734
P 1.129412468426963 2.527757447272178 4.14505647642599 -0.20878000445431788 -0.002357187378266908 1.4497460851774064
Ni 7.026683054075197 4.531198251448422 4.138677216262135 -0.14456953121468005 0.2399088646486384 -0.39190657000658957
P 2.4485393949824994 8.323703265510835 8.209094025660981 -0.14416766779057108 1.4649667587819029 -2.137815714339673
Ni 3.511408699486132 0.11294868079481733 3.179983599806494 -0.18689066058039427 0.6852259890658844 1.8290511643699017
P 8.311362904989931 5.991282202658754 12.733615658860707 0.17471391600854427 -0.1905321139877235 2.552998995486016
P 3.5706387130104034 2.382572362348548 6.88948575070561 -0.1829080217835624 -1.2380651050262097 1.099384428492139
P 6.189554998166658 8.317245019605693 5.577561394511332 0.5761410239110593 0.8963315563295853 -0.48874691346610666
Ni 7.98778155404199 8.038285966264207 0.6234121541132206 -0.7595658374300404 -0.9928962775302127 -0.012994355377138911
