# total energy = -340893.1620976506 ev
CRYSTAL
PRIMVEC
9.07032696612419 0.00000000000000 0.00000000000000
0.00000000000000 9.07032696612419 0.00000000000000
0.00000000000000 0.00000000000000 13.27534035762854
PRIMCOORD
 96 1
Ni 6.419750702396222 2.00195722691446 11.255709836077683 0.7791285900533163 1.5838226872805625 1.612815217858171
Ni 4.636968857450187 0.09317493425222025 6.0017809632600265 0.02019627244221683 0.6323283697359046 0.025846014528826455
Ni 2.7321457625295964 1.2937007420193891 4.919416119570787 0.2621270526168905 1.0353593317904297 -0.1321297627894305
Ni 3.3905517301552393 4.299761310047432 4.724547399934715 0.15848871239893347 -0.35282837305820525 0.671894819174617
Ni 4.8319808882530815 4.337702487947364 2.7985079030954707 1.018423989487672 0.6337314207310183 -0.5479388504452305
Ni 7.060061367628759 5.87328164045144 2.492259195857202 0.5998717918690959 0.38496639124333054 1.0744179883547882
Ni 5.131619141163482 4.627163833947957 11.573415273367445 0.74900425986411 0.2069954017500693 -0.47551524526718103
Ni 5.629471250312751 7.9725090542649815 12.260029050974202 0.23714852829468192 0.3073393874874707 0.39122059968315853
Ni 1.8141742467417936 6.874745516403924 0.47165972583068666 0.036377767298085735 -0.7766773002993462 -0.3938901760955216
Ni 2.9382235922896784 1.8286776996373209 0.2608163462574026 -0.6027259734884395 -0.34884367737884436 0.33785323980561166
Ni 0.3071457625799619 0.10583076153497742 4.798823400820381 1.104490896480769 -0.6641881945589787 0.7064267915132156
Ni 8.649082886899842 2.456253625742078 1.3614125472449599 -0.03143996367683617 0.6841024169844023 0.25280191856122264
Ni 6.9157524648346165 0.6059504524377683 5.016034149957554 -0.44412876053609956 -0.01862481419003889 -1.514364078268108
Ni 0.9507879589247734 7.72847190595094 2.64030598041385 0.040283273000079015 -0.8055502745799545 0.01927915994458615
Ni 7.758866571775149 3.9308076180953697 3.8661380005503245 0.12212225795475742 -0.7140693956601379 -0.7484558435598077
Ni 7.473949459608614 4.022345358321547 12.685371151907447 1.0246576291022096 -1.2123612725022024 0.511325570097571
Ni 8.099221522651792 8.746806590149628 7.007069796114352 -0.3508133995107055 0.24986777563356324 -0.5042624926032024
Ni 7.028523840600775 0.557533046836566 0.4586165955844279 -1.3623224070460989 0.7208362820703264 0.34673537278658995
Ni 1.7865006790218108 6.546807843209567 9.04936186022776 0.6614705385174995 -0.2600174624730554 0.36649095814696236
Ni 9.168558655650697 5.235302049261524 1.4344540766240086 0.19777799691685938 -1.0520581326023493 0.06474449136623689
Ni 6.465791682319733 1.7653396060979432 6.971173069923396 -0.08895348451227261 0.34401951651732365 0.7127103105290823
Ni 3.55451603158891 4.481993250087477 0.35690194844844375 -0.8251078849969081 -0.04688997968331924 0.3773245584273566
Ni 6.184021973627085 5.5511399062190865 4.878169714506923 -1.1227632124273954 -0.12006151877098678 -0.036214502247344085
Ni 5.34565164771492 2.954087594237319 9.090674478678826 -0.16161106007799908 -0.27677102778231044 0.46642382448887415
P 0.25757098325176186 5.729934192320792 12.556587020830618 0.1456041431267815 -1.0642209932171285 -0.5387402146650979
P 4.189393570940008 6.306834201397838 12.577774397702827 -1.3845074277835703 -0.033532584539806766 -1.0496796050678439
P 2.514222085689115 8.843414643176681 1.2045847791059734 -0.6077712492218307 0.0007247939811664937 1.4313593551401027
P 6.346544093065516 7.729723611078885 5.942267826622491 -0.13455457018083924 -0.8616563735449031 0.7507037590537201
P 4.8678903129018565 1.0802124550887968 12.50369794401147 -0.19150450520332182 0.03327496000304592 0.8946719092389753
P 3.9589256318390436 6.137264437869461 8.254155406510238 -0.3078888322330375 -0.05350285701414657 -0.16385897557191134
P 4.885015090304455 0.9836497536968147 3.8269623511437763 -0.9451717177607399 -1.1893020766898936 0.801232363930891
P 0.18164418284953157 5.811177111385979 3.6074676936644554 0.4336630851180854 -0.9821390390137084 -0.3312748152571456
Ni 1.3556964271606813 1.216702735996795 2.736698159657967 -0.3977388604176505 -0.7271198010861929 -0.8635309648597966
Ni 2.057549261183806 6.4072608620978215 4.689036162641858 -0.9150880110014821 1.0907792033216313 0.8721773276808851
Ni 5.873245359143383 5.542377970323477 9.12072991427271 0.1722896228377678 0.35191717409784556 0.6818028223169483
Ni 8.63379031555409 2.5389840784375757 10.319439842571658 0.5754411696305574 -0.43007999575251743 0.16487661820314828
Ni 2.442230900178298 5.1232109480214225 6.937480433196865 -0.45516187842180966 -0.6905808256198945 0.4788643642450721
Ni 0.3352565200620238 0.01017237174629983 9.410596703890834 -0.29493690005805984 -0.007101129821155512 0.06612157421942161
Ni 1.2918685359625433 0.8876022468792327 11.49959097476708 0.7171902006773068 1.2677322930733392 -0.29890334090497556
Ni 4.086880735026784 6.88989296251745 1.3699359335400982 0.22227418228601073 1.1459028837686525 1.0746892397383039
Ni 5.568591215394192 7.966513568108669 8.16718820406646 0.49937019750790773 -0.3081248595032436 0.10479250842705824
Ni 5.3003544346065645 2.687256714136874 4.991329300269283 -0.8986072397376393 0.7822010583310529 -0.08774815135026179
Ni 0.6477927779864582 7.01921768508432 6.802868617013484 0.8225300969674028 1.1659405191458176 -1.3274955291749009
Ni 5.06008147200337 4.466492061220401 7.0281111407216335 -0.030995934160882102 -0.28318978682446067 -0.2942421879838803
Ni 8.183865814347262 7.1832364084800755 8.73389951480858 -0.737233235371111 0.5091036227455877 1.9584581289115301
Ni 4.837441225115562 0.47247424119655174 10.42237716978914 -0.5898334337964873 -1.5148651862742428 -0.3852276153245172
Ni 8.027611290875566 7.209975732517607 4.606397320249203 0.8043061177602083 0.015891474419275856 0.8608842712655689
Ni 7.1657578883239275 5.918179759171176 7.073353931867905 0.2143356441652244 -0.46960736442317835 -0.7664633358808218
Ni 2.455246819443514 5.464300595386207 2.5463428347441055 -0.28550969320688896 -0.48489488670986813 -0.46798037034271656
Ni 2.5240633904994008 5.213043466768952 11.30751047365514 -0.3357598476116927 0.5476619426347601 1.3950137266315328
Ni 1.1574100083057008 3.4529374393581374 3.711439945194246 -0.7170099663457006 0.4460576021276963 0.5657540242497804
Ni 3.377680936122248 2.5237005774188375 2.9287523568215676 0.4730603559687853 -0.11033066463646807 -0.6753017879736369
Ni 1.1965121880634348 3.274487825682968 8.253943160858107 -1.0523815773800391 1.0210871381421318 0.14784485953184215
Ni 3.467313907675467 2.608644189905773 7.443111254793416 0.23101567592406666 0.4978586459593878 -1.341144744527219
Ni 4.007542584634556 6.770999116016784 6.100868843692731 0.9951308232876861 0.21831262653510145 -0.3605432252039597
Ni 0.9515135850859004 7.4525253472013375 11.466894259946695 -1.401648201228915 -0.3598695961757028 0.22263927893491334
P 0.12273240889302922 5.464273384405165 8.08703191017756 0.13655977353632612 -2.3682150968359794 -0.4797333971135867
P 8.66731424419816 1.4565493932303273 8.030160052766526 -2.0254711045969698 2.1476656105505594 0.7767413207680622
P 1.8159338901825268 3.0867411268183576 10.394976618912283 -0.1405591245037063 0.3144798551869939 1.0906984706823668
P 4.200105627143647 6.1984528639065 3.876996996051591 -0.40766820371622053 0.18287254055993668 -0.6305764200418043
P 7.093467382021645 4.260786114867896 10.431138198652048 -0.5270090422710989 -1.3565145421150702 -0.18411155517336034
P 6.68583781568151 7.916563277242085 10.196855280008958 -0.7429729660683656 -0.1509651503283787 -0.08597151906581323
P 2.1723796011821617 8.569118883943641 5.891052225137442 0.323593644562804 -1.8118751668112472 -0.6221663416012382
P 6.669357031496912 3.929628475583539 1.5802033473479877 1.2267319394015779 0.19456051842082622 0.16736030385695047
Ni 5.17401384962733 2.7643726344106514 0.6011032696814396 0.0918122941173064 -0.19737150550706006 -0.47038023803346085
Ni 1.419270349202425 1.1991879345325906 7.1376326183186425 1.2455477865565 -1.3610314561488173 -0.836780693349146
Ni 6.852087839522732 0.9637313155738771 9.241150296809847 1.1064336220294364 -1.0433320655832614 -0.7012401051059536
Ni 2.8168626168411794 1.3732565802599561 9.423301510939467 -0.9533575960056421 -0.5266544871451575 -0.2739505276143798
Ni 6.393873059425029 1.950582894706665 2.622755804674291 1.078976554259748 0.40212284841795903 0.20889313299341444
Ni 4.100159693775409 6.994238004487521 10.39127229735973 -0.12490496290621715 0.33316946117669716 -0.3635383032765417
Ni 7.982268726132141 7.230247913394093 13.495313258892057 0.6737544980911752 0.5681091547455184 1.0225657795701872
Ni 7.53486577583523 3.605981067066846 8.272940053756415 1.08885730370857 0.3667727510534393 -0.44120927289645956
Ni 3.105734391585858 8.53512329829484 12.368501998768382 1.0257413490846914 -0.3337893541488832 -0.3235607344423395
Ni 0.25449251426318037 4.919908638327652 10.245721666797358 -0.08364569914611401 0.042817609386158514 0.3958182463561699
Ni 8.854834184887418 2.4509202734577937 5.793424667354006 -1.1130040761581026 -0.9541016732605182 0.12105267903966248
Ni 3.92404115414286 2.7367081370176827 11.24154470637978 -1.0877987805370686 -0.7682407394962188 0.6015622921976413
Ni 1.205283194286058 3.5233685286225316 12.6200566341117 -0.5400715318820118 0.09432888989157304 0.1855403172000869
Ni 3.0846912329131735 8.325843643098784 7.840867770178715 -0.045622425824805295 0.06840291405443058 1.0300019241332583
Ni 5.930615177507491 7.691628237619714 3.6473735043956377 -2.070616076564724 0.9201343151761379 -0.2534521505507119
Ni 3.09954842856225 8.450977874585144 3.4857729301818376 0.9694591295531948 -0.6442451757781485 0.22392174519176275
Ni 3.3708328392266114 4.237683991963014 9.389807514374544 0.38932518243265857 0.5884694635694252 -1.4367771837215642
Ni 7.273531513905322 6.123912916504723 11.556475530635934 0.32699855647929493 0.6724293515218484 -1.726947515628916
Ni 0.4149465991423993 9.089374700817709 0.43588544905442167 0.740512420343015 0.6325975642368911 0.25049589613586537
Ni 4.595154649915241 0.4497748408110948 1.7714611697997513 0.24564936667684145 -0.4843205022636369 -1.2239680035031952
Ni 6.028583779586658 5.7645374898795385 0.40213294816959694 -0.5956281861013935 -0.5512015803569023 -0.6022066106498597
Ni 7.919266234692284 9.003986642307082 11.647505332549322 0.5602559772496867 -0.3300761669633541 -0.9879255637884985
Ni 0.22336950117973975 4.7700124140928315 5.7512095513650365 -0.1522823264779055 0.809225923659329 0.11477584489201521
Ni 7.959239165843371 8.793201312826689 2.641142264564549 -0.6016666789859896 0.4004650010995619 -0.38947456352632925
P 8.39938585452901 1.634355013687497 3.685181348488461 0.1988761150770446 1.0481515984590917 -1.0099378063935318
P 1.7620561477188432 3.4771461421587384 1.6603469427790678 0.7500023621113212 -0.21399651565825079 -1.6349475309808357
P 4.666420209264931 0.9652369898582158 8.239565785508077 0.724244793531243 0.30001894256665745 -0.756470229223852
P 8.735958479040779 1.8210767655995148 12.517305248598005 -1.5733850368870066 0.035905712757673645 0.44783063486771907
P 6.209264693707293 7.7433291016000165 1.4290771867700571 0.4434430473229847 0.4919283965178818 0.054413798864190156
P 1.8753898837598746 3.075493921320888 5.835016651877107 0.58798301085131 1.1021591630237988 1.067678869858742
P 6.951335357710884 3.7091651071791127 5.942295037603532 0.20054604658029976 1.0245918088612807 0.8249304788787792
P 2.233205214138637 8.389499198083655 10.12811580673269 2.0057479151364297 0.6957970797135113 -0.254246107206917
