# total energy = -340889.30986149394 ev
CRYSTAL
PRIMVEC
9.11922352037963 0.00000000000000 0.00000000000000
0.00000000000000 9.11922352037963 0.00000000000000
0.00000000000000 0.00000000000000 13.34690540731406
PRIMCOORD
 96 1
Ni 6.613671259816713 1.744698962556644 11.589545478603236 -0.600561618847269 0.18163404016714524 -0.619308560437469
Ni 4.585565068788885 0.5310588934533189 6.047616434193338 -0.6273579131045067 -0.39245215809741446 0.23122624927297594
Ni 3.0268800275384775 2.076210095081676 4.961124786669615 0.1186687521885182 -1.3518125086537105 -1.0188932158146065
Ni 3.4087931084437213 4.680651212403951 4.6611260429310235 0.5218876618841334 -0.8769894043575477 0.3258564724550517
Ni 5.449310562678618 4.526472500396669 2.8587069551215203 -1.4614471756644185 -0.10229416748523672 -0.41547895800989093
Ni 7.198322917958953 6.091285659850715 2.65663499312364 1.275819440956848 0.5537330885295044 -0.2555910512705856
Ni 5.331262214246947 4.238861309884002 11.743101347644286 1.1041389124579886 1.1202617861617803 -0.12128999186144919
Ni 5.77698250210286 8.195692394047937 12.461631414321909 -0.24334437269274867 -0.0447168832914004 -0.4611983144238767
Ni 1.8358638400592642 6.499325316133072 0.4118615228584658 -1.0221083803177946 -0.6194422578018558 -0.11052349737356448
Ni 2.6574055675108537 1.3881829191471282 0.17820239444130234 0.2063577681660704 0.7147327402757496 1.1176837410219589
Ni 0.5717506926322917 0.023878686780095092 4.634512501018085 -0.6009567974031584 -0.5426205235561107 0.7681533219887351
Ni 8.70367874008009 2.4504174321147874 1.506371703620966 0.012424341806281828 -1.58308966576928 -0.09823259582135341
Ni 6.8522210278062134 0.49466316047335424 4.976540834025639 0.6450211347122247 0.2688700277676789 -0.9986673756860349
Ni 0.811566208845996 7.368305244321745 2.4489966570907895 -0.897812511750486 0.464482127381471 0.6098548712237368
Ni 7.488368941150744 3.797208195716813 4.1659558536301065 1.8972028816454747 0.4348614763015607 -0.2938578080612681
Ni 7.9321012382798814 3.648665163843233 12.554125874613353 -3.0032171567493053 1.2652874310772724 -0.12218293598936376
Ni 8.346177820530704 8.690574415885706 6.936907608922132 -0.9754585416697394 -0.06591974262126067 -0.22998620621828778
Ni 6.913292467701687 0.8771945247330726 0.5068683292289315 0.24611087969429227 -0.449729908772961 -0.3093664452198285
Ni 1.8232610731583319 6.32873200179462 9.424743950895527 0.5622321271394511 0.4739682124950354 -0.9755765553048424
Ni 0.00815349774683331 4.634872710347019 1.5275000325882382 0.5978797011397317 2.3747251300403556 -0.06777685043465748
Ni 6.418228061393571 1.9378532358769398 6.9388162624043055 0.4487012103981305 0.4680389914947939 0.703956218485536
Ni 3.439369864897286 4.127114344902798 0.4993331148365724 0.2445481631928627 0.1368888747409707 -0.49532019580825015
Ni 5.995105209413571 5.5887982055995025 5.003955043763399 -0.6932519446941545 1.4532510130068712 -0.7819349491538597
Ni 5.40110634716608 2.7664350038838976 9.585480296534111 -0.7126123514986372 0.5538014798735946 -0.4449430289072788
P 9.135273350707678 5.633527996951943 12.577870508807743 0.11393303727574572 -2.384171877275552 1.017250795115177
P 3.7920923113235983 5.905755057390896 12.874197853158263 0.5324770073642056 1.6560472890739286 -0.372204720702288
P 2.2584395386282257 8.612595935589125 1.2167424289439164 -0.7387776970400954 0.5858392250354298 1.2897823308948433
P 6.4156382019146525 7.702743647595836 5.874320182004352 -0.548097744620598 0.2559360933148302 -0.1848641170686687
P 4.618713446274333 1.0667029324911448 12.52049144251443 0.6659882238821949 -1.1356372401765862 0.3550089256492918
P 3.86557501442614 6.630815400029269 8.452768776535217 0.5165377104261297 -2.3601510888809227 -1.0567005164703673
P 4.968353595151792 0.930179037213389 3.79882321020173 -0.3399371189178339 1.4098168530826365 0.8603129721431313
P 0.04901947409498688 5.639610519037993 3.7625460271274904 0.5823091003949843 -1.2056280675434268 -2.4057357194892566
Ni 1.555757770501349 1.2566290006863103 2.9305135449415793 0.2008970021618153 0.6832994614671329 -2.2514985832778254
Ni 1.7298255089998997 6.538875388527678 4.881617012589181 1.203165207825231 0.7362402753302224 -0.4994799836128947
Ni 5.8691413749688675 5.5578475609817275 9.386437740588683 0.3997258089406922 0.2055129036672719 -0.30158088773713865
Ni 8.679230101830163 2.2181234514581667 10.008563935852989 1.0304066157708447 -0.4921135159454944 0.6173969452370528
Ni 2.8970952384400186 5.113577229665069 6.903860454817726 -1.8010881034980724 1.3534040215105465 0.36343391648819345
Ni 0.7128633811839615 -0.03114853176810036 9.183431970102632 0.0869444245020438 0.4180287210149381 -0.27524687782830015
Ni 1.6483361276491533 0.95869484915204 11.48139513537726 -0.9349173870225834 0.45467131193863625 -0.7961402941199643
Ni 4.052090493025829 7.400988541407811 1.3570061177861241 0.5454929600078993 -0.5057583604224386 0.5233297936472987
Ni 5.726680865181338 7.9908563954019565 8.009691239654623 -0.764340376000548 0.05291998792748306 -0.24206627731127342
Ni 5.420256716552446 3.0484196334863802 4.910993679227866 -1.1381911169466914 -0.9285904163632912 0.06592411349663485
Ni 1.193058893547092 7.396903129272053 7.1347746969561765 0.5258862415205653 0.09577230720631892 0.1653640993625281
Ni 5.17598007619407 4.651451458701502 7.329933375605578 -0.43531321912699866 0.189261474805416 0.29409126422831283
Ni 8.277984267068206 7.249946842290486 9.049762391785796 -1.1377126346483761 0.4259081237630149 0.8307177749845178
Ni 4.667154761598322 0.22500042568747075 10.33720524873712 -0.3509080161070408 -0.09086509971268868 0.7127373071122757
Ni 8.323735411454587 7.1225695282006 4.907843899424985 -0.9426978022989507 1.4485253253964279 0.28667671693179664
Ni 7.210059358625741 6.087601493549718 7.109122321201964 0.3845804686588215 -0.05356327793843678 0.42726875155596733
Ni 2.3572645638853924 5.389433741063914 2.5634730056707276 -0.20043703180626124 -0.48169309194311877 -0.18658932728989158
Ni 2.0638900241097806 5.145913996257476 11.654558246902894 0.7083425204786898 0.38912437927576216 -0.5476130916746956
Ni 0.9771065614335034 3.484856551801664 3.7248006490669625 -0.20887744926413063 0.9554268198298449 0.05891451494802111
Ni 3.665681634926547 2.7457526049466225 2.8558371354806207 0.6222319047318509 0.5320630597552386 -0.9215350521784065
Ni 1.0751473334681807 3.5489190970108173 8.296916687012509 0.831114239091988 -0.07803812315134948 -0.8062226180566309
Ni 3.587539008606656 2.969529230838069 7.061126935907971 0.5059396231953093 -1.4318648340216114 0.7328549037977572
Ni 4.183744722945337 7.135181414325049 6.157541378315782 -0.3474663374153435 -0.272871178507272 -0.4364398765322742
Ni 0.44463965986911075 7.04510172442099 11.187389545334252 0.6557326075924578 1.025254125035628 -0.14749236128842985
P 0.12474459426043719 5.6909973435580765 7.999013540838197 0.36457342940927534 -0.8040284386187895 0.4699644906522809
P 8.54460300504401 1.4442387861080772 7.89307916892693 0.24229690526484074 0.3322196956689182 1.5094010778358777
P 2.0059920739983337 3.3180203575523457 10.487397948144984 -2.4725826019104775 0.4350108573952315 -0.759891081979943
P 3.994484358066936 6.443387999077848 3.5985924194319963 -0.03734295942483246 -0.19602579011244303 -0.004573735413611477
P 7.153474576700788 3.7588709800500117 10.367181960283245 -1.5856366005608498 0.9151085798267724 1.885490992525185
P 6.1685619599364605 7.6784044400281175 10.163935442296335 1.5576750823509173 0.029411106172265476 0.983741350503822
P 2.409572429980724 8.66241425366423 5.726703663240131 0.7209774356338808 -0.6772769094221368 0.20646678294010895
P 6.934394350920758 4.179631953139027 1.2451898467061875 0.72191126030206 -1.5947624741215178 0.9889198093809679
Ni 5.2501740787309625 2.7901997003700263 0.3794408594096996 1.164675536390465 0.04938086442597302 0.18824100396070162
Ni 1.9034099286520325 1.1668867220523915 6.9459164898348895 -1.270610643062399 0.31500564578347684 0.7952789745609335
Ni 6.860382732854213 0.6925959069167241 9.125559553817032 0.2995186058914713 -0.30140528139122286 0.45362898671705104
Ni 2.8498758990673503 1.8143424725583956 9.283934020564631 0.024863853121215244 -0.4255828792131122 -0.5210044879482317
Ni 6.4890844281231255 2.2452531414221855 2.6410721262689862 0.2780743199747662 -0.4554213027307834 0.04460246920072318
Ni 4.226750981053005 6.522570216878714 10.831748035460047 -0.48763799667264407 0.7290350158310348 0.10754873101595672
Ni 8.231056742848091 7.291457547741314 13.571934266371699 0.0846376307457381 -0.7791085354486582 -0.1836875802620643
Ni 7.712683601229712 3.8065371613750285 8.347047794454257 -0.24568536212109945 -0.053351676148262965 -2.057718908887082
Ni 3.051465454141164 8.167213059003354 12.560332418139238 1.0360306468258413 0.48640463848617516 -1.2406547201302567
Ni 9.062720808403903 4.819381959772898 10.08801790651467 0.41350512211297175 0.10429705684787845 1.1342817545899562
Ni 8.84114191538013 2.288770076046823 5.99920703615166 -0.34225239731457185 0.6725661342100288 -0.8853958832536881
Ni 3.705778860732191 2.709020372618869 11.49579621315581 -0.11980955066118075 -0.3780966607066908 0.647565241290317
Ni 0.9365716128990285 3.3452321205280207 12.724926195325649 2.842726069208362 -0.9738775703358648 0.38393126511059683
Ni 3.1316325480818996 8.61876964991035 8.491781726664652 0.025334107889414433 0.12123856979822345 -1.0849834225754604
Ni 5.575985696557672 7.960726480900741 3.306295771876131 0.18440928891943725 -0.13965281063935303 0.414953167413408
Ni 2.8203022572006904 8.565394834663492 3.588622372360513 1.6307844007420818 -0.9547300508731364 -0.4282036046654109
Ni 3.4571614699795723 4.538737856027462 9.254984133586557 0.6358968038134533 -0.653565681848126 0.4874451639355476
Ni 7.075714957768624 6.032001587764636 11.454447829883588 0.7304185264421228 0.258233116879123 0.35833439047809895
Ni 0.2419174972344459 9.224185780001521 0.4807946453482182 1.2748087403041466 0.8826828551978991 -0.11636298687347701
Ni 4.681781996120098 0.8470591386977463 1.695510782826587 -0.48554100493429925 -1.2927799800705864 -0.6864272084628372
Ni 5.770444018840943 5.771456252651366 0.5531994562310133 -0.44221148890872874 0.5639537378162481 -1.1474792271168366
Ni 8.185542698273162 8.811349412149054 11.25165453730549 -1.0288269299885509 0.7021811288629842 -0.19991792607799763
Ni 9.200749375562015 5.052359882193318 5.8959418609639105 0.03603195392289279 -1.6123830154167584 0.6057351926284084
Ni 8.02483462222748 9.050756387149184 2.5020906002533136 -0.215174595126752 0.00028513534058660574 0.7055870692207397
P 8.664292813708798 1.7604661000180855 3.733596140149415 -1.3480777242016269 -0.22819260465297472 -0.4246272001680623
P 1.9554350988183273 3.247173110046309 1.5720656779173674 -2.3706345049107496 -0.9597282754186761 1.038533101532721
P 4.746163714152358 1.168044863439091 8.239898741970483 0.06551273699082912 -0.13343022676840893 -0.4438582804835323
P 8.709961885083521 1.549748202203437 12.29634366422583 0.08125200210295684 -0.30229282620249875 0.8273396025409042
P 6.483913828388807 7.8712942558664105 1.1873429642464375 -1.1422925407095745 0.40557635418419824 1.4849442303450942
P 1.6440044964784275 3.343946310012079 5.844489378034504 0.8138438820473145 0.8712051935756029 1.6181191465695874
P 6.859051326220684 4.062860295999781 6.2717377667337395 1.0576042592315593 -1.1583038285361666 -0.774381562286634
P 2.3039627024266736 8.239601455283818 10.472048471120633 0.04114716366227107 0.3126263469180229 0.5128564049198007
