# total energy = -340861.0064309153 ev
CRYSTAL
PRIMVEC
9.37240961653328 0.00000000000000 0.00000000000000

0.00000000000000 9.37240961653328 0.00000000000000

0.00000000000000 0.00000000000000 13.71746885147465

PRIMCOORD
 96 1
Ni 8.86338448348709 3.8567464726299425 0.7828801698243522 -0.22518827060901217 -0.9164383543817894 -0.6660656140873497
Ni 6.309534132719065 7.351746059223195 6.950517898542633 0.19079308095859399 0.46224063964546197 0.812677115432723
Ni 6.382301519386134 0.7768199698991942 12.169973335413665 1.5959737208207998 -1.4102811943135647 -0.02037290722939717
Ni 2.021937999465068 8.528855074379969 7.667955219654619 0.8872131389680848 1.4575925778050187 -1.1637985331021505
Ni 4.394872731372399 8.002566168723616 9.686700039233356 0.12291570039033024 1.0102501954276277 -0.2683642917758539
Ni 0.7483784563005482 4.634843901931857 4.092236694249998 0.47531984142692335 -1.3709152909214326 -2.0336706096886266
Ni 7.155731488801366 2.587600397057067 9.939238673572037 1.159944449463383 0.8381120105660599 1.1634784307585704
Ni 2.201541481008221 8.942553225781879 10.55694980958713 -1.0266232374690125 0.7792843989048902 -0.7614689679900241
Ni 3.1531222085079005 7.373340090506159 4.876107527749094 -0.5318784545482581 -0.0454506761336314 1.76704052699506
Ni 1.1276883003325266 5.32044502275653 13.175999326422835 0.8627714609859528 -0.7785693751157365 0.10706279251847367
Ni 1.0022386003661796 1.1253451979797744 12.240083644012714 0.20641767486972837 0.7335727558003883 -0.7401817764764737
Ni 3.2482990260766904 4.63179786887328 1.496863758068382 -0.8915968698580775 -1.0752281429609094 -1.2037971849822753
Ni 5.051260052062959 5.966100934671486 0.5388732397725137 0.31910269867098595 -0.42336324585397406 -0.1690963127114507
Ni 3.636363637739492 4.6291548494193755 12.416860406877507 0.1712472976161825 0.5881511609980581 0.3565220198597086
Ni 6.637784027520811 5.091458316026774 7.370231262304527 -0.2054295999248462 -0.6046111063262942 -0.24748744832684477
Ni 6.448048971404358 2.758956158318533 4.303142148744037 -0.1310298448570324 -0.2711991901214878 0.31175268606381795
Ni 5.409520401798754 3.5023663003903054 8.859016003460619 -0.37883405309334756 0.8626704166317143 -0.4060923745886683
Ni 6.144373534078276 1.0810793083315822 8.393540913508536 2.6385555385015977 -0.22302854395353203 -0.6817539713568839
Ni 7.282474581266433 8.728356181102694 9.372062631860159 -0.14589981999032936 -0.4499731351320186 -0.17145941362698858
Ni 0.9864554629180415 3.351564232967181 11.516294641042887 -0.3978057090998439 2.7013953566459543 -0.6287157126839817
Ni 0.4006986195488407 4.532825225493031 6.3157283580988 -2.1834535667834465 -1.009478607368926 1.312372043269901
Ni 3.546950851958472 6.571970968636711 2.6764564617190727 -0.5311629165384723 -0.19464973570052282 -0.7297603240328335
Ni 4.994903754274565 3.1376296157515036 2.333821792953311 -2.267022647055354 0.03884036990596537 1.22109402438951
Ni 8.981579938569318 7.260843060345825 3.3903547610374623 -0.6995256935180082 -0.07479519073401958 -1.1248092963231469
P 7.377154661136439 5.329508142656975 1.5321452560551818 -0.17135554105927261 0.5376531522485063 0.5658645816857159
P 0.4772365265219583 9.050082878954377 13.618552314678414 -0.6406068076946129 -2.6196702715613203 0.8072425746807129
P 5.311316295990208 8.025163047813557 11.711288556079857 3.7862633366894727 -0.37970951371976536 -5.421096967800263
P 6.282888372763568 9.525742028972463 0.6649977532164533 -0.12653427097952402 0.3000063441611672 -0.2275796536593242
P 2.6800498434872533 2.151755242216945 11.048858843042021 0.5346362197990534 -1.0841766104034487 0.9628480519945805
P 2.14883105048071 1.9028802827170286 7.192754380456732 -0.3286155232574276 -1.0123093919495016 1.3447039226333872
P 2.6613143970746473 5.26169876056833 4.542635326423533 1.518804887648281 0.8929410425907977 -0.20508584343218228
P 4.367149144334636 1.7114019584501279 4.575599027562991 -0.24278052976947864 1.0304035304470511 -0.09287287417133683
Ni -0.09495094250198466 0.34867987283586205 8.331880769234452 0.2380980366921448 0.03578847045351901 -0.3237491963040618
Ni 4.031794963199346 0.6306797389171052 8.409055062806578 -3.1531836906098403 0.6093388508192666 -1.0210380300717512
Ni 2.705439700581675 9.557327048687561 4.059108975945848 2.067471360288155 0.04232061514508196 -1.6767798936355898
Ni 3.4401991087670867 3.9321006442944504 10.040637833748793 -0.11544458882426568 -0.21477196037169463 0.5205265198705488
Ni 9.076119432298158 5.816854687210588 11.148091102162953 0.9071062783475861 -0.7011367467588698 -0.24324641366230368
Ni 1.2717703502079583 2.1282398670047247 9.417247954871572 0.1698031089704882 -0.4624437567952036 -1.2672952055359206
Ni 0.9765956882176607 8.462170381420645 5.086903325053024 -0.3471107538481377 -1.2113603420415138 1.0552388443231762
Ni 7.571444708226642 2.8966743422038896 7.104057646754713 0.3841832332204029 -1.557112782089544 -1.4526316342553176
Ni 1.6570888459133342 6.384147884040103 6.576703098148328 -0.6673809904646635 0.7082982975043157 -0.4003883822253556
Ni 1.4435759871211526 8.02807786714038 1.8898282653712584 0.37574230154190125 1.0965526154702985 -0.32031497381153223
Ni 3.3640576547120546 6.389733840049064 8.217147482188652 0.5847753025472897 0.5800215899123881 0.3699331510592919
Ni 8.793794343610353 4.016892832235842 8.544734747645041 0.8218063314275008 0.6721701843231909 1.3197567657697464
Ni 4.038421256652929 0.579122114747148 12.006914030962825 0.4495396471390258 1.0713984848021743 -3.4939744157772212
Ni 1.9665095702083644 4.064982664923726 8.0662010796606 0.24803303641766958 0.34371535501334355 0.049474452581043826
Ni 4.682165197048039 1.6626560571034732 0.2370516650279291 -0.713519693804255 -0.32665479998663094 1.3313138744797266
Ni 3.7459271037541795 5.177731344655106 6.416167783551871 1.9143012318886579 -0.9041515665946365 -0.9784729030160308
Ni 6.1269408525738 6.533131704037491 9.295930550214539 -1.3358572708760348 0.5231629290521312 -1.5323528015360448
Ni 2.811404161382536 3.094638373783208 3.348146115254986 1.5626943899423797 -0.5049937143422722 1.4693975408597468
Ni 8.23041881391464 6.601700251288429 8.4700844439273 0.4746366993169696 -0.23500397114785332 -0.25987142381349443
Ni 5.299029067252377 2.441362693017103 6.724221073313836 -1.5097422632253805 0.3013181209940552 -2.131288711854433
Ni 2.612456026815061 9.352568020285261 -0.23652306113714824 -1.2695125249022137 -1.0044189334578315 1.3599801320661675
Ni 0.5676315408092518 5.853266497772355 1.6868649906121078 -0.10781458308283368 -0.9809514464635106 0.40021868941671074
Ni 5.768005689360413 5.2036460566765435 3.1512177349155834 -1.9699776995153555 1.0186173364454005 -0.4084688452406449
Ni 0.9684698092583164 1.347733728484181 1.4744636995760718 1.0982235754148182 -0.36097337076284286 -0.5372818849520166
P 8.842193465808801 6.003206303529668 5.065175268315484 -0.04937777910217948 1.9347744121413457 2.1767442730840703
P 2.371791297959188 5.750226228707731 9.943902384494953 -0.26769271963012603 -0.15221419224413138 1.7965467639842927
P 7.4848249004501035 5.085506836050783 9.95002069335846 -0.33458691034951404 -1.6167924573383639 0.027713920975500655
P 4.389474223551658 8.151653085224527 7.259133532869257 -2.4993195036846894 -1.4253082638500163 2.8948094201671632
P 2.8618745860608157 0.5392734416543639 1.7589088272726467 2.7165188425509537 0.055013380121402035 1.5184955839379783
P 8.485629522176398 2.7047836319229046 12.221372565864577 -0.833713624388048 -0.8963284710057918 -0.021302103911885893
P 4.968895318159018 1.655692356911094 10.078333664399869 0.12750743352607072 0.04988094399084312 0.5236110723331434
P 4.969701345368365 7.558257728185353 3.915157202561229 0.4058082676893463 1.082777158952761 0.18554674495799012
Ni 8.574245653157483 8.13113688102383 6.639611647355958 -0.04155828305776069 0.056724706385553915 -0.5249734998983089
Ni 8.782069459437182 2.1954025528440106 2.836346954548052 -0.660667840110546 1.9383981249368616 1.5399336992070962
Ni 4.720085965524978 8.187324475442825 -0.23337674329787272 -0.08057683041280317 0.970071052105581 5.012765162358115
Ni 7.826439851071947 4.713853313266658 3.678160834748825 0.8947541845401364 -0.9667088205015674 -0.23534772764051726
Ni 7.46704543979742 -0.005839011063058212 4.390742310544968 -0.5804093122691101 -0.26884663072891124 1.7185243245622275
Ni 2.4143514090945772 2.9019697535211093 13.407851178709537 0.0915757526264681 -0.6212831676653364 0.771352288542007
Ni 2.34597031003186 3.3810217157459803 5.674354700043734 0.8413847677800608 -0.7033342686308209 0.29898201666171087
Ni 6.734985285522379 2.3641434118798053 1.4500054599771042 1.8229990446385507 0.02345745969199186 -1.3646649391363468
Ni 5.024576802469818 9.1554193883247 5.679649174120014 0.7152420758120005 1.2870993847460412 -2.7461394936308645
Ni 8.485460818807 1.1988623773997242 13.84161190969665 -2.3661124486706795 0.9406833429720832 -0.7217780771583053
Ni 1.1025046362451472 1.4281677460494546 4.940031108895935 -1.466104729041088 1.5247338515382063 0.7584070412352487
Ni 7.527619321820767 7.541659191118458 11.482453682382559 -1.1984163802863361 0.172034055183536 0.5240111359850395
Ni 7.575568568367486 0.3950751739022357 2.2759199848530423 -0.4472698772682426 -1.380347897089242 -1.2289628856146255
Ni 5.614260685382232 5.6323119459078335 11.261506628445566 -1.9503416704519831 0.7606832388639351 0.7560750506679624
Ni 3.4439668173503124 7.110612709896772 11.607653139017634 -1.7843314528650238 -1.7071698187813567 0.527283378978408
Ni 6.878898632028413 7.059898602573806 4.67022193573559 0.1573517705810129 -1.0962805927558346 0.2867150263688998
Ni 4.97588713557963 0.2572032825025382 2.9308199041700758 -0.015405021701160565 0.7009423713598767 -0.22389397727762086
Ni 6.078963488798848 7.572353831939511 2.161461309402985 1.1767432661882766 -0.022617994509832012 -1.5753048796175386
Ni 8.040261999374692 6.411852726259043 13.568991013713003 0.7386828233334439 -0.15856455994219146 -0.014293019583904415
Ni 7.1433224187411914 4.467677607677112 12.220563726932408 2.073920458347609 -0.863267683896081 0.945639401425778
Ni 1.051753039284537 7.400576312254549 12.238245714527215 -0.23545725663518804 1.5034060365947075 0.08433218369017734
Ni 8.77729890304698 1.0235795765950457 10.576045156521117 -0.4079435688647942 -0.29400718915493884 0.2629716600053729
Ni 5.4608343433240245 2.8341416266136417 11.769862365934896 -0.8826820838669507 1.483663820970774 0.6147517943047219
Ni 0.989126599600179 7.077584339132379 8.989880144343706 1.3260379707927679 -1.0626395076626216 -0.39377421934294765
P 2.915756567764703 7.077012622158308 0.1955974982030391 -1.0622674690351834 -1.859801558178881 0.6771275283284661
P 0.030854909021980643 0.015068022610078152 3.370134724974153 1.6685575057257975 0.3568009845527081 -0.06311389774134936
P -0.1662665429512884 8.178973658657616 10.262161290864565 0.021042936713228277 1.2252676961512252 0.8453962029322989
P 5.878178361986817 4.762149338961583 5.3999502345491734 -0.47223837428812215 -0.4304702892124006 -0.026997611634766404
P 8.588107446676364 2.7101352776965904 4.992116399715732 0.3747863653865352 0.8306668671419242 1.0379376340405673
P 5.258034148488625 3.802845746107234 0.22569324206272806 -0.5706936276432429 -0.05120814744269891 -0.661597551013667
P 1.1967348404634253 3.4359252900756667 2.2234232452601024 -1.1988987192393934 1.61716398174517 -2.6436265252666016
P 6.9771121102463685 0.6408891044885164 6.365796706413348 0.8016650805929355 0.23495280619494377 1.062282381433519
