# total energy = -340895.9458709284 ev
CRYSTAL
PRIMVEC
9.00178212154573 0.00000000000000 0.00000000000000

0.00000000000000 9.00178212154573 0.00000000000000

0.00000000000000 0.00000000000000 13.17501804896990

PRIMCOORD
 96 1
Ni 6.233014003997781 1.9608492063730574 11.405744994544934 0.658524311404982 -0.7799184329444633 0.2370809082815401
Ni 4.805781442353333 0.45992265488844375 5.959218498320019 -0.9766867576498856 -0.9086142303516802 -0.29134661160364017
Ni 2.685825736282606 1.5941796136044466 4.844493606537199 0.7232554330347802 -0.7749957988318653 -0.049332784796856974
Ni 3.2529650177792004 4.462129406570688 4.958313040360527 1.2730776165456525 -0.7840921047061786 -0.6044275295605784
Ni 5.174881516305445 4.589549633061241 2.5723168639438367 -0.519065619054306 0.1827064472957176 0.5745618523493976
Ni 7.303577952854613 6.181253756571381 2.652381415019423 0.14775564225214555 -0.7010418730522184 -0.5298120589375327
Ni 4.817339730648202 4.224023266627091 11.405876420564487 1.4519711178531831 1.5139794412351797 -0.005887826239344699
Ni 5.407712611902629 7.796992638451693 12.282779628720002 0.5488299948009323 0.20160097020737539 0.9593397817310059
Ni 1.549710809728549 6.668772274852933 0.32290022736663176 1.2615595886037239 -0.5365776597961405 -0.27133211615492625
Ni 2.6456327789332366 1.7699214067358533 0.2748937231014168 -0.2239780523509949 -0.531056215757279 0.27420018173134064
Ni 0.5779774272185747 -0.09086128859962508 4.737525429116695 0.9644063976206357 0.5826551708804933 -0.028244853778306198
Ni 8.604029414541946 2.2660456287634285 1.429950199678887 0.24218069140195064 0.7479426513688151 -0.2397630830993935
Ni 7.011515130637306 0.7015052831026622 4.793084428615083 -0.7017113883154174 -0.27378880522553495 -0.13310061134313206
Ni 0.6256112577023195 7.31034729303977 2.5106969645163706 0.8985149371341493 -0.3909786588756815 0.3275991661777713
Ni 7.663136137715945 3.825604388176235 3.8269078462331643 0.3665953449353106 0.10217589673981758 0.08568381262206534
Ni 7.549092559516805 3.8187090230408227 12.362026817975359 0.34778926797240106 -0.37093331018903214 0.5247343873043092
Ni 8.118320254474778 8.612707132545259 6.832379665631159 -0.04190512487421815 0.29053260034277706 0.5579458410592714
Ni 6.90510506371079 0.477987431329365 0.38829817476711687 -0.8970725482606681 1.0244491126358293 -0.6592478198345678
Ni 1.985361059197768 6.470778076219255 9.176940638760247 -0.6138675919275558 -0.03926820147200334 0.14406842320854543
Ni 0.14110923662295718 4.898508800394956 1.2914442784569238 -0.8412844947567705 -0.35499607013348544 0.8858316852395259
Ni 6.551920140619527 1.8260475185103922 7.008174569277317 -0.13177340789127628 0.007647746353244894 0.3801635705380485
Ni 3.3811323921891256 4.168419258217897 0.7446904328423851 1.3068490565691429 0.19508605190699305 -1.0377715407763484
Ni 6.019536740046989 5.538292463931732 4.776760596844121 -0.12770952223454782 0.3595209545870324 0.4306294404980842
Ni 5.17298214026945 2.7958905267665326 9.26369801487262 0.03926845858231947 0.816130364088646 -0.33020060835636034
P -0.019633787071603303 5.509252714679982 12.258945610092022 1.1721821291801553 0.3553022885199945 0.18030632249465722
P 3.869236026311149 5.796832649381056 12.624078598645733 -0.2486513867279589 1.2737995823133417 -0.12020344366548977
P 2.2679450047994236 8.417602505985299 1.4359057787566794 0.11077109460799632 0.1730180163633601 -0.3720730802204302
P 6.421331286808262 7.81573434891113 5.772107454319127 -1.2012425368812214 -0.9519373186193476 -0.7215641613752863
P 4.650797758885453 1.1625531607612452 12.759096329280265 0.3894750777469615 -0.6590873829973037 -1.0270929780165794
P 4.09151703321551 6.140808749321502 8.296796789026732 -0.9692611546097759 0.3963530358137174 -0.23499291540425982
P 4.823758001329075 1.1226302568767095 3.812507695310032 -0.6624182471427495 -0.2287893576967092 -0.4271867333651223
P 0.3530219908341477 5.483984712153738 3.709940489188096 -1.233163039738902 -0.4517183999578994 -0.9657557125596786
Ni 1.5510430734883938 1.0703749114314491 2.7009046215806856 -0.16608349402705588 0.49422644852343917 -0.8787765781649576
Ni 1.9702650705135814 6.44137825568106 4.614840140042888 0.21124260706219747 1.4885437747708945 1.7847999078610102
Ni 6.001551179289085 5.4269944292917325 9.090854795597092 -0.5715886286536865 1.2766596774699561 0.9558952748258313
Ni 8.548938507715937 2.3824656774531014 9.996979589004011 0.11745313461386223 -0.8059305407375087 0.5922762389100251
Ni 2.24850115533142 5.257985969216839 6.961165462475552 0.5678065359034349 -0.4987675309269023 0.767979258304716
Ni 0.8202928005007079 -0.019371835210714915 8.899461603822159 -0.11404385182199712 -0.6451550891869275 1.1871685752866585
Ni 1.3323537776663175 0.9861182304034327 11.334191628502682 0.23194204439307797 1.073101326425894 -0.7442690591719698
Ni 4.184397421553872 6.852651679057986 1.4610045477782942 -0.9111776202034824 0.023605812344398056 -0.1378062443489175
Ni 5.740292455627106 7.892807607774579 7.813457798202585 -0.8174994765220307 0.1457401544840135 0.9975905976820882
Ni 5.228982227093733 2.8796341062113657 5.023555256929624 -0.21011055034028334 0.3110055234851482 -0.5404155454849918
Ni 1.1082994196762177 7.323012800540456 6.802801609806174 -0.9508127180966014 0.11194403187017495 0.4674383817963175
Ni 4.975339011140056 4.605761842733405 7.0538253071509684 0.788359621733281 -0.30390516499494113 -0.7107138489243437
Ni 8.136755904340736 7.367265561644486 9.123054170387391 -0.1437004983461654 -0.6015412091517189 0.006149821651479731
Ni 4.490494022160354 0.3207569030340708 10.420806897782825 0.26091066371128613 -0.24453967855243047 -0.1643793668517556
Ni 8.177641998916512 7.0908388350410325 4.810528082086888 -0.003285869840123373 -0.4997499494448296 -0.48209187004343423
Ni 7.202415924928026 6.090461781694397 6.993193803404793 -0.3132835208860475 -0.035300989294139204 -0.08534005612940142
Ni 2.3043662154232862 5.402995678050206 2.535954164904021 0.3138221669983369 -0.760523059136987 -0.02801833958979691
Ni 2.2052115849186276 5.118215297601239 11.317709365365683 -0.03883471347901054 0.36320200298304545 0.6571040340186877
Ni 1.13072285903955 3.3094512008401837 3.7856832846481314 -0.339711376060273 0.3141944627360912 0.05777037404124889
Ni 3.5544797112656763 2.8921195780688294 2.918293159880481 -0.0885073981137895 -0.5226052567764484 -0.22133701518372204
Ni 1.0166702790582498 3.3625077048977827 8.151937409955455 -0.5823114143878294 0.08082442764723499 -0.9110583210167986
Ni 3.690415623680642 2.648558358135598 6.994102983403065 -0.41494905364834983 0.21670697261087837 -0.5026365269640053
Ni 4.1097726474382466 6.812530735965905 6.0849742952889825 0.25985342609136536 0.46029225766983956 -0.4400291365454293
Ni 0.7626714927092081 7.429368856774004 11.294389348499104 0.8395785678092573 -0.8874036577123361 -0.4234722606280127
P 0.13180049369015034 5.704744417872871 8.04641851946289 0.5795675330941051 -0.17107631925595695 -0.17954964683429078
P 8.500481914342664 1.4076806907905097 7.933231910925488 0.03222877812671869 0.9889267513595031 0.9953393397540663
P 1.7036502864657403 3.239579367705625 10.31628990564479 -0.511993285588557 -0.6971528224104574 0.686658864857669
P 4.108143324867085 6.172738070646968 3.8295957783864725 -0.09986601765971834 0.17326484226684352 -0.914506170356083
P 6.826150432375669 3.772484871643508 10.297080102512975 -0.24190172670895113 0.9778064730766258 -0.06531990425373267
P 6.226028621040757 7.653747278921904 10.113947846227296 -0.49262876501901615 0.3193281844182307 0.5448409282461971
P 2.581008984798607 8.459667834024179 5.794399467662906 0.4075105950924337 0.6823736072187538 -0.8393461400834771
P 7.019193650820735 4.032861420653698 1.673754467730468 0.9414523599276237 -0.0918608879670547 -0.22191037118868878
Ni 5.571941125649973 2.904271983986332 0.5181245776293352 -0.7355936428851589 -0.36524551577563547 -0.05498226977315047
Ni 1.6135514488151614 1.0252489774577902 6.996409239992742 -0.3864650872760441 0.47572787549861945 -1.1033662959580224
Ni 6.672183950291994 0.6434878968960737 9.278875019596258 0.6245482115698534 0.37145035903476675 -0.3618729997589768
Ni 2.6226692326402374 1.7705515314871312 8.992503124061205 0.8322614653225537 -1.4286622679239136 0.9849957917362132
Ni 6.484937879558685 1.929703040095607 2.6504316290033256 -0.3630130269006909 0.1223901669041634 -0.08803920022811935
Ni 4.038388514900621 6.743946157680386 10.635585819434114 0.30192233023695747 -0.14642098260112205 -1.1304302420543497
Ni 8.007724358843346 7.084087498420198 0.29975934596505893 0.27532606780566776 0.04522699015859953 -0.12594291725242823
Ni 7.609863590886479 3.9627105322721454 8.19342482357959 0.17118199159588585 -0.918082831963748 -0.869242156311961
Ni 2.99096814798001 8.524489667366353 12.495147873108543 0.47835374315724066 -0.40357423615250493 -0.00372398581880649
Ni 0.07603985427135272 4.841689551394012 10.053856449410786 -0.33915756043933204 0.2755114443435965 0.6875276406158676
Ni 8.756663632865777 2.2599694258046776 5.8674021206331 0.13087172201261332 0.6044123600519269 -0.45990144998932414
Ni 3.6030803331535246 2.456874408796861 11.172652847265079 -1.2949031970611762 -1.0789390161535934 0.5308237880314988
Ni 0.9745239349799192 3.411243353518048 12.72374723091179 0.1256778365164997 -0.17450797064532525 -1.3838394551822684
Ni 3.1658097628953055 8.276895649024944 8.090831512289387 1.0646765926973083 0.6031244944784386 -0.43345688264455023
Ni 5.654649500146278 7.973409565245183 3.3235957011499404 -0.2423825230001116 0.16709470890038963 1.2172538247078133
Ni 3.102788285985354 8.294251085031568 3.467071506303054 0.4970016972757311 -0.18042510746070864 0.8837984568595812
Ni 3.175801741094141 4.233673177103804 9.075452746319428 1.0651787291447075 0.3097760219534213 0.002460031504718344
Ni 7.0805227926843965 6.057263209084213 11.282083912284863 -0.02520323873850498 -0.4876613937114117 0.02001115301460425
Ni 0.4318523975754454 0.10668372110421319 0.29435107524266224 0.6777227387103038 -0.7808378594349391 0.6942711299872881
Ni 4.2768007154376955 0.5890163126827475 1.6960329784010064 0.3950685126743389 -0.3897625270803933 -0.1207675436990759
Ni 5.874175961709338 5.328622953835092 0.2811850686538186 0.17114136816593753 1.5040701525412679 0.010343805128169282
Ni 7.952399405681146 8.735626467955255 11.317472618494845 -1.1657818820807664 0.8706835167441778 -0.09023389388659298
Ni 0.026378822444925183 4.982000329939279 5.903528072802078 0.013428100480447841 -1.3217041193041044 -0.5031574324644819
Ni 7.9804939678059785 8.78023029856357 2.4123461931586996 -0.8777815612415399 0.6407734151794642 0.45844697693098463
P 8.539279595457062 1.5619712370319847 3.5796784000692794 0.5950887686581557 0.42623105432007236 0.1890753269365389
P 1.7480560778665102 3.2274719706989288 1.6013315295314507 -0.8387738125197747 -0.18548195315832572 1.1180748058127907
P 4.702711036608591 1.1134484390723742 8.122477277476781 -0.027765085928410246 -1.6877605610168094 0.09854369930386898
P 8.512481289963429 1.694549484700855 12.337310624695592 -1.1767504652771283 0.10852986398230341 -0.23716806867870768
P 6.186717838343177 7.644304409434897 1.2569746542055902 0.4206695010718949 -0.43975917071349424 0.2300877647931586
P 1.7768797843463937 3.2534961229267063 5.998480671393929 -0.07680836450930642 -0.23079610371409284 0.4040036103804397
P 6.9755980198144645 3.6870579589345467 5.971972223285884 -0.2317150159839364 1.8264967733791644 0.35115484201052427
P 2.5320212862778306 8.447848494046637 10.229663955551969 -1.1106779991280873 -0.35321892362840457 0.3624075321062081
