# total energy = -340864.35913735797 ev
CRYSTAL
PRIMVEC
9.36256284222051 0.00000000000000 0.00000000000000
0.00000000000000 9.36256284222051 0.00000000000000
0.00000000000000 0.00000000000000 13.70305710194766
PRIMCOORD
 96 1
Ni 8.629146637249933 3.1939821957196934 8.034294323852981 -1.4256304230761254 -2.385097217303299 -2.0510497243970223
Ni 2.7485769856120177 4.048091368933131 1.3928057699285563 -1.0133445180822356 -0.2501534251947821 0.002057139639344844
Ni 8.40535329360535 4.998869005231968 11.679280542360745 0.26077310969215733 -1.3386811134780752 0.16528362383357986
Ni 3.705468375556837 0.7768577295559119 4.818241758348183 0.5892202256925206 0.4562965062468851 -0.3510481412293309
Ni 7.409045513385515 3.3272582801769017 10.245433041218515 -1.7033956964509052 -0.906332119185723 -0.15911451890839048
Ni 6.498648611351794 8.317054961851507 1.0105388759960878 -0.4245133002980173 0.763176437599434 0.3185637954483804
Ni 2.5981580482822313 3.780790194977859 10.049520473963474 -0.8530364930863761 1.448919218400737 0.3509864347534601
Ni 6.300087375021027 5.410877953080504 5.005397520419324 -0.22049343623650414 0.24467517568903024 -0.12962396564844128
Ni 1.5861024370784114 5.762947772534586 9.787531618260468 -0.43153138348706327 1.036379288414512 0.06015224400986415
Ni 6.3545681291802465 6.721983189408854 7.111214893964977 -1.7358538169796107 1.1515508260830492 0.6984579143751262
Ni 6.082510773215543 8.950348086457762 6.029769583263709 1.9187068171555215 -0.6447064316852833 -0.8647226711750527
Ni 4.216580052873553 7.9883728247981365 3.742908328780296 -0.3470336207532991 -0.4954664915781273 -0.43460950819175476
Ni 2.005086494369913 1.5287286509488875 11.906888194175885 -0.15394762999547035 0.7205300636838172 -0.4577368382378375
Ni 7.168287205565556 2.4886254236201393 3.248117471303819 -1.4835000416994 -3.6348677836918943 -0.28675333580600293
Ni 4.279374762986268 0.6362151805218907 2.113847643839924 0.9010333326806289 -1.662466562336711 -1.8053908446384843
Ni 2.1332318942972615 8.144942966025948 4.510827619429899 -0.5114320137684483 -0.9388097800984541 1.5619528837906649
Ni 8.938935122147727 3.348838987916548 1.1611572359180018 -0.037869264241947684 -0.7723825295787342 -0.5002461723549578
Ni 3.782634619890965 6.560394714407312 8.865056073686654 -0.24642404005933688 0.09271732243007903 -0.598458199351021
Ni 8.643424545841238 6.708341935102275 7.637056691666415 0.9756693721289649 -0.7699818905570416 1.0858701960557882
Ni 6.5821813985331925 8.420333394422459 11.025082687064216 0.7398349346600162 -0.18037985604506998 -0.06745674809107738
Ni 2.446690503895247 3.967713765486335 4.186859532852411 0.23334406694692716 -0.7990556679945464 0.930419756262546
Ni 1.9759501982806378 6.303027219806385 0.5102362776752163 0.2974349838895652 0.1692464651360698 -0.10049825192707852
Ni 4.786769502787739 4.010575578949285 10.572840933446134 1.067101400088717 -1.5611602126860402 1.6007276905660173
Ni 5.075183256332123 7.582674244418807 12.600537081230566 -0.364456701325753 0.5458135765721117 1.0720402321512312
P 4.348320676997008 0.2394213338220316 6.942681269722102 -1.2786191151891724 1.0328003128140018 1.5136508542511673
P 8.341912566644897 8.1218736107676 2.6224913495470212 0.6305823335790752 3.0483644427099046 -0.23750488319283608
P 3.898280998199039 5.856039736549901 4.757057409073306 -0.07251307956806222 -0.381486146004214 -0.3511594699962146
P 1.811936819459326 6.9527235548073705 7.847822965137921 -0.08566401512772344 0.05596700228392297 -0.5961562906907216
P 4.0078978859282275 7.660748657364972 10.60104190949064 0.29040918739103533 2.1290767918047786 1.2033356719648243
P 3.446219005790761 3.9947902977132577 12.44215715657279 0.8287573088240373 -1.5274414802773566 0.012045104089992159
P 6.531080529620833 4.67470898611276 1.2548699378609265 -0.28478695610825144 -0.9454388553791977 -0.6215952995891166
P 1.009256204863623 0.9970848729497226 9.86895595625186 2.5694879942799744 0.4248295459868555 0.9288382707080391
Ni 4.929726477398003 2.4975479461693295 8.164268232336317 -1.6474559478604915 1.6206442269842865 0.34034206766573644
Ni 0.3624369854758218 2.508979635605385 3.5898725550890207 -0.6080604983274754 1.6256691910027032 0.27541708485757727
Ni 1.3676270292239012 4.3749758938884495 12.280269079554904 0.20838688278095724 -0.9583704758392011 0.1894728194852737
Ni 6.49008186619701 5.675576334518803 10.576197412285467 -0.7487147536481493 1.2175217336572193 -0.4460246920072319
Ni 0.4055693770097813 8.233025958830543 6.195522526292408 0.21743433769520618 -0.5603032855478544 0.4597160734513954
Ni 4.774148767849326 3.53164303070032 5.216082339592637 -0.8229075349114795 -0.3317568970998867 -0.0018013148747968977
Ni 6.14870409370114 1.916834975431125 6.402904233235549 1.6667379360185552 0.4044815784581227 -2.0242601150080044
Ni 1.7020484174028276 0.8069461983033744 6.331291861279364 1.152332698554396 -1.326606184591412 -0.28311856726689305
Ni 0.36777364639191656 3.263115360990647 10.02884325355436 0.8620042438026251 -1.3475691599963244 1.8748664229318035
Ni 6.72207681503896 4.5028591420514985 7.367654558571544 -0.08979089281190343 -1.4001271365986985 -0.12543743837091945
Ni 6.912136844156019 1.5614320835452364 1.102079463320532 0.8904630133639502 1.3129777951747001 0.5654521767386455
Ni 2.284867964818438 5.935771323148959 2.996214904732233 1.2389847886270016 3.0604522271123744 0.23858963161658267
Ni 7.245856040109143 6.8840678802499635 12.991594485573776 0.980082413594996 -0.435621751506353 -0.41838636146467306
Ni 9.021793804792356 0.9587919902359902 0.056718406718775365 -0.09195499034275775 0.7518921229348664 -1.2663053308188257
Ni 3.809832865437027 5.162807483549194 6.999521389760017 0.2019390702730845 -0.598682142436369 -1.0485987132988392
Ni 4.294429764307462 0.3532822713639667 11.966235608588063 -0.11068059177671907 0.49418428243159407 -1.0184152477369235
Ni 5.313151520374895 6.123050671051842 2.994296515571342 -0.6219156590430127 0.8547591322044376 -1.1592134848346294
Ni 0.6110420573550417 8.654294481496654 8.653041770565823 -1.1999284460554884 -0.76885497604145 -0.7609318645396314
Ni 8.428132409410365 0.5038950137480742 10.151553685654003 -1.7765626075528826 -0.3820872699233226 0.6417378359752626
Ni 1.9341463544378954 2.0557379602577592 8.247349743980601 0.12302497227468491 0.21588421959926693 0.15945930384231893
Ni 2.3367084762086425 1.6458355890866296 2.5067279392013138 -0.5523359510716617 0.6641000057205466 -0.6667706105741743
Ni 1.5292997672925395 8.709383802251569 -0.10162968522476638 -0.2483713935936948 0.15817580914420498 1.117761645447746
Ni 1.26716672811917 4.259741468352845 7.680371653179083 1.0509566720080545 2.295445678282737 0.4693253144063852
Ni 0.7077170742345495 2.8147515809715924 6.035319710616449 -0.7987579342484695 0.5712551565736679 -1.0432608460256936
P 8.858969471473403 4.944575502332961 9.042908256894071 -0.5427524211482846 1.4533124623724263 0.9489890346243011
P 1.0567992998319198 6.499500604585767 12.03053113755139 0.17836668226978314 0.019322354477695754 0.7089945522403919
P 5.639155964407209 1.6121022745591045 10.275744338965632 0.20320302458717263 0.26425232649000946 0.7787256981879427
P 3.9062953521361923 7.1409297964483125 0.909444729375533 0.1368593070546159 0.9317495308175631 1.0275406070769593
P 1.299355219749931 0.6710588950224841 4.162563681839663 -0.27161725149551286 0.025126362753982532 0.17664147204856032
P 5.149830971216375 1.8797405007827612 3.4402484993588422 -0.29665979628643746 0.15032700252374756 1.6619412859608604
P 8.037722894427498 3.0540399663988724 5.036763979017746 0.31350823530234395 0.36446852840029487 2.455356724950494
P 7.7810107792373175 7.234883116260613 5.59647952969187 -0.4775597865010356 0.6415946255291789 0.24169346735288696
Ni 8.508978141007695 0.8980542352167246 6.779916856806417 -0.12002835154020618 0.7035296724710788 0.5302167505751191
Ni 3.540771529635745 1.9217503210117386 10.004807681793311 0.8362165933155599 -3.0030374366383312 0.7027899660915767
Ni 4.925635037362331 3.904141962643733 2.7247707966447297 -0.010757495626820183 -0.8121988902447238 -0.3295634889929937
Ni 6.39490205063031 4.018552482634395 12.50391636721652 0.3223137494091159 -0.31714506072398285 0.6043357411777205
Ni 1.877343684652024 8.474608172195444 11.428706523480376 0.5605210579856154 -0.4169977086472625 -2.474225793940855
Ni 8.792111409014048 0.8102071789999986 2.3615576546953214 0.23959570428359384 -0.6486173367039152 -0.04637473060979755
Ni 1.4374062113425925 6.07475857104269 5.776770660563572 1.4811379692251265 -0.2159613526941055 0.5885687081514509
Ni 6.683793294888239 1.0497399273218575 8.50847537137402 1.5941225265446741 -0.3930252569920651 0.06517026604974582
Ni 3.4489715993159047 6.064572102487055 12.019349428547722 -2.2557617294295538 0.3417692870305662 -1.4725252878554513
Ni 4.884655099064529 5.468888393494754 -0.016666298415333777 0.7451566039832458 0.09316109483571698 1.156005519420293
Ni 9.177689841483398 5.509109964188689 0.026126232081337512 -0.5346920127376533 0.4271558801271869 1.4780408183570417
Ni 4.643129061077694 3.2075391869591763 0.36981281261564547 0.9453498952098169 -2.1317198858545803 -0.059147971115065874
Ni 8.836536770499784 6.701226387214149 10.496062299220647 -0.7251886455017511 3.2793045282010302 -1.810733082787004
Ni 2.933702944022441 -0.36851516138236345 8.8718392505879 0.4643355745012777 0.43280073711779016 -0.19653229743521639
Ni 6.918765538767589 1.372954327576985 12.124547186535862 0.26018998349517775 0.5320070097063224 -0.3693451397663058
Ni 5.329648356399734 8.566595353775497 8.952371336324372 -0.6118477332840495 -0.44343893355792663 -0.8668890826987522
Ni 7.935165379208371 4.40648091841943 3.0875317268007216 1.767076265329002 2.6423702842619976 0.9733080709856399
Ni 4.0998382546932275 7.536001867810505 6.243702275545433 -1.0451161540668774 -0.4763755363849473 0.31391549804309166
Ni -0.24960499360876187 6.7099429333771035 3.997291038293414 1.445971962846955 -0.15978146306842805 -0.3518909488456004
Ni 8.564984992937656 5.145870607062852 5.695894968764608 0.35887895012765936 -1.6359093806734728 0.6006732047244687
Ni 7.486361558727814 6.410425180102038 2.1830753709972854 -0.6295901448691351 -1.0535069492337341 -1.7501414372468762
Ni 8.322354172515562 9.242731566718678 4.689254664006172 -0.17182785271000084 -0.08554651571325267 -1.1452937894297437
Ni 6.231441063026629 8.870092196330106 3.399645872350372 1.107072798275332 1.1299517597560347 -0.2179822397788762
Ni 1.4045623403010832 8.397816430381742 2.384386392084293 -0.6653410772164993 0.19021843940204658 -1.010276163569557
P 5.547028344381994 0.683102896079439 13.685435305170177 -2.4647013993901874 -1.2820186277890244 -0.7655372245221268
P 8.749193420173032 8.516337115534098 12.52266209087653 -0.8289982211902497 0.1585283073876173 -0.2514284352524638
P 2.9480276654288007 3.1812210223361195 6.545183358283839 -0.3057671579043444 -0.3465777641628031 -0.6378842665571272
P 0.9020305157273656 4.533044045197972 2.564404136116083 -1.3238057390281395 -1.2623545737011939 -0.21946808029578332
P 5.137519200857314 4.873485561392774 8.763667006331262 0.8297520686371387 0.15646396865942086 -1.0344774434061088
P 8.424799336978559 3.088203958824889 12.559277202298746 0.2681493475515705 -1.1976185669753892 0.4576993001316827
P 1.7763778051447157 1.4955102773869504 0.32816532357518186 0.33205334529438296 0.18303169184562024 1.3132212786440738
P 7.39979530113095 7.942767780373053 8.990123999152388 0.9889609470315484 0.4974873786628981 0.265017229680492
