# total energy = -381165.61968920456 ev
CRYSTAL
PRIMVEC
9.29183445890537 0.00000000000000 0.00000000000000
0.00000000000000 9.29183445890537 0.00000000000000
0.00000000000000 0.00000000000000 13.59953896363642
PRIMCOORD
 96 1
Ni 1.36992299800401 4.46833158562976 1.4591757118287814 -0.7019474155856233 -0.0924949220066278 -0.5099939957703411
Ni 7.374724418616094 0.37653392822784787 7.611226688062532 -0.7794484352865801 1.7839689273192822 0.4539730003200311
Ni 1.7170194661654108 1.6887722900655402 9.796876097559036 2.2034148403967215 1.1460594639511748 0.493166382690041
Ni 6.294390726641216 -0.19837044007846147 5.1522942124506015 -0.07183379411285047 0.518023550943037 0.45950292899932477
Ni 5.812413992602934 7.600999166110846 10.605287047951718 -0.12048600790291507 1.1248445204364563 -1.490692445682781
Ni 5.186348784952584 3.960560719731859 13.253757146010354 0.5779503092056563 0.09276077407350476 1.131774157676754
Ni 6.903405418454968 8.754255173227758 2.713896690516537 1.228200553527304 3.1893855944516942 -1.2089026245296406
Ni 9.103990522314277 8.019289668245012 3.6456688198745835 0.8989306845153293 -1.1307932818207234 -0.43174144261534025
Ni 6.979505540908237 7.021904180560773 3.979170405354498 0.048452953295064945 -1.4910020065034 0.9663010435401874
Ni 4.500741503470663 1.6960385044438622 13.204757587311324 0.31101220835336757 -0.24568381945920267 -0.8300670287743963
Ni 0.5133645501124141 0.2464584698382178 8.624038478957628 -1.4410205323789504 -0.5043496530003702 -1.5946133501381634
Ni 2.7428751339713613 0.8758455082305765 7.731773370435578 -1.074451412695885 0.28244468112832 -0.8049177832022782
Ni 8.69716614363644 3.095890500545794 3.344710954648679 0.09330173417863931 1.6888699920309043 0.016781590333713035
Ni 5.3088058684460675 3.381186979154485 5.929126864167162 -0.9329978014023674 -0.7913703835351468 -0.02513099073967285
Ni 2.3943477233364803 7.945298792164989 3.5894755231043285 -0.18896991170692617 -1.203341328391779 0.48312853883806467
Ni 1.8675378890738976 8.756977680661068 10.76909372301166 0.46753916904023995 0.7152202214351295 -0.16931357092857938
Ni 4.547878978587322 8.944031595814518 3.1354281844347933 -0.29892828060564 1.1206114561917153 0.5821862016638748
Ni 8.288548440949631 4.595908469791345 1.0429702972988293 0.6714099091183985 -2.332591434095099 -0.8569862217627434
Ni 4.451355404467107 8.890064622528977 8.610534656251726 1.070124503185757 -1.554848925756032 1.3218172478432009
Ni 2.303873133308705 7.070119508449663 13.149761078791615 -1.722911654996646 1.9209573037525947 1.7176383224128484
Ni 6.143900179235459 7.5306228135514965 7.249913713508763 0.9638435831386304 1.941986099398436 -0.8000000341856868
Ni 0.6165485110182828 5.595654083373402 9.301363948578425 -0.9830792914397908 -0.956122817455605 -0.5200138419001884
Ni 3.7652277802675584 0.639412927540964 5.5414854772847795 0.032696204681440466 0.7647975181426248 -1.3476738038949887
Ni 6.60241503180921 1.2348011444368012 9.802669556209782 -1.1050557678453032 -1.268741193953828 -0.711572083159581
P 0.5311444749371187 3.454973434881153 9.946308305044472 -1.0308653005748183 1.0333692979435944 0.9968812303198897
Ni 0.736434543976624 6.904501854895686 1.3717720730184424 0.6119788595452751 -0.27112797056392013 0.6707100548378965
P 9.193870434950478 1.138351904990533 6.39654329394607 -0.4340685480866202 0.1151450553059759 0.34593293148995263
Ni 4.191955267894712 3.4033201283222123 11.138498026824564 0.15853807757963018 -0.3005277638822759 -0.23377009874075225
P 4.327774009030174 7.077348555491011 4.485766783404035 -0.7246780244139197 1.1882936900300372 -1.2052141199344597
P 7.960667486003537 8.303619796092391 9.266630142993252 -0.17447377497328018 0.6375147990328505 0.3370777950921679
P 5.300526844135217 1.027611824477949 7.0760709282825465 -0.16217387456000457 0.5041128543992156 -0.05642645841884475
Ni 6.267416531832689 7.27226336241436 12.968452304750844 1.1460072705570006 0.5508783926895287 0.5006310664982023
Ni 3.759225255346336 3.733737754016749 1.6070849876817275 -0.3719681792114497 1.627919420489461 -0.7887164908520675
Ni 2.8164664611789183 4.81006666543273 9.921407118455642 0.10645241262798441 -0.16544251800894733 0.4014065390772248
Ni 0.5819113405092411 3.997820975047807 12.256611387649594 0.31663598229804824 1.01067442744924 0.1698391044147462
Ni 1.2119060648611166 -0.4454914176982321 5.6616781407731525 1.2173476699732002 1.5553957993984373 0.7027827670027251
Ni 2.6707519165742584 4.995094960721126 12.688777385859398 1.7260957091515823 -0.8285822166987536 0.052516581841477304
Ni 5.970430925745827 4.543837030691453 9.628609342062273 0.7383853466976831 -0.511697351614693 -0.9292483616622642
Ni 7.510022817033928 1.7939186863636105 1.9137814897363434 0.3815087717120333 -0.7664273404365639 -1.415166547430324
Ni 6.1580795182908545 0.1171914010277616 0.3350059334439167 0.17902539889970456 0.7980794201242062 1.1146503535122738
Ni 7.916308269325649 4.494162884826351 11.336915855257667 0.49030551620247814 -0.06597990643523477 -0.23908251209260115
Ni 1.2623142656314446 7.540862414887701 7.872908899125101 -0.6058493496087696 0.0997891416751959 -0.138531038330084
Ni 7.920731182425497 2.914969195992973 8.626894788804043 -0.7049244959360763 1.0121103885648184 -0.1332402222447899
Ni 2.985828723932977 6.221078154460961 1.821440170209073 1.9275704381937384 0.4276765285173474 -0.9054908542313502
Ni 8.465204793584741 8.103947570036432 6.510805908820318 0.7240450188156111 0.07950776571834049 -0.6416663593073788
Ni -0.11166647638664878 8.331978474203183 12.015804211398198 0.6658254730520856 -1.0878286053337396 0.4684711939362061
Ni 7.74886941625997 6.5141983575025755 10.50272006483961 1.2409987337332369 0.9380381920397524 0.1503344587229153
Ni 4.3377162716705895 4.0319127148867615 8.008890247359822 -0.1373781556725634 -0.09124099499486867 -0.20470866259842163
Ni 4.676543007355383 6.453485512556341 8.388114161601129 -0.9932127803293668 -1.044494975543111 1.607867129824276
Ni 5.288856300325534 2.1035504788557096 1.7216198532993074 0.4499137426489929 -0.6909886025812745 1.075164893823142
Ni 3.271580502419593 5.590385613357407 5.807737412428242 0.5704570861524046 -0.49776891445905885 -2.1776408167564107
Ni 6.580291174475727 2.7672383233574998 11.491950109608435 -0.7859816084194077 -0.9515441969459871 1.2613572427849309
Ni 1.4695965039327301 0.8619858082731533 3.7944069273420395 1.4154007749283173 0.4859225566434341 -1.0573016403894757
Ni 2.531913329309698 5.678815999851639 7.773863521191234 -0.910009310926994 -0.9223115253331149 1.6401103061286977
Ni 5.614079790678022 7.110223065044084 2.183922986694084 -2.6588777949987175 -1.0921817400961127 -1.7113496611906591
Ni 5.702974768884424 5.469638227364705 11.607791407120633 -0.03873392623508813 -0.2908930690059894 0.14502795890833733
P 1.2960529157691516 4.557849116730467 6.180486776568762 0.43151981352283747 2.0159886190278313 -0.8854311073669978
Ni 2.3758476813579135 2.967718938992632 13.367054339306716 -0.39464582331462356 -2.0256446540603563 -0.8337791875186609
P 7.484386646356446 2.783201694587624 13.61463433353811 -0.12225081311282172 0.00687538696359461 -1.1678225666598792
Ni 2.262877560626919 3.1482221110045012 3.17050114196985 0.4408148656715182 -2.4581836528763277 1.2428154752270015
P 6.68481501787949 4.83456923233252 7.51906284256931 -1.8064100299316177 -2.8093590637121424 -1.028769337277738
P 4.553509830138809 6.185276717121224 -0.12387315903217501 -0.772699803708837 -0.9734883053172461 1.0992535593412294
P 1.3567378852126561 8.890083206197463 1.872860251728505 -0.017983838171930316 1.7443677679878926 -0.33546108542435127
Ni 0.972752835105043 6.637584624420398 5.46660630185109 0.15831644848712734 -1.6325818589621368 -0.1399178913752816
Ni 4.406968312286488 1.7324346191751756 9.189684463623836 -0.18760722703144464 2.0979232490201096 0.23402900882909375
Ni 1.4776618160559827 6.392939920626487 11.239012443752308 -2.160212593977634 -0.044834896926503436 -0.653003895807385
Ni 4.023810235426536 8.273542128646575 0.33046873078287503 1.469155857162586 0.4284938822123201 1.0330409680698982
Ni 4.584293676987122 4.702811022761414 3.6637832507320502 -0.9915320501928344 0.07974122188538524 1.5296413161421527
Ni 8.609516271218652 9.31301962545332 0.6348497077440409 0.6540009696133317 -0.5578270560932199 0.15518355928510047
Ni 8.50508534615732 0.8418596953019956 3.8789691232407533 -0.9246080346767753 0.7455785220120127 1.4778703542174483
Ni 7.777794896259607 6.663016374744525 1.3714459296364998 -1.2180752921678442 2.3376891603329804 -0.03558252509030001
Ni 3.009374231905698 1.4851510344561458 1.3542504611857036 -0.4541997716188565 -1.9081452395895913 2.323197651585025
Ni 2.262143505721692 0.2042911968583422 13.034953962430704 -0.9683844084317774 0.8092349225203934 0.19863494560051595
Ni 4.678085451839784 0.24293128955943133 11.329816893895726 0.3046075903786044 -0.695342508674596 -0.24074807272048218
Ni 8.870561062452126 5.500124735517229 3.3035183950809333 0.12222175964709917 0.4421490111019095 0.3414545840036249
Ni 7.162703344850685 0.022014213689412143 11.834509375108794 -0.444763308796305 0.6604811780210368 -0.48458635433051384
Ni 5.545636139641297 5.909662329794132 5.714131474260448 1.2142446055678444 -1.2241976030154982 0.5381761146315118
Ni 7.930534067552261 6.268680221289788 8.096308753104951 1.825003219552773 1.5287604561990962 1.3710348472184324
Ni 2.1157878245542387 5.240891851961214 3.680456518098368 -0.8333297586860681 1.2717010479131001 0.8784392494301968
Ni 6.477569946915178 2.2636766583718497 3.9553851680582977 -0.894837488282562 0.30845344648725587 0.2698709582283675
Ni 0.8122819285384734 3.3450324521134998 7.776433642542952 0.4078782628444975 -1.1989010332322385 0.22317766793688662
Ni 0.815536858073929 2.792363443151595 5.1652405251019005 -1.1552966662787263 -1.0865944758163224 0.10410936631710457
Ni 2.8528532840759886 2.8952147563915505 6.237251521144985 1.2638674108012944 0.390083914975554 0.15181078615812565
Ni 7.995047272704038 6.065058965680394 5.800665397385607 -0.08350197447939813 -1.9805860711588212 -0.4767650585138821
Ni 7.605645083232535 3.3954406528838277 5.744867003570694 1.250190170424518 0.6085163549179714 0.5407911836568557
Ni 3.7372221918580157 6.775642697608514 11.377836164082082 0.8434581053693216 0.671682703163811 -1.046794570210565
Ni 0.16847210503354274 1.7216003404473963 12.499839086721389 -0.5836234483310335 -0.49795994742394234 1.0053496728022169
Ni 0.6357677409672866 1.9669326399753166 1.6771082505398274 0.14368198640340415 -0.5162109232143304 -0.7888656148354221
P 9.125408200245264 6.194243337166084 13.068258683909244 -0.15694193673710388 0.10893275584767691 -0.7647062439803991
Ni 5.895910415113933 4.842290746588767 1.8791842741145481 1.1263082494661765 -0.7154122828412776 -1.881800431047475
P 4.300344514343721 1.951740490987393 3.799901188930149 -0.9018450299486468 0.1921053720121143 -0.5637580768656743
Ni 3.4441949071588343 8.005872259597574 6.724006116351212 -0.32994581203307694 -1.6950725212971907 -0.7087186728711858
P 3.0781245134724546 1.6032316640209987 11.513382654474212 -1.088461610932048 0.18195594228293827 -0.06808589703464403
P 2.830961722598589 7.4729298147343615 9.388767587388765 0.45088176298921706 -1.0946163176795343 -0.6537055498601
P 6.810199029159638 4.7411770063523235 3.846425402986745 0.9438871946213615 -0.7406525454653051 0.9396081076300333
Ni 8.766139429225039 1.4159082856744896 10.299542958907049 -0.03792480007023146 0.020915667106744626 0.9729540300803308
