# total energy = -340867.3443729734 ev
CRYSTAL
PRIMVEC
9.23758619316667 0.00000000000000 0.00000000000000
0.00000000000000 9.23758619316667 0.00000000000000
0.00000000000000 0.00000000000000 13.52014114322096
PRIMCOORD
 96 1
Ni 7.584510888147255 3.089944861454788 9.220087411557456 -0.6706866577991288 0.00266674819888573 0.3970266648419743
Ni 1.3840028729039147 0.3019794632071901 7.138039873328489 -0.9195517031997904 0.7427320537021531 -0.5461861294201819
Ni 0.20531366647894594 4.352778316553154 13.093350943799413 -0.06550990877735169 0.6135284634205821 0.4301581572886205
Ni 5.561987583928627 3.238097268465948 10.58038940962233 -0.1772513377184173 -0.5583399911738965 0.600573703032127
Ni 5.0697997551493765 4.2626749010408185 3.7771492194081238 -1.024826550579906 1.0226197727365745 -0.9275689170773121
Ni 7.894293340393124 6.427586358499877 6.492222672697269 0.9240801871977634 1.960506526800127 -0.7527596131414842
Ni 8.715819591342337 5.936802642818626 8.995964172117036 0.11310051407212134 -0.9466639860355501 0.6925901427404395
Ni 5.722185803306824 8.139615916337466 11.898968002228461 0.07902748364781229 -0.1399780551892557 0.309359503241293
Ni 6.406459998926706 0.7119998867536446 6.326506843099109 -0.2607558833009767 -1.7428011948317212 -0.24657753491806564
Ni 4.465883321631384 8.433186404853158 2.860037045554062 -0.5468253056660777 2.077399675145461 0.05870368448879567
Ni 0.13658510160778187 6.673149111684666 11.421801412321942 3.3459017565052895 -1.1912180627656839 -1.7682255484420968
Ni 6.755049550677119 2.5002081227093433 2.8208558238095907 0.5653876420492971 -0.30968551912214404 0.9053620419629698
Ni 9.18045170057337 0.8084781604826166 2.8253443669300995 -0.20296442621380528 1.0793354802610635 -0.9227092749921657
Ni 1.3438378482322273 0.8761259277717688 9.867378007182957 0.06678209062155596 -1.1323806809125014 -0.8387465588262651
Ni 4.561760228500621 2.020805113190815 2.791449815751315 -0.7314513385820113 -0.6891831739414195 -0.7651703281010113
Ni 4.0041795272165706 3.7931191583806196 12.448710611646385 0.45735605785965106 -0.2863854109436229 -0.2852914065484958
Ni 8.581819166345213 1.6983486927182776 10.87518203078845 -1.2395797418985233 -1.3620814946798865 -0.7998218567366097
Ni 0.08980688899624603 6.059071333378528 4.2381047693430824 1.0157914369608312 1.5060077358836128 1.068599067680166
Ni 8.944606888040516 8.368042947174976 1.0772401875773594 -0.195223863036438 0.5362938100071345 -0.6268560337674237
Ni 0.4357027606191834 9.110467747741561 12.262862386747056 1.0163095142478302 -0.4775788126644291 -0.6114497265146825
Ni 3.31361453541421 1.9682247727052482 0.4324372739077203 0.5900267807542161 0.6472795917290982 0.18082285711975957
Ni 5.623916361619288 4.662255928455378 6.0315377840371225 2.501672834408214 2.092495136026003 2.3415638127970384
Ni 3.0711371360105484 3.0974827317703584 4.3430751560390926 1.7252485306599386 0.45752832177145725 -1.879014383661906
Ni 1.3020377708082655 7.420174230164431 2.666130874237735 0.9232504922076163 0.35850228351453095 -0.32683683409045
P 2.603401197826045 8.911665655754582 0.978931024269287 0.7843242753216427 -0.3827673267094827 1.1046438771188654
P 5.070945215834586 9.001408805406248 7.969068829171852 2.180402695772264 -0.1472123681541658 0.4147950445689888
P 2.6656810037912053 2.0005101363730375 8.230209847675486 -0.11291076665881845 -0.664700615419023 0.5967548435066691
P 1.2926985711893428 1.9362072990364192 4.286993770394702 -1.7528115278798717 -0.8377836806923635 1.5620318166577163
P 2.076581658491562 4.467915590589013 11.874564147081806 -0.46228434839920385 0.004555994801798606 0.4898198348153112
P 4.826527923335005 0.7280797530015761 4.545781975700571 -0.47866098998501433 -1.208607461886725 0.003326750380387819
P 8.062934713531652 8.666222991190015 5.80220916478932 0.4307659660759484 -1.2357050894344652 0.3991743073125964
P 1.2039161304994652 3.0929378393742053 1.4334867745049484 1.0342087631257544 2.454522144864341 0.362335284107376
Ni 4.4476390889435775 7.319059611936214 9.658721258268711 -0.17941517813895552 -0.24996239222989852 1.271472733952378
Ni 3.798098217326811 0.5987969632620023 9.703297230337071 1.5465671453632137 1.0130470414464747 1.8379142711874863
Ni 7.283282440695771 8.374887998527717 8.241621037872573 0.232556023827993 0.15616057848638912 -0.3188874973363863
Ni 7.442233585940878 0.5398833336975696 13.111927729589377 0.20954542186543262 0.18418843115788278 -0.6573696289752485
Ni 1.2770223874570859 2.204605365236023 11.84748323946278 -0.04948730809685026 0.6297963473426702 2.2442179904560122
Ni 1.9266648725217335 5.197592522239562 5.907719950276337 2.0780041414986794 1.410657860926693 -0.5214999395274116
Ni 4.744775285721291 4.135907506015619 8.568105045915683 0.024870795099750716 1.046233298390456 -1.0763874533763333
Ni 4.167379962100356 6.681573790272656 1.2498638841142247 0.03448157871663739 0.6328562172149166 -0.5319746138064904
Ni 5.556481982570687 6.625788007385738 7.527149173059557 0.2793884108004994 0.7180679752965697 0.6457364156116944
Ni 7.097939511759998 5.510700505507005 4.446544434982309 -0.14783020424382284 -0.9141091920279805 -0.5049564333464336
Ni 4.265390751375104 6.409379076156755 5.563930248300396 -1.8353228563112263 -0.06209111290378984 -0.9739487898934324
Ni 7.492264352643237 4.572725243285647 11.10497068182757 -0.9796550962495904 -0.08580696846349094 1.1209816950469402
Ni 3.068024069470907 8.559140892295305 8.268310271837946 -1.3338530959618125 -1.5671025463124042 -2.3200719614718492
Ni 1.9523915500080835 2.8842145798395284 6.144511615391722 -1.958716010558607 -1.735211041189289 3.2116675457783463
Ni 8.37864769609933 2.7661951789183052 1.2446668181343967 -0.37418421302616206 -0.35357245031308143 -1.2803787781927563
Ni 0.6034794956921031 8.86019382560954 4.636231800694321 0.10990360440137846 -0.30273094218118185 0.8556729022679586
Ni 5.732845977748206 5.139829895912041 13.415847085892487 -0.07041325961624004 0.564947212077769 -0.5779479952128111
Ni 1.1417748883268708 1.2630828699249845 0.6422080757141937 -1.408887913510464 -2.158184250693696 -0.6663376368018137
Ni 5.931860534217119 2.469262209036355 13.482622825047093 0.251500940361612 0.012040990324934102 -0.5600747144768161
Ni 2.951990749576458 8.313522713593489 4.6345016008044855 -0.11026870105028105 -0.18052692314589555 0.8722403197083364
Ni 3.547168426576646 6.395790586899153 12.148008706606648 -0.17495174305096323 0.4680847571310648 -0.4874256235515218
Ni 5.0078894526310584 0.31411765143593834 0.5493490882470355 0.7232024683096576 -0.5880002372424906 0.750177711346921
Ni 5.615657959582376 2.6370167739024644 5.3615070225343695 -0.06800927816043771 -1.9341853724070945 -1.2447121780290822
Ni 0.1605769604112102 4.719621338577546 6.956707904308183 -0.9182638376263025 -0.5818786977257849 0.6999332133690719
P 7.8706635949676 2.83987416621853 12.460094089084958 -0.3417170936363921 0.664554576759462 1.003200230559382
P 4.611116651412495 1.3215198400429915 11.645235527834004 0.8295798047253325 0.28757814570014345 0.9578793951353956
P 7.1249594513102945 5.104856394668479 7.862421820585798 -1.4644605085694455 -1.0445798219474332 1.3590707328780207
P 5.704532776133964 6.812830652176981 2.8495182061810977 1.2862414076211204 -1.8891409305729465 0.6934656033668574
P 1.7996850130146003 7.333267019467275 6.668904440839072 0.32433232250104144 0.9865698210915527 -1.3762457019954106
P 1.4727483632491079 4.607384666599394 8.746098551293775 -1.337107084122736 0.6748086503873023 -1.6172819953802726
P 5.144762766927378 5.4969365021121535 11.039208305875926 0.8223133529709064 -0.5189257510423321 -0.20267363444626388
P 8.62758216823655 6.233920364423996 0.907399775753829 -0.26899806870511095 -0.06006534072301268 -0.236278981205535
Ni 6.526964310527939 7.61036689184 0.7872585012891178 -0.2077919295094357 -0.14018657165563597 0.8298729104857192
Ni 0.36354058496824326 4.067614031453111 10.52194135440092 1.0790215485650707 0.16661802637428724 -0.35323897823306266
Ni 1.0682714151638955 7.4549906924430855 8.697114403104596 -1.0863821026951999 0.2558461047041852 0.3038300887826316
Ni 2.7053194860511436 5.118934475993146 0.4428295583501417 -0.8350297720963102 -1.3556712202781684 -0.6010678690597261
Ni 7.068000494979654 0.24888736044774754 3.799754516527279 -1.169686102231179 0.8748060235529836 1.838553190323066
Ni 5.658215519072363 2.193871290105273 7.799052903211072 -0.4299966920100917 -0.06437913760701815 1.9194627214849391
Ni 3.046260316451934 5.079831773731128 9.975065167971872 0.6585225116327691 -0.2057633291151811 1.985496878196877
Ni 3.1110712210279594 6.238816285094648 7.968920104034497 0.3565752416951472 -1.495182877353967 -0.9413420596020046
Ni 2.1944347828617063 4.66457456258431 2.559821961305541 0.27689546917531666 -0.6919008299828987 0.39015359187122484
Ni 3.864858252584926 1.0668950148244103 6.570531538186421 -0.3893429230444714 -0.036095974391608804 -0.521784817757682
Ni 1.5696506421833307 7.255560444596476 0.00736143241970278 0.11473393591048628 -0.5415951676153898 0.12089095665081762
Ni 6.708686105684663 6.606786292631907 10.032485079852446 0.49325302886657635 0.6473415553152851 0.06512038664841688
Ni 6.1376462413494055 0.6069851596440132 10.114795667670892 1.1059276289272955 0.2725276791249242 -0.4987202226287346
Ni 6.652530819350902 4.762862479444189 2.2169107537744672 1.3826801447668444 1.5793746788115381 -1.5465943990567235
Ni 3.4391256187201478 8.829746741589787 12.495733620291452 -1.259919996117772 0.1286790852366687 -1.2946414587593575
Ni 6.309446868958431 7.638744756557438 5.135652659445496 -1.426241317187247 -0.025230235321698484 -0.5583225076723998
Ni 7.519191916331822 6.550224552506621 12.432621507812282 -1.771618890394362 -0.7391741611475656 2.0970804414038398
Ni 8.734359426787616 1.4765450111654062 6.065946868765633 1.0195550177683217 -0.053529596487023934 -1.0574767325147596
Ni 0.5212058582183413 2.6169157863942782 8.161230020460469 0.43871016062368956 0.2941809957286417 0.1844671387405662
Ni 2.375676223537536 0.9212940291136921 2.9414017045485936 1.460884618292729 -1.5466363080382524 -1.910539965074013
Ni 7.616269709403295 3.1981354706900236 6.977609790537398 -1.0341974502718445 0.2419966004156026 -1.631000887628262
Ni 3.0634607019024127 2.509685886120831 10.618678280542678 0.5868290997525248 1.7496459856676962 -1.007941087678477
Ni 7.831422328913018 7.3842954454761065 3.039422655168129 0.28860890095750297 -0.35821483418109923 -0.9430359023646596
Ni 0.4430558792113322 3.904847763119364 4.256748989512095 0.3418852437831403 -0.9988010730504219 0.0761398776873721
P 4.902174516489662 3.7215463407273925 1.3639656247403091 -1.2632642299996568 0.553512487878266 0.3828354609432568
P 3.793784264584935 3.976235829049171 6.493345039417051 -0.9702767403584838 -0.05184475258543329 0.27683196292723294
P 7.7717475222480905 3.1564924322309693 4.678158433048827 -1.3297028212388649 0.3224284206101092 0.3176891061529109
P 2.4130792099440823 6.071615975398802 4.053040815509677 0.5265691265202028 1.6961629261478917 0.06356281235330988
P 7.207792886506021 0.4928067470527091 1.7652435967344902 -0.1777863842862809 -0.08888123651344047 -1.7978935078201745
P 8.548970309920989 0.9093332025394278 8.659231062217154 -0.1391920689528506 -0.16211808162140467 0.3049464617752619
P 8.024691106783543 8.23793154595586 11.18556400237682 -2.3659887786086222 1.6920676730325956 -0.53846844906095
P 1.899940535728911 7.968397256657217 10.60364410904931 1.0824778825447874 0.6135965976543561 1.0555311787526143
