# total energy = -381168.0232461151 ev
CRYSTAL
PRIMVEC
9.22832443079629 0.00000000000000 0.00000000000000

0.00000000000000 9.22832443079629 0.00000000000000

0.00000000000000 0.00000000000000 13.50658561779503

PRIMCOORD
 96 1
Ni 2.0742228154854585 8.816953489789709 3.274523299728017 0.3890197353770978 -1.1346815611315362 2.0185543228724785
Ni 4.041203271822303 0.5170381059054419 11.55800396048968 -0.9510256054383557 -0.3405588116622328 0.7595504108110726
Ni 3.7414488350384394 6.474527879025343 4.240055208396981 3.3502494919510237 0.197849216474427 0.976031383454074
Ni 0.3326801758085895 0.6300490907062198 0.7214085805380211 1.4711870286600017 -0.09323899926150393 0.5105236430215659
Ni 5.193285760492062 3.345645996738461 3.8936654336940473 2.127834691867561 -0.9882605785304142 1.4247703890686751
Ni 4.447351061899719 2.8727681921180945 12.550549020668827 0.5074501463025648 0.12734545402690972 0.561592436672923
Ni 2.602147575817165 2.8389463827832984 1.10895114556772 0.5330647615468754 -0.30407254381074084 -0.12586269883379614
Ni 1.2111437655436188 8.523391258753088 7.302808762899066 0.36651975450236873 -0.13241181280622358 -0.510649627076469
Ni 6.739768382136044 3.917636006612774 10.141541048553696 -0.4614551676296891 -0.09133484026025561 -0.4060185839279395
Ni 1.9472502985311708 1.6866977842723319 7.688124533224129 -2.661373564837378 -0.47938938351060667 -0.851624700340514
Ni 1.7273762387192029 7.751617251528431 11.407406009953398 0.03244860744700863 0.09797908504965062 -1.0422578586824758
Ni 3.5022598920238175 1.7038993811618435 3.833641642573633 0.23563363431205223 -1.0233067715012698 -0.08336287779837256
Ni 5.3150627307463525 7.9095138839208925 13.248893249755154 -0.7672585780886078 -1.8402622025943727 -0.7855488917573632
Ni 0.23194655393796515 2.287129490291213 12.692084756534777 -0.37247571497548754 0.3157121849321982 -0.8477970990643077
Ni 8.493888305289692 5.945043531851187 4.665701525334831 0.16217258900842393 -0.9395515433604851 1.1228197766969437
Ni 2.7489609904712653 0.4196654398219205 5.808750407140243 -0.7812070698488998 -1.2452245988891264 -1.3751072175155932
Ni 6.421095880103523 0.44149319578906765 12.170555225089567 0.7763494846462824 1.7517810297328282 0.6243589783771828
Ni 1.8023656036999824 6.010306242796802 3.6041784307617237 -3.401663841867258 1.1337328240650217 -0.5678553868634995
Ni 3.31581082359265 2.0973674533604028 9.204090008540899 1.6929716729041036 -0.15225301590186682 1.7048802514162318
Ni 0.19000012770320826 7.227596072465107 0.11904907752867908 -0.817248022632857 1.1024173017811918 -0.9004291234377267
Ni 3.509430300169284 5.6713129701898675 0.5859201657244836 -0.4244559646975206 -0.7444711478804469 0.2258685845054884
Ni 1.9237088427022304 7.047717571086157 1.4473796447145482 -0.5984427727320532 0.5440130330282631 2.421665246235319
Ni 6.208761361417484 5.499223174698657 4.227858131890078 -0.36080547772641086 0.5628705320543984 -0.1301582408853565
Ni 7.279108579888527 4.477749162840734 2.254478755336931 -0.48620254977769817 -0.5816776374585725 0.14163950205207862
P 4.563166534519555 4.9328347578028495 2.593210866360189 1.1997919204776242 1.3644975603205467 -1.6782572495120645
Ni 4.196396005132883 7.470088755654861 1.993558953762533 0.51811765331874 0.7490345988814132 0.44070250846337
P 2.4701456220040874 1.004752287843012 13.124119842531966 -0.3261035554688513 0.8378669844347894 -0.49965687551039106
Ni 6.4699414017431085 1.322197422715499 3.004796908072256 -0.4703727818342931 0.28542484680256647 -0.24416018372582465
P 1.739188494093975 5.931164131785829 12.627266850830617 -0.019131321512812213 -0.09860643422100437 3.1668822711428555
P 4.795747997183913 9.086319053957068 9.168162295552568 0.13013304407437587 1.208831404972073 1.7574461984384055
P 0.7120113776879193 4.1977710254851015 3.5780567353993566 -0.34883699251062505 -0.3931062467416455 -0.4237118874426445
Ni 7.771227441115456 1.6640053342984533 10.611611596857651 1.1111747362588476 0.863987335670925 0.9061891658499555
Ni 0.7684084372752977 3.9124773732108227 6.976691771483083 -1.6696615374232533 -1.0228522004623546 0.2483351410391207
Ni 1.5611372009683098 2.2710445206675978 5.312626453075305 -2.779762581001948 0.5730374452850711 -2.1163382611921873
Ni 7.424749997329661 8.826560175606222 0.9793771639336286 -0.042909140658700294 -0.4918517776436755 -0.6973901352322441
Ni 4.785135423995642 8.273534372603125 5.395124905711126 -0.15488016911206873 1.480983188814817 -1.105373041975406
Ni 4.438667208534359 0.9188024418398757 7.053206578505621 0.873416856514941 0.9289655403145226 1.9636923807272761
Ni 6.489745386144874 6.8056032492013765 1.4125325685265193 0.5884054431007092 -1.8734384322360251 0.1697624855405399
Ni 5.301118732409414 2.085389088144423 10.470507746578841 0.8160804846873172 -0.3053760931135128 0.004525398674179303
Ni 3.798341455652088 5.445265161279679 11.76261529439201 0.894793265308188 -0.7580488865648816 -0.11727624271636576
Ni 8.53581258354562 2.5802764467248136 3.9902776858378175 -0.8356020996600125 0.5306594945394926 0.23675694928321805
Ni 3.4516517604025285 6.941342674441628 7.033783723906182 -1.039096944455991 0.7216176403210411 -0.3240690415373258
Ni 8.881847067754862 6.229414351674311 2.4918838632234723 -0.43208879865243005 -0.2125764953822726 -1.9492870039352235
Ni 9.123195438705185 3.09304829820857 1.5075510890271464 -0.23137254504285315 0.4602308083042848 0.1768250488142761
Ni 6.948771475673417 8.438361476703752 10.42693528956515 -0.15960919915662192 -2.476841634297147 -1.1128284698121866
Ni 8.872563373296252 1.3845070698174216 6.455797148764269 1.5220200521514688 -0.234471495683151 -0.16995274717447503
Ni 1.152636188140451 2.9797798431539197 10.17145835378766 -0.06352373158525834 0.7805673793823718 -0.39854592969997815
Ni 8.943547645439024 4.4641281558617 9.059582752182232 0.8708208136529906 2.014245411084479 -0.11971776227832286
Ni 5.673278603310826 8.095197001417601 7.547547620274929 0.8918012725593997 -0.22818180601969734 0.5746574973869975
Ni 2.5576947366450735 4.286261429226265 8.431864736247627 0.6370034066140707 0.07721948390479605 0.034444811941431
Ni 2.3370824108721826 4.896410560955799 5.806818918819977 -0.8826147209641251 3.2344801727974875 0.6036464284201797
Ni 9.001012422172387 6.350822188948141 7.131720240617358 -0.11700396289158559 -0.8188547049983447 -0.743677448334558
Ni 3.101566041732722 4.148482544268964 3.8539559533208876 -1.6401514437792786 -1.9392303910301698 -0.793906262583123
Ni 8.074137964882265 5.408379548207051 13.50270908712057 -0.9915693311886729 -1.0791927840356124 0.16505968074823185
Ni 4.996473283634434 2.651362230437211 1.6025566898734578 -0.35336007719195917 1.6665607870107426 0.41210592777259997
Ni 3.1353047961469147 0.6034438311394481 1.685405818840716 0.6811492478933495 -0.08030223659517782 -0.904920583550177
P 3.957068637250587 4.060582753296538 10.09946819427313 0.40351150123536955 -0.2037108174615266 0.5100245918979605
Ni 6.9013102027105635 7.859644018260526 3.434103178511383 -0.2185054592721979 0.5937677358538871 0.7889823429189444
P 7.9247683043384685 0.5151490678779295 4.22055114454184 1.3928277747238076 -0.3213768394171433 1.0064603893678925
Ni 8.600724618159798 4.176638162353674 11.313088842115649 0.5453428075832801 -0.9297954924149858 2.033339194491137
P 4.941075651591656 9.131879292070545 3.3477288295807157 -1.542104995826802 -0.5596268283061201 -0.4186128756531823
P 7.2770875768205 7.515861245232102 12.45929842506626 0.7091321062595206 -0.12121697253166867 0.8059475100183732
P 6.069718196002101 6.704691520667679 6.011700642630496 0.6667590406099484 -1.8321588567609477 -0.4343469985589875
Ni 2.904679738279002 8.012501985469687 13.210102910503343 1.5059313741197224 1.0580349190110745 0.6283092212741824
Ni 1.6028492277604736 6.451097163090541 8.53302839804049 -0.07811011403986547 0.33562897846078327 0.17014583702188762
Ni 6.262414840127581 5.7179990638937515 11.502951467783634 -0.36854398402124916 0.9591772880112126 0.8384727363395882
Ni 7.675049843056178 3.7474933875934986 5.959578142956864 -0.2489578622247841 -0.18776740675839274 -0.6715073539282111
Ni 9.215681706959845 8.54167256961045 2.562266448608091 -0.8336043525036935 0.15559210757742883 0.9275234085513575
Ni 6.820248600201191 0.756532506461396 8.75371270474457 -2.3147407790669234 0.6703056203106262 -0.5056274912715292
Ni 1.2070925310830525 1.9119519572745278 2.8250642142205877 1.4340947517933946 -1.1421698990887814 0.6432200769477439
Ni 4.6726698331734955 4.961562532007276 6.728413851657045 0.14512900326257586 1.0137109002827187 -1.1232298676511687
Ni 8.703629664787988 8.217786064228907 5.453297494934524 0.5934093240732038 -0.30721751719762574 -0.3361352286732404
Ni 1.7556518250225637 0.8637767112749124 10.553451927288569 0.3509373266830795 0.039265116148209794 1.879886244743898
Ni 2.762065211277653 8.550568674439575 9.216259400074268 -0.3994666417420346 -0.19933891364607603 -1.3131983958259386
Ni 6.6703898384582825 1.1695609352946164 6.33280573100426 -0.6474181741894915 -0.024332663208093575 -0.9193933232450553
Ni 4.061597868992808 7.498816529859287 10.791870305206478 1.3724435546405007 0.21822443769666933 -0.1487447456382922
Ni 1.2397146582313487 4.721386158269919 1.0600899357764655 0.08894397143057585 1.9955329222766407 -0.3639468515688699
Ni 8.66386481446776 6.451752374130861 11.066648281699857 -0.5612911033824205 0.8419753501762081 -0.027679982413771682
Ni 8.126850154492187 8.486062686103907 7.74038084360318 0.11668411765832164 -0.23196518432152954 0.08610495931988396
Ni 9.113367273100394 9.108005616559188 11.96732075720436 -1.5752948523152095 0.8267140531417633 2.86861116450524
Ni 0.1450757211485772 8.512031191279382 9.979003491764383 -0.4506632192205077 -2.4392323085848058 -3.777745014805817
Ni 5.538535837117821 4.800611324201495 0.48834170800435495 1.1242570233641023 -0.8195342475638726 -0.7568286410045353
Ni 4.8130141923450065 5.870303331632218 8.89038603642539 -0.1333158126777317 -0.11894026068234999 1.149219606846711
Ni 6.959577843676431 4.934237463128604 7.834319650135956 -0.4693643951744368 1.6363503248656335 -0.09437954062385034
Ni 5.320784291943507 3.3264141684564104 8.420707691913176 -0.7492518570985418 -0.6554497862447163 -0.7378392443862261
Ni 7.7849130463660705 2.7132381462870914 8.161448988750855 0.7162615182154503 -0.20658196836173456 -0.10785314963025296
Ni 7.428136792425397 1.8756385003216154 0.9655088378576853 -1.4626216555884939 0.7482956638328596 -1.5850133651545542
Ni 3.323904064189271 3.0262998270165964 6.162811688009621 3.0455596262712583 -1.1756631457502205 1.3508424314309575
P 2.0766129515339475 7.625964384979294 5.174196971239939 -0.3838723868482034 0.22534922166690868 1.1414643883813245
Ni 2.138350442516155 3.676647540318401 12.448561269497084 -0.301327634075752 0.34071950560981323 -0.5801869118456588
P 0.07682026456386903 1.1182514510104506 9.11798512668597 0.052700929938141496 2.0911211384966113 -2.362212085175009
Ni 1.5811072952112837 5.553578006071632 10.683317523977225 0.09644053691793714 -2.4876130138810386 -2.5148286550638823
P 5.531005524316403 3.103264053442846 6.252806308646165 0.9786793625998822 -1.3584259002051702 -0.9191434120177784
P 7.002554150926676 2.853637875405671 12.46603879328949 -0.0629215792248852 0.16562686610561153 -0.4267774137418456
P 7.847601054772966 6.642972486334495 8.977611236876022 0.25788396106982037 -0.1017760901982376 0.41333028709800423
Ni 5.203612255620476 0.7775906201642806 0.5143148273420861 -0.5338965134195514 0.00021854376870930105 0.5558010268021266
