# total energy = -340887.12536248215 ev
CRYSTAL
PRIMVEC
9.10158363014149 0.00000000000000 0.00000000000000

0.00000000000000 9.10158363014149 0.00000000000000

0.00000000000000 0.00000000000000 13.32108764488662

PRIMCOORD
 96 1
Ni 6.639668797792243 2.2644830502784865 11.674827650291464 -0.612072961920978 -0.8922956956973148 0.09773560158027683
Ni 5.022180904736181 0.6896042198864765 6.030002874706385 0.10575821477443723 -1.0375727945019808 0.19771680466162078
Ni 3.0256211648585682 1.9413586365864721 5.108237285894971 -1.5343168672409513 -0.8307599410763628 -0.6812922012291169
Ni 3.316289332163739 4.592540660571584 4.8032241130008195 0.9238457025894541 0.4062625816179455 0.3333746352089678
Ni 4.083580117118893 3.122207167847123 2.3641462986129165 -0.37494320267937364 0.49088298597250296 1.3764914994576294
Ni 5.260469459602684 5.025120716172791 3.186497112316587 1.0392270422759522 -1.2039409096489913 -2.644130204375898
Ni 5.304930694487635 3.533844480056258 0.28341147486427587 0.9956553283325885 -1.5213680203897668 -0.38461929231655695
Ni 5.735745042910197 8.298969364965286 12.705319844182126 0.5065523170786438 -0.5150642112043968 -0.27299664834154275
Ni 2.579679984833389 5.547415079299269 11.68267321517802 -0.9774107803001038 1.082243655046794 -1.0440524886890534
Ni 0.883116625082561 7.490757861065868 11.356613540841094 -0.9606055358173071 0.25768958567082717 -0.377435372973608
Ni 1.106898166175652 9.229096578441759 4.353651401201005 -0.6829407925761335 1.1956136207302182 0.031102892052391595
Ni 9.021926337203022 2.6074580173551634 1.6846375550282588 -0.7142128632165378 1.663554138973935 -1.9089643930567772
Ni 1.9020306947363457 1.9351422551276347 2.740040782671246 0.27024376818675394 -0.9244347423237047 0.5653971551309941
Ni 1.6226120845074898 7.1153539523525335 0.22250094830940387 1.692520444299298 -0.1321665295646369 0.8526695966652605
Ni 7.956176429556511 4.0464092505334 3.6922994063311863 -1.4786625111014404 0.6666546538216003 0.12642551331580162
Ni 7.751700257002718 4.037653527307335 12.68174128223884 0.8274167356357427 0.5718722213323765 1.7041544289938007
Ni 7.90136669435136 -0.2474966267873031 7.528239091645133 0.021528618100395178 0.7647926330466184 0.027577652507952504
Ni 7.206460802137251 0.910704434511378 0.5588972909081189 -2.7952629906303925 0.025836758557445827 1.7047894914746382
Ni 2.014271421164432 6.6766394295430445 9.213943352247297 -0.6457544133338233 0.10072399478463943 1.2237363471083635
Ni 0.01224436014139673 5.196175874499863 1.6714766654389779 0.8493914401346211 -0.5618135515447937 -0.5421777795917372
Ni 6.5628150276042145 2.1430315214545823 7.195318643744998 1.0648550272567017 -0.5118966121096926 0.20866764724616968
Ni 3.4346190178831315 4.841978655097058 0.387094892584311 -0.024042642771500526 0.5213796118994632 0.4560710204996403
Ni 5.948876821272709 5.831348074892084 5.179292437301995 0.8873774324600912 0.792918444748557 1.003100214646408
Ni 5.25154990787551 3.286263208543381 9.479006034987096 0.7256247045979052 0.07417915441657548 0.48522167392166754
P 0.08158841387014686 5.744837524721878 12.727886310051879 1.116168075708381 0.756234201953646 0.30970248840300857
P 4.090451812582176 6.865670215075393 12.841421281638747 -1.2555347225658828 -1.1068331714607003 -0.6424495173303064
P 2.4410810728931605 8.79509667583092 1.5048567087003266 -0.8285732178376891 1.9217800567642065 0.6127581609134608
P 6.551583673694691 8.06146354627076 6.015949119786048 -0.8339789622342927 0.004250290635921712 0.6918938880043631
P 5.148192326841018 1.3099817964699991 12.902312694868488 -0.9010724134486805 1.530559457081048 -0.27538957405375153
P 4.150649685157213 6.594889007488465 8.496775897207169 0.1805243520427343 -0.5950265479616527 -0.7252889185250413
P 4.652847752147363 1.3558264720310007 3.9604393344168627 2.7528364460350656 2.4038153625380922 -1.565200444193685
P 0.28602818009036046 5.895141072908175 4.034704614287331 -2.0435109928178163 -0.36386354782644426 -0.8973581978218867
Ni 0.6608932750667068 7.6612214164722605 2.4656398753680957 0.5947303568774726 -0.5105740366435272 0.5147399950957586
Ni 1.755231256157153 6.912625283810594 5.067488586876873 1.5854221705571987 0.8977063251899249 1.511201107159094
Ni 6.218638651519388 5.841614660961729 9.608579816832767 0.18044053407967633 0.99547457978035 -1.2993733170173878
Ni 9.041558452586203 2.448207612691505 10.38589235526424 -0.31899316967631514 0.2861951493096878 0.8864145543261895
Ni 2.549053156708956 5.661021043236618 7.070553228406946 -0.729287498161473 -0.12089507041587565 -1.1749959444798668
Ni 0.7252250868197881 0.2476968616219948 9.336017429375424 -0.1909871992472711 -0.26829898575555733 0.0033033533416201174
Ni 1.4244069029129038 1.0536903096480335 12.071982523002353 -0.419242024596749 0.7633314751200596 -1.3357631685003317
Ni 3.8404586214696033 7.239918222697553 1.8270673234194752 1.1291279783031585 -0.13552310474169563 -0.6423497585276485
Ni 5.637338723242627 8.204686062575687 8.410534753905457 0.6046360460269586 0.4708834029221245 -0.2120612463087509
Ni 7.385871214021004 0.9841633140930424 4.90109434940642 -0.5556691292099527 0.15437751844403735 0.9408954589828892
Ni 0.9051024099317083 7.772997962147198 7.221081585703102 0.5875158414069043 0.1147061679963444 0.3611520624325522
Ni 5.270371982336529 4.90935767697081 7.372862320874421 0.3630189404379619 0.8178260066235141 0.05897107921756941
Ni 8.435474912724649 7.27802655237274 9.421072636360755 -0.17254364783010284 0.7489065579439812 0.21905464690744855
Ni 4.821591108292085 0.5555169628351875 10.578622024288347 0.2852410129265346 0.25703241170280255 0.7045066916723673
Ni 8.54365633295853 7.742698791024987 5.28061217381433 -0.3023545326783696 -0.7032195974298275 -0.7386362863662247
Ni 7.269735009899825 6.427083114433436 7.317020466112267 0.25636469621181657 -0.11200908078015549 -0.30245223459849846
Ni 2.237542363429059 5.883673077830379 3.1114327134240307 0.429715413324247 -1.2855929754038442 -2.199141666942664
Ni 3.372983095131672 4.612172775954764 8.910369139687907 0.28138487240523796 -1.1485917434547253 1.3198768362873785
Ni 1.0789472035693715 3.685076389748853 4.340782672438706 1.7286773538358293 0.7849246279098031 -1.4244011786547146
Ni 0.42528877714341107 0.3972204041113339 0.8484004555387197 1.8510394957155345 -0.7567975306562837 1.1623654002000496
Ni 1.059670049938599 3.512628689162334 8.504954580045984 -0.07302498620747423 0.8063863973280048 -1.54821110872454
Ni 5.479317032337305 3.3087714242794055 4.934250507556345 -0.479165954645891 -1.1090780016308188 -1.238367723868293
Ni 4.144633538533068 7.397493936016517 6.249348304052717 0.7744905770606726 -0.3653378183791257 -0.2029726537439214
Ni 8.33895262081986 7.542600480084226 0.3786003848016859 -1.4671966765536861 -0.25071598256647143 0.4512373465564229
P 0.2404119542725754 5.805881844552658 8.217258989877646 0.2710130422526107 -0.5000744226637839 -0.12045258356181837
P 8.662077034511872 1.7049723126495393 8.199368917556283 0.5926593332810567 1.2727238327506598 -0.7278129704984756
P 1.9450538794448735 3.905544044327797 10.38861008806601 0.3065498017066398 -1.1159968402378393 1.0019375617968744
P 4.232827881631361 6.626908377872345 3.9560696642288864 -1.0696370220263771 0.2789832049422808 1.1219039497508938
P 7.047146686389828 4.074123571971408 10.650862201853412 -0.6773162473005045 0.66026777645865 -1.4069984097972348
P 6.629365805389016 8.061472647854155 10.41735652906102 -0.9494950277264421 0.35730234966915886 -0.2617205612070912
P 2.5802351814204885 8.863476871878131 5.9864563489526414 -1.1066763341678618 0.9176318604692583 1.0405527030659112
P 6.9141088419039916 4.459530120835932 1.5438078449978971 0.6305586794299914 -0.9422933677716804 1.6285102599959242
Ni 2.9767547636104013 2.172402331070495 0.5752309924689236 -0.3943203216544048 -0.3303409905889666 -0.974579738609212
Ni 1.7520639051356663 1.5242239680067105 7.286795017815557 0.2744423796491338 -1.1086324294529681 -0.07935015709455367
Ni 6.977009884747367 1.2690792806925244 9.50480902391214 -0.3220874923309227 -0.9823712096291726 -0.2875660615152854
Ni 2.94989599101153 1.886539799797925 9.546450588261294 -0.9680347384018425 0.31228618996978474 0.07090511165099403
Ni 6.311547614816331 2.35681861382154 2.610373254516606 1.885071131378947 0.9602656359793851 0.5895269582996622
Ni 4.100308827399044 7.336395006685367 10.63827380185968 0.2917286775334072 0.36258339556244007 -0.2751790007048422
Ni 7.517197960828566 6.459320922818797 11.645188343965398 -1.7614332081106114 0.12659854855855615 0.3294907267735293
Ni 7.71340989565963 4.13660594197861 8.322229371489744 -0.05783799405439071 -0.2089414697328466 0.24817778952565
Ni 3.365164834995301 9.169026128034252 12.648865452857484 0.6115050052326501 -1.4189882351692593 0.4718606792337293
Ni -0.05938692149453618 5.044807441056342 10.503238159818624 1.0549537089825896 -0.44886241856634307 -0.6401776905769943
Ni 9.112050215981071 2.8079203916317277 6.0596294388157 -1.7134304549790875 -2.245868381575242 1.5413264657895647
Ni 3.5790793495297897 3.018358101309297 11.654952522631636 0.22041450336945267 -0.08899565060411771 0.1860807630845892
Ni 1.2103831693776745 3.8835546188452916 12.606463906294838 -0.12704566339830378 -1.3600798908688252 0.7226777061544393
Ni 3.2833598034403515 8.678286954538505 8.530024891507724 -0.53925212130451 0.6914089779481447 -0.9041767634056169
Ni 6.018176277242823 8.158559237929438 3.9225002941928246 -1.202952834704109 0.34372409676409194 -0.05665631504146371
Ni 3.5171976840266628 8.769357397989642 3.8986159190474647 -1.2743824514000053 -1.5024675839408383 -0.5108614859769589
Ni 4.271127344557844 2.9015847863504627 6.9055588144626565 -0.194170224960943 -0.5528059487295447 1.6668502932267035
Ni 4.896997726720296 5.183479165663731 11.331995578074089 0.4991033169997663 -1.3278320865787132 1.4418042046225104
Ni 7.9302733232141245 -0.07572335353035942 2.7814693699689563 0.2536231289109374 0.8779805646262233 -0.13568971222654697
Ni 4.910904946147973 0.8142922717656695 1.7578506918582562 -1.2192801111092226 -1.9071666777264058 -0.4962427076225195
Ni 5.852481951535451 5.9527449942156165 0.44812647019833757 0.3967695545258457 1.3679477236526763 0.29707965743267545
Ni 7.85276423902165 0.12462434079542768 11.762799914754918 1.4280562589087986 -0.979984454564551 -1.212378498893383
Ni 0.041645204982513104 5.072822114746388 6.184541389646412 -0.2555910512705856 1.3687640489063846 -0.5189044108860934
Ni 7.491495089320869 6.504837941377576 2.840002562941034 -0.4485520864147759 -0.3255255714781943 0.08684338014780528
P 8.734880600089092 1.9848095957145684 3.612092612820412 0.8740670885044302 -0.9168278765107242 1.5856931648303982
P 2.113551492837929 4.048857576466675 1.8231636543013268 -1.06568729335001 -1.2084516530351512 0.38237626191865115
P 4.791656000505678 1.3859345099019145 8.500958074777207 0.6873659182270226 -0.43378161297382073 -0.7994192219815522
P 8.715885595543567 1.8277617742325194 12.873991297818028 0.6532988013399845 2.7587916351772357 -2.0539332165924047
P 6.285089311886843 8.060398661013535 1.5869275064904125 0.9269693358201004 -0.5965604681076757 0.13210302331655313
P 2.3532416915472747 3.5346818257286055 6.422242892383934 -2.3063317290676215 0.55218065644072 0.4337975538134207
P 7.024492845319482 3.942887840997797 6.120200476309936 1.4166403037623732 1.607192986575387 0.46651946952647394
P 2.3758955326176205 8.829227613562457 10.568511075294756 1.138754445649329 0.32089141514029246 0.15385712716419309
