# total energy = -340860.53860994667 ev
CRYSTAL
PRIMVEC
9.34930817822249 0.00000000000000 0.00000000000000
0.00000000000000 9.34930817822249 0.00000000000000
0.00000000000000 0.00000000000000 13.68365756138154
PRIMCOORD
 96 1
Ni 5.828798136882553 0.4866399051452009 2.888401447185213 -0.879383358511021 1.402012269436553 -0.565866895678561
Ni 9.205656059792338 0.48931848193876454 1.9212127111740662 -1.5119271866918413 -0.790289234655826 1.224767359476039
Ni 1.155181820101684 1.7722642079047517 11.454972457303722 -0.05001052759017194 0.6631057601280773 -0.9334798832451084
Ni 2.448911038122457 6.159614057522885 4.309859978630024 0.6178474025109102 -0.42263690921091085 0.02405884072141663
Ni 3.2375158337953955 8.67203494611193 9.41792742736464 0.7196353197836897 0.7312003989134697 1.5475369654756508
Ni 1.5963195772657515 1.8339976898171444 1.7893435240879347 1.6581414525987959 0.1958167594254305 0.6093997859641892
Ni 6.3247508879058305 1.8687584176303014 8.461016385835743 0.44566628022654864 -0.07531969577892189 -0.20695349276854033
Ni 5.309238382704833 3.1810086151556103 2.6498678729353515 -0.22842426104780658 -0.2905266868055061 -0.3484204737984967
Ni 3.1662928040803258 8.649250682077325 5.0086562548569145 1.064402255989999 -0.5769231534927225 -1.425279724604926
Ni 2.0260324798338862 8.5334127537274 1.5982651682980047 -0.43822602189841947 1.7946978837010124 -0.1930646506015901
Ni 3.370949160140037 2.593086719565893 10.245022389883728 0.447140807889546 -0.4800516996849539 -0.6636156098849604
Ni 7.5670589109367254 8.506767225414464 10.016724438229307 1.4597589893287182 -0.7786431657764654 0.6916429483358216
Ni 0.2920976306745891 1.586437358519515 7.174245857893328 -1.4109131714706087 0.01530603422945106 0.0026250963276728983
Ni 4.382319921817304 8.76047940149452 13.37234073295418 -0.5800843248295235 0.2396941775346711 1.0921151485242353
Ni 0.9513201552372702 8.768575902378378 10.843437014043834 -1.3757813607644822 -0.8113650814895188 -0.7681054994699352
Ni 3.699670835748053 3.9241664237656773 0.7015431029701682 1.2845771325448199 1.2976409077073137 0.3832226690793465
Ni 5.83836247915067 6.468646090103866 3.6435198257499253 1.2056686909733751 -1.0786708500938713 -0.35020481939242915
Ni 4.558470237236264 4.546811649935831 5.241743857091938 0.5786545343615325 -0.07314917049016434 -2.2400126941254133
Ni 1.4132227258690682 3.9077303399852767 9.390601269416202 -0.4316046599271599 -0.8525109596002092 -0.4295390356473829
Ni 3.9647891678076803 7.716582396659109 2.89875954571781 -0.3142692818380846 0.06517926491081032 -0.7944569928802705
Ni 7.995201129730624 4.802552625890942 2.8599524373243588 -0.2763683930272531 -0.8618458638478899 1.6311960343582035
Ni 6.623134058469818 8.883703283306625 7.194565644291691 -1.4137796943851264 -0.7326566717440222 -0.19269132642257136
Ni 8.361254592901291 2.6097097895098935 10.00795385222567 0.21395332112514118 -0.2980674752672415 0.9198538078212417
Ni 3.111300173365697 6.904912857706166 0.43997844294975025 0.6391770172266218 -1.6867292915388177 0.12054385772404401
P 7.488945441093012 1.9702171099994195 2.4072841783819245 -0.7464367562472499 -0.019801865217275574 -0.49789541273459414
P 4.005739137635983 5.439633183890981 2.578863617031693 0.20459167740458314 0.5464946617995362 0.3914311730320678
P 4.014920158268721 2.5544460288580453 4.421696403078917 0.5701290133890246 1.1875213306403871 1.039660530268945
P 4.181216302865984 0.007412131525086315 11.402975344929958 0.7381598609504384 2.0900978394384198 -1.859093990588895
P 7.0128599699521885 4.888369925674957 5.065320541874122 -1.320281785035281 -2.585090476703922 -1.407694150312679
P 3.9841048385075144 6.991721184157258 6.0378458629944 -0.37575721394023676 -0.5207394072123033 -1.8458870049803178
P 8.207701555353337 7.332877439644645 11.88005558246113 1.2730344220125431 -0.6719896928812685 -0.6808191182474403
P 1.7802859143231726 5.035144714792427 13.483055240421479 0.10472180309012287 -0.5186388159295325 -0.2757528709304412
Ni 7.946537980653841 3.4508296492297665 6.6366559628905195 -1.0994628471385584 -0.7556695876994276 2.4644648578993493
Ni 5.8064626396405865 5.209471915116291 1.2358766339338894 -0.9071024216928443 1.820466765135 -0.10407054265936916
Ni 1.116213903607537 6.331229958474554 1.4673673743317732 -1.1362296223449462 0.13857037620845167 1.0423028529877985
Ni 3.576129077457828 0.9424383124662915 3.1880458394226796 -1.582993763621364 -0.3765712252010998 -1.0400137998433059
Ni 7.304670576865652 3.637610128049361 0.7213505472802689 0.4188015946252207 -2.8600061964450485 0.382584007054083
Ni 8.359459525730735 8.959413980948083 5.687434727339654 1.3038015279920707 1.1773590453954046 -3.4814366883215264
Ni 9.403440674339764 6.337091974703401 9.373333097207782 -2.6173105130798926 0.9461543933889836 0.35795643831338997
Ni 2.098723350933213 3.9232127943313198 5.403060560152546 0.5971924452647199 0.9372241807788891 -3.726383886725021
Ni 0.798854442230648 7.774510710142251 3.6603513852663387 -0.3811189924727823 1.1558206571029965 0.053167070941282625
Ni 6.829950104719105 5.430349320868264 10.65497178989021 0.6458091778311588 0.43418913282488447 -0.8156431400395823
Ni 1.8955161376413976 1.1009090861169133 8.587398463951045 1.4363562941340617 0.47966577710044483 0.9007911347628358
Ni 2.4634492123423226 2.47280786983048 13.263747583512922 -2.8352387596923814 -2.1244079255741997 1.562502842756864
Ni 6.009277181988843 4.735116065988763 7.128268765056651 0.51381079841327 0.19636183329562312 0.4672620041194534
Ni 0.7943359215872647 5.252151506957889 7.41949784500132 0.29463736653976996 -0.5329092098056177 -0.2339189656137907
Ni 6.455126990475619 8.2739320545003 12.506137614318247 -0.6058076977375566 -0.38017025540626787 -1.0150666429796646
Ni 7.6050171021474355 8.731216066891188 3.47558100770544 0.9911265872242994 -1.6734120056046213 -0.2229727510149321
Ni 9.273877961581634 4.630544053995712 5.466552646933591 -0.15554402794831276 2.1878049017736063 -3.5109107865212437
Ni -8.22739119838037e-05 2.132128429060273 4.981535781688434 -1.268345758287622 0.9127771034801183 -1.0872493357915018
Ni 0.3012683670683292 4.01101214744949 1.21216024387374 1.0125022246865982 0.22899530305992818 -0.0735353501849895
Ni 6.942375535583336 0.9050270557841107 0.2101930163638945 -1.5670079297160688 1.5667564758268953 1.4617045430908633
Ni 5.934277031769062 3.1453877509898955 10.53061477192669 -0.7934866585472011 1.7766963049172693 -0.7084317377583864
Ni 3.656018915855737 5.147747782512078 7.2375331948252315 -2.9180262246032584 -3.1290880831132175 -0.48634627444441403
Ni 2.826969012996215 7.779970706119358 11.728454680461157 2.017589644966364 -0.722701103193207 -0.08386938512114588
Ni -0.007861833248543242 1.9437772664664426 0.10075094973989362 0.06592797015137677 -0.17857339896395052 -0.48585982172629877
P 8.473287352821965 4.4833765939346835 8.952067294580258 -0.7062103046270354 -0.09620965185405367 -0.921028287745317
P 0.9557236793900398 0.6488700356149919 3.8063688804212306 0.45642429007400104 -1.207411641806411 -1.3646783088727852
P 1.2784150512219699 0.001849293157999588 12.961105803072956 -0.33569608425329284 0.8183371419319778 0.7604184152383227
P 4.226710036469756 0.9601926487000692 1.0552451951042663 -0.1215769269742487 1.2631541867843534 1.0872575633216177
P 9.230955287727356 0.5691185669781461 9.37185497158453 -0.09279394130428535 0.7993839978682425 -0.7312420507846826
P 7.382643807086666 1.403649034292771 6.386463801340227 -0.07153940280088325 0.17415238707811945 0.5030635871990949
P 2.1938432123563056 3.107747436257305 7.134330856480548 -0.6129587069600411 -1.9586661311572784 4.687411340571095
P 4.90392717448644 6.55140616611303 13.039184680476403 1.4691954521512698 -0.569238383253955 -0.8704873415729718
Ni 6.158118168214088 1.0813970799452999 11.21511221622312 0.2563868076990036 -2.0676508232888136 -0.816703977203929
Ni 8.230167942909825 8.397754292035923 0.35742498665136524 1.556626586481745 -2.211812063321481 -0.06865513927455272
Ni 3.924708683640116 9.220315775018543 7.277133124552345 -0.37908730675473423 0.02150470684099522 0.71869223914413
Ni 2.2898980045973967 6.959699803640834 8.084181300471926 -2.9544451295519245 0.36052831280562425 -2.6749160794085025
Ni 3.259514755942883 4.074428504834279 12.04237079163536 -0.9645066706439259 1.6027714604689236 -0.2147616759590495
Ni 2.2162067575228126 1.3666631711327792 5.35908141447393 1.1008586990448204 1.18522327863483 1.177088051122205
Ni 4.364444044577187 6.963757403390946 8.015681724229683 5.678754414681574 2.0700180379694095 2.9164509096963385
Ni 5.49904803737474 4.2359471529515735 12.596600585336892 0.966983928539825 1.2733092729404845 0.39472321351977824
Ni 4.484068442740002 2.067982825637446 12.531384486127457 1.0220219912515753 -1.541678964032977 0.3735949161815953
Ni 7.457849642086407 6.69341280805871 5.753088374171912 0.8334130624284938 2.1288546484916435 0.6075071969271666
Ni 3.3432939065436638 5.177357041518067 10.077890417135174 0.21417572154859243 1.0344468472784893 -0.648966749623534
Ni 7.136747652645073 6.589598090028238 8.16480599449278 0.16870267681745782 -0.04483952491219374 1.0201839096015721
Ni 6.4964696312474794 2.4513605568656116 4.725363802626228 1.0985195093886821 2.0705299446088214 -1.3148125343905939
Ni 4.914809769207934 7.244657367658375 10.592711006996463 1.1851626006002236 -0.02899870122519522 0.24560977168815767
Ni 7.644218751346082 5.4200744311784685 12.971861247203202 0.6146396942068898 1.0181092864607304 -0.01417243484564011
Ni 8.944604676791 8.306495694891161 7.591625153110436 0.2305968432190932 -1.2422778575559765 3.8869464509338476
Ni 2.531586970358 3.769996331877845 2.684460313201269 1.3000297196544643 0.8897911841079063 1.2420780828403448
Ni 1.5665420307125226 8.647324724592249 6.535437547741627 -0.08379353757788795 0.555477839134753 0.6156830478697397
Ni 5.0760105408471095 1.0247122244500952 5.731865444603362 0.01388987060821479 -1.8764160268071104 -1.7495521404023096
Ni 6.011352728404798 8.089526299958418 1.308525433146406 0.5250354634844957 -1.0561934949269616 0.3711184296166447
Ni 4.33391855336956 2.4378414572373637 7.247453745735006 -1.3382712796341663 1.667993148581895 0.8065023540805787
Ni 8.381131222091923 0.7351734994243659 12.083326371048571 -0.045659449710327815 -0.6650559418759127 -1.3658072802709058
Ni 0.4176962367644094 4.667623410237504 11.544121850523082 0.14803486405546118 -0.0783872789606521 0.4462347511355089
Ni 1.0866607404506274 7.06252349500423 12.74174298524614 -3.6561994552901353 -0.8761034022081686 0.9571890539365903
P 0.6124694391470668 3.8195570145399067 3.399608529434941 -1.0292349640602467 -0.16394999262382087 1.0151635735688453
P 0.5031807011772175 6.929791366773086 5.681317474997495 -0.4895064173399505 -0.6845081370632533 0.5712561850149322
P 1.8678328361204835 6.829305002454687 9.987387244091357 1.7735189356305523 0.36102145039195893 3.609335443748745
P 4.738229385612695 4.1591051890203365 8.796402248314447 1.143299127597218 -1.762915449083093 1.2712061105545527
P 8.218425211835772 3.191255456920866 12.409065617347174 -0.24095761762812695 0.16344399952167982 -0.907621784531424
P 5.5886611562798265 8.362984214914588 4.734367186403547 0.41663004089519856 -0.0005715562327538544 -0.27084926298123674
P 5.811922635617694 9.166304821662811 9.125644680388087 -2.1506007819194832 -0.20709773165588852 0.035828065442202815
P 7.71174880433006 6.443440355250647 1.63553899014994 -0.20175446506610414 1.5534767279988537 -1.0025340577302926
