# total energy = -381168.2691017846 ev
CRYSTAL
PRIMVEC
9.26799083411835 0.00000000000000 0.00000000000000

0.00000000000000 9.26799083411835 0.00000000000000

0.00000000000000 0.00000000000000 13.56464140860728

PRIMCOORD
 96 1
Ni 7.47782258888664 6.433431266776718 11.097897854557084 -0.3028507555884978 -0.21579783053304769 0.6305746202695914
Ni 8.642568036625905 0.802253946704304 11.453575528920036 0.02782267863922305 -0.2913196150204467 -0.08621474542487088
Ni 0.398594958326591 8.677823472779764 0.6269600997351961 0.2033110109199466 2.912897130906809 0.631481448354577
Ni 7.21799447306817 6.584972180696739 8.792532465348826 1.152588266208628 -0.96245493032122 -0.8507821498345606
Ni 7.634516505567319 7.18743790813671 0.9228703564669687 -1.1359804824486177 0.052339947054296954 -0.7953985308579333
Ni 6.3381285196762605 9.274200130410827 10.421822038760537 -0.029699326836645626 -1.2590368221818704 0.10675991656607421
Ni 4.653244904790068 1.7345785803585894 5.235992055479 -0.19857709577938704 0.0857005247926137 -0.3854800976549555
Ni 0.6784335925992658 6.5593739907238255 0.7612838675608361 0.18012377417020592 -2.272593713385228 -0.26184166016598776
Ni 2.9059413733696355 7.197261978148038 1.0783872383444046 1.6399611821453433 -0.11904644724291111 0.943830373241497
Ni 7.712395430383534 8.565829074650626 7.41412090925564 0.7364197383308801 -0.07902902630970907 -0.15297395322829138
Ni 2.637058430757707 8.128935998863838 5.296327600932534 -1.8705698524389787 2.7105945066467187 0.018130391052123614
Ni 0.5463971648479613 0.22658383361975867 5.827586429972473 1.302310545268841 -0.519431487034157 0.7344816407679029
Ni 1.6036867494435103 8.47238919365609 10.417793243256835 0.4860110025921824 0.13406837457304008 -0.4465329991022181
Ni 3.2581713552380474 0.41298814769224396 0.3483114754525726 0.44942420460708404 -0.2402909305784055 0.3746932914520966
Ni 3.7728043359824013 0.8838419213493246 2.546150564788732 1.517364812767645 0.5619973854208257 0.7381840293201545
Ni 6.749729249179169 4.078657293004884 3.697124705330043 -1.8430436219942516 0.9632869393042119 0.12844331507677878
Ni 2.4075181081439734 9.100925778588389 7.826607658657683 -1.3735542712061763 -1.1636738345988282 0.022678929654754487
Ni 1.1824195057690785 1.9096694583340672 10.216304347721671 -2.797633547745098 -0.8186209917209837 0.23515618045500147
Ni 1.9127186272338095 8.689037741377602 2.5293439906769 0.0036671644389420716 1.1116521901158984 0.3092764566091835
Ni 1.9172692106069813 1.9971685573689224 3.7527122592111204 0.2366363645449538 -0.2841673202463816 -0.02153478874798227
Ni 7.768476041363294 2.110608762028029 2.14260279229794 -0.18684463783380725 0.034238352357579736 -0.22316995462740277
Ni 4.324944874590758 6.976934038167569 5.659250063529313 4.067448691489395 -0.5232973977474665 -1.104223501751995
Ni 9.129452653583545 3.535052573717689 10.987386334920222 -1.8711676339239773 0.08003792719019764 1.6220318513604326
Ni 5.017532542398797 4.550073633689972 5.5585728086934125 0.8895435868734745 -0.2966695664784504 -0.8108500895263132
P 3.8824261285238975 5.580887349604992 7.238987398523509 -1.1640101348923244 -1.843903913112018 0.19239256423522993
Ni 7.623153949120255 3.726798030759541 6.455413086826593 0.39174613316932533 1.4471377010202817 -0.9387794410811509
P 0.5081036813830513 0.5314024828938788 8.868358530252296 -0.6975107199705084 -1.695963665652892 -1.194229338788182
Ni 9.137311909592608 7.7719051978766815 12.118785552564432 -0.7020242915701458 -0.27518594268337765 0.09982925088451194
P 5.31803786885851 1.289918928468505 8.962863303364097 -0.21609042207280202 -0.2913131872625434 0.21142669804854555
P 2.9143567088133016 6.393022827862199 10.810245377429172 1.844067949493708 0.6607020357825911 0.5068811611729722
P 1.4380214178845612 4.321867901719286 3.8519242447368396 1.1758050706447234 -1.6831657425572755 -1.1452976460844855
Ni 0.39700642474174036 6.21332575857009 8.773650788146865 -2.2476231594828193 0.6233511059379586 1.5326605625844507
Ni 1.0450030094879854 2.758209603576648 5.721076828666641 -0.5721632702102339 0.35940036984876816 0.2854510720548116
Ni 3.948024965825953 8.347688380446263 9.37204138013025 0.5819414326429203 1.8831188927485827 0.4681917150225743
Ni 9.010331170700907 1.7152362840249658 13.590413631079254 1.2406351797462312 1.3033976076854328 -0.3453042967670182
Ni 0.9715819881391746 7.243184871455707 6.780827991559367 -0.20230956623862578 -0.09896793132548116 -0.8215353371543012
Ni 6.777097625352236 6.12945971184131 6.123255718949251 -1.7468853922034238 1.0877267896485525 -1.6420833706946687
Ni 8.47889532304095 5.040248387302349 12.833140949840024 -0.08569795368945242 0.043768403335202044 0.8795959887424594
Ni 7.059104042620807 7.239190367517139 3.418506665416322 -1.2867569138049582 -2.126906780736653 -0.32483625872065347
Ni 1.707015576383411 6.748783914140343 3.794016912814408 -1.7322604432013973 -0.04894069156476087 -2.1859357097753516
Ni 8.795638168991086 3.8491447743628804 8.586404013730954 -3.234056712106824 -0.35983128673859965 -0.6425731873923642
Ni 4.109464093681916 0.17166913585455112 11.660680826744695 -0.28383179128383373 -0.2719797770412542 -0.2941311163273128
Ni 5.708683671667445 4.553345234363555 8.062428898485262 1.5258944475052107 0.9181782198910315 -0.345327950916102
Ni 4.652104941949131 2.412402339177907 12.517424070446733 0.4967620704610993 0.3255695373422522 -0.01862892795509695
Ni 2.6925088183782493 5.505464442291608 5.226699968126776 -0.19615717348398476 -2.3499019003490886 1.4797202629419934
Ni 7.901147326469104 1.6100353229885667 9.00127912430462 -0.14332923104967574 -0.4476300888211388 -0.6738750828294394
Ni 0.6522357636360389 4.0908354326227 1.118190477474263 -1.558110370116123 -0.7610460215199926 0.6365035841595168
Ni 6.010356764939824 2.2804539573370812 7.197751328050489 -0.8059912187721151 -0.7076285251308007 0.3072306298237483
Ni 1.2183793092067692 4.664394297453867 7.174514622076525 0.570219773330618 0.20716098079365614 -0.9150072783622177
Ni 1.5608686329790435 1.7923459656233127 1.4884884069719988 -0.23186259730539424 -0.8404247178596365 0.10484290204901943
Ni 2.1877091756358 7.853426442989551 12.673566541688098 0.37917318160032115 -0.36176861297062857 -1.6240082583605127
Ni 8.665209737604842 7.725352081209795 4.887434978276144 0.23847676018780217 -0.14675008380576662 1.0101272966965185
Ni 2.6047594835978223 5.229259787124067 13.099387149132873 -0.4792896247079488 0.9015814918746149 -1.5164518140350722
Ni 1.739295987562142 2.0491527165137695 7.85634122602593 -0.5598625984660099 1.4214181847669907 -0.5752863892202479
Ni 2.5204671093025133 6.670682557550287 8.656900057253752 1.3091013429384293 -0.5491182154653124 -0.6359675091503886
Ni 5.287926167474733 7.034488259649027 7.774695789839334 -0.2860591379524557 0.7061583683431775 0.05926907007396245
P 2.5419225074876306 0.9691630425986495 5.956084338921585 1.265214411747492 1.716328088241857 -0.26718724074861727
Ni 8.350292685798323 5.406510106903922 2.307305179635967 0.7869457721048899 -0.565775107295703 0.6116369028248241
P 6.797274040837766 8.177815381165482 12.46846869062236 -0.22795014962486548 -0.4067096964576931 -0.195859696848224
Ni 2.7022124045120792 3.038964842117361 11.208286109919277 0.9303156265845138 1.5512666077214123 1.6425266288796745
P 9.167868474524068 7.634776009303468 2.691632066469691 -0.21232118483835694 0.0943124348313408 -0.38629462313645085
P 4.179465226507915 8.077674742983975 3.6560637998789227 0.2638329795644037 0.553814335389401 -1.383567175357488
P 8.513066404297334 5.811048627587366 6.916637418274457 2.7925810729228546 -0.3803656592465256 1.545057650697223
Ni 4.70068774855232 5.144457673347039 0.5177952191291321 0.08452193110348023 0.8139829787283399 0.6697122097010014
Ni 2.3712153890549437 5.176385900883854 1.9293398415341072 0.16901532296187022 -0.42190208792741535 1.6683608163339587
Ni 3.886976711897069 3.4414458688927727 3.388393110434429 -0.3322019550571053 0.1436588464749526 0.48570118466124745
Ni 6.069597760706247 4.606608376207991 12.233691953332777 0.6290196170776458 -0.005350722788952075 -0.6595753783773157
Ni 1.7893987446199142 1.1692404231689764 12.43086752605353 -0.47293591457577905 -0.7942829291962514 -0.6517638527526969
Ni 4.417763800216654 4.38608580842541 10.580976606939336 0.21059905994092765 0.9037417327507274 0.25906718274464413
Ni 6.2660698929422285 8.927669962747101 5.606496661166597 1.628339795856331 -0.15687971604060078 -1.7459196858560446
Ni 3.9733173121098337 3.3096828468634816 8.605381151235855 -0.6740038950978199 -0.7577760925194691 0.6269125980369719
Ni 6.7787102557125865 2.1997297594138114 10.991102799141489 -0.8846731461550504 1.9434709114740787 0.40926640144127585
Ni 7.006239424371171 2.833289595238693 13.531258827625194 0.034903496745404404 -0.13675851981069348 -1.1665035907381394
Ni 7.35748699923845 0.33127042117914934 0.5246544589549659 -1.550960389334903 -0.8481740227877521 0.051298393163660035
Ni 8.101363726898082 1.4974477734625182 6.229914534903369 -1.5264084110271516 0.29009217037124874 -0.3159754658959139
Ni 4.559758683842649 8.943110435047924 6.886619323595504 -1.3510098102467574 2.351446362018073 1.1458211226881234
Ni 9.159026811513874 5.291086552261397 4.77989477641818 -1.380327842484584 0.4562268293512143 0.9705479917419996
Ni 3.179319291411276 1.4122007961378071 9.579091996810504 2.2153735554204945 -1.7121305052207418 0.6124758537863516
Ni 1.3862596905135556 4.219901469394164 9.46425325237337 4.054559494231553 0.1376874593828661 0.4752843602032977
Ni 5.465686226736307 3.276614656485729 1.6045069666095506 -0.11522321684207898 -1.1660857864744305 1.094074586243451
Ni 4.805916513560449 6.919982236073597 12.656176084169934 -0.0953529602807132 0.9182658945088314 -1.3303664229647927
Ni 5.025716178078046 8.248400397397814 1.1272230610903384 1.2153566076851003 0.23543205982420742 0.6271938767228166
Ni 3.278218018855502 3.455727842371505 6.511285168018376 -0.7407972985732856 -0.9840686519362536 -0.799458816970236
Ni 4.139223611423778 5.863347898411822 3.1693107883874716 1.7521643812141758 0.930889496810113 0.22340135391191845
Ni 6.467963799665593 0.08140354163254362 3.1541863545653146 -0.8661192944122631 0.7961325808104806 -1.0265350486305804
Ni 1.0498872405219193 5.643483357960188 11.33606574959869 -1.162415793822011 0.563365726523262 -0.0023489598481507934
Ni 3.1863351602778565 3.3648551947667222 0.7027963594283012 0.11480335569584099 -1.7991970571229465 0.3612723900605004
Ni 5.214291982342657 6.680274927797196 10.009090614407269 -0.026891425074205298 -1.2119594090780934 2.1388886356888777
P 6.254800016400932 5.334738787877768 1.9333000539075413 -0.03381926254229014 1.2967163390105152 0.48469691176644913
Ni 8.550407138330957 8.246759963065735 9.759406314275024 0.011773852706476497 0.32436060463581556 0.08126408628781488
P 5.359465786736469 1.2739316447236555 0.6707754519857184 -0.41726484626572014 -0.5948699677791304 0.33057007588063714
Ni 9.170120596234213 0.4501657650917163 3.5725193524231558 -0.6237257156685581 0.44972168124284484 -0.7762337850040245
P 6.903160833176842 4.596432122554747 9.933806726952534 0.11838953038520256 -0.7078020745941874 0.8229517578858536
P 6.650283710290917 1.908260723766405 4.1493961578807905 0.2453614031227774 0.3486598435028124 1.217849035089651
P 1.31370059228838 3.2441118135331566 12.959997497657998 -0.019330067787179616 -0.20670281021031497 -1.7572623645623737
Ni 8.623633531877656 2.975998114139095 4.114535538125499 1.586008639188288 -0.5924081365021991 0.6174344833432076
