# total energy = -340870.5671175746 ev
CRYSTAL
PRIMVEC
9.25364769754765 0.00000000000000 0.00000000000000

0.00000000000000 9.25364769754765 0.00000000000000

0.00000000000000 0.00000000000000 13.54364877840533

PRIMCOORD
 96 1
Ni 1.1876131532192662 5.4194635848132755 10.634473374609504 -0.540729734291301 -0.7847109692371002 0.821430693255637
Ni 3.3243081814083593 6.036172939623141 6.022670942179925 0.2319055347281877 0.6876844779087059 0.8188310508492609
Ni 8.61920841375565 1.5589990523255624 9.167533311636339 -0.8179301363015462 -1.6275746355555325 1.0984063808495856
Ni 8.18816424755566 2.7772047650316827 2.1966309047155166 0.7744903199503566 0.9896908832190375 -1.403221716363622
Ni 0.6912373084853564 5.947319413854 5.610077624243952 0.5947511828130789 0.6340936891664435 0.30885171036693904
Ni 3.408442346821088 3.538345054043248 0.31092163929290967 -0.6316598829139702 0.10662416231915832 1.49643654725541
Ni 8.500678439627665 3.6859222284825566 10.722370998565278 0.5188527317125515 -1.5782742466585078 -0.08930521142473652
Ni 5.362488875569306 7.586020134316367 4.9843200526566385 -0.8625076658016049 -0.8218538968359845 0.17722665512806896
Ni 2.0415952901835266 0.023358057669908613 2.8055671954089387 0.9066303671524322 -1.2751059598295913 -1.2275431224489635
Ni 3.2409050541684867 7.892686021005525 12.65574117676376 -0.3107874939370712 0.6477943265819875 -0.1875195524136448
Ni 6.924884016621934 2.13996156584755 11.874976676952505 1.2616860868792594 -0.002474172572105416 -1.5075447413534295
Ni 5.409108752972443 0.5409488152530508 12.909372557424163 -0.22379833224002102 0.25593120821882376 0.6709586805135929
Ni 2.782682924504223 6.080053737290007 9.183853044821765 2.0556681970056405 -0.834031412738783 1.6969280864486904e-05
Ni 7.297981840563398 3.110872795877719 5.7958011108347005 -1.5698417996204383 1.5601160876922422 -0.03929879759962264
Ni 2.6380854246428838 1.758294864082484 9.193455555099897 0.41981718037392857 -0.6972656938392379 -0.4379732824576651
Ni 2.884843195748891 2.464838631323801 5.521271292078376 0.949246916271378 -1.0541782642691457 -0.4224368773849628
Ni 0.7892380650629521 3.3308597640207895 5.865402422444009 -0.8571024356256336 0.8570335300609112 1.432181593931082
Ni 2.8450525103909134 5.614049289861544 12.571620891822667 -0.11143803876803389 -0.654453226659402 -1.0107798426788528
Ni 6.180974019735148 6.144237038137201 9.610993097032793 0.4813521636639323 -0.038584288031101296 0.7050088281197665
Ni 3.905252187634832 8.956207757794447 1.3048651985919169 -0.6521788288029284 -1.7674760718705818 -2.3528350148354833
Ni 0.7290051464435076 6.6997335130300835 8.177790908419313 -0.49359524269734345 -0.9421375589201064 -0.14083988896891872
Ni 7.416548829282413 6.7323433677281095 7.715275086195491 0.9534172455989839 -0.6824674524841408 -2.1997980695797406
Ni 9.173946089532404 7.178582023546192 2.2147662035909965 0.32918476549733633 -0.5604308122646542 -0.33457276928212704
Ni 3.459772330932879 1.013727858204904 11.35452099002359 -0.09685859829196222 -0.855297778316727 0.17124806894713088
P 1.2632154553994235 4.240197221871427 13.301176630307756 -0.3815810197108654 -0.5695839395188319 0.20939604077176197
P 0.767982436163586 7.889882165734951 4.112014767767417 -0.24310114633369104 0.12158901115910672 0.03664850446096914
P 8.719342136141387 5.21831704350482 9.149452609282628 -0.3481325102444327 0.44670577723465643 0.4646813878764706
P 3.3704098545370678 1.3817546831751661 -0.009323050115851727 0.1317160722907796 0.2922524112473612 -0.08005181114726859
P 8.23087908560506 9.019104801603325 7.645606222957551 -0.3133056323732346 -0.8994929847767025 -0.03314717617593001
P 8.798072171263637 0.15948846983298032 0.5373898623254513 -0.02460468592255763 -0.6489811478012371 0.15635418255443395
P 1.0487529149676822 2.6484957783702616 3.391262024394199 -1.358681467859402 -0.5096255566873288 0.8205583179530127
P 7.887855616876021 5.469257463397293 5.885230213494367 -0.6134168775433823 -0.8805519248978253 -0.10064069104221376
Ni 0.8642694171764614 3.1640720168365593 8.6082891094016 1.2011993423481118 1.7848014505229066 -0.5097829082007994
Ni 4.939504636566246 3.2240078933629825 12.158675009907126 0.42476989639351365 -0.2865512470975259 -0.198145150448291
Ni 3.5573150319464704 4.513485201098672 2.433807448933233 1.8999349358646571 2.4374420494536024 -0.22688597002640923
Ni 8.900907958794615 4.449486973206631 4.107463823800196 0.039778051228886335 -0.77805644003506 -0.2724999112107823
Ni 7.63376895674594 6.951367956504382 0.4409973897281384 -0.9853454617661481 -0.12222818740500241 0.6095067438556987
Ni 5.157992513772575 3.3404002748589465 3.968086306638958 -0.03173255521659051 -0.43906060198457286 1.5026694155389992
Ni 9.210636802891562 1.48504389944627 6.80836486015169 -0.11872480223743424 -0.9521849158537794 0.16765778049271127
Ni 1.5662539121675747 0.04044676898399634 13.285479667616421 -0.565193009539988 0.39226703866980184 0.13933116563387618
Ni 9.051076154606072 2.222809474221963 13.12997211704879 -0.3724060380798167 0.4661731419306488 -1.0046508469629793
Ni 4.414739525876583 7.426515007917423 10.627701555180442 0.14195523352028455 0.19305539463020946 -0.024332148987461322
Ni 6.591965531244268 1.5619602196080162 7.57592440461275 0.37873249451847674 0.9048838167749705 0.49844537170079317
Ni 1.2141618686360192 0.7567836716472547 4.691899231325637 -0.2628024814173603 1.3918402139995578 1.6601183738195084
Ni 1.2131254600871602 4.42630658557367 2.149024588461412 -0.9545277050543431 0.44808440274973793 -1.5779605720728307
Ni 8.410779251661909 1.8782869145561805 4.449914491733035 1.324348756015803 -0.028784014111227847 0.979066827846288
Ni 3.1569929763019426 7.909583181811029 7.774352224210002 0.5725543350010656 0.12434111998294715 -0.39953734707896993
Ni 6.299846378830166 8.754894650826353 1.7271535632835997 1.2365921200251089 1.218667160115572 0.1722068333159744
Ni 5.33138736545578 4.116207595566417 8.669776822656985 0.7413079196611169 -0.8490291716991958 1.503045053710863
Ni 3.0799378514238307 2.4600822563763587 3.1075359304963035 -0.592925699568566 -1.3417656659406698 0.026042703920664826
Ni 4.696577875631915 0.3915347917338449 7.056282113321733 -1.2060152756795164 0.3088905340246745 -0.5223612590864424
Ni 8.29754236405131 4.641083750029172 13.308490713495416 0.16383994940851782 -0.7300603717717555 1.7649576763241022
Ni 3.439432813161522 3.548116906075347 7.569762400570918 -1.4415427234310076 0.5250136091076248 0.18973121535298293
Ni 4.790965082760141 1.6632599016112213 1.8733167803455364 2.0748486265888335 1.5254874418747792 -0.18621266067676318
Ni 4.712873549333169 1.0820567932475336 4.435166027936862 1.2217427137171024 -0.01666409091924227 0.5043918190922152
Ni 0.2989187327864369 7.112760827045891 12.830128944851364 2.0385575054672826 0.8216744338353269 -0.12919356297924203
P 4.498966227766888 5.516895242053774 4.342554595813334 -0.648980890690921 -0.33349984793292237 -1.1090432917381416
P 5.177082789096645 6.806733442052013 7.796848767273672 -0.9882598071994658 -0.12138075180304257 -0.49958128507744926
P 3.9736736591550383 6.084634292930053 0.7779569430815776 -0.14999584443657393 0.02494638553269252 1.0249615334958737
P 2.3137820853276088 1.0259611805405429 7.0271488540862626 -0.6624701834266075 -0.9907699752158292 0.11788328017274537
P 6.988947020048277 7.581920768359719 11.269642831331144 -1.673317389008286 0.09539564059319056 1.5263593029567712
P 4.026484226908057 -0.01511675897692842 9.394727946017857 0.929292070416006 0.5147744478781199 -0.26559804188462643
P 6.879726215564507 1.4106630787701246 3.190314436512533 -3.1434366385254053 -1.2368893395505536 -0.5266097499501511
P 8.084838016693526 5.135478388778165 2.2734500615758075 -0.5250148946592055 1.4547543370252753 -1.0862951994083487
Ni 5.3634975231748925 7.321365808447028 13.211436605083431 1.0736952512561508 0.25422116750625245 0.29818780289518965
Ni 6.604346911944028 5.173316554459275 4.07107200326361 1.0546338637493258 1.2512170690271356 0.35731880472939104
Ni 8.280182520857922 7.831260307190116 9.618658818835247 1.04643692976083 0.47906619584323307 0.4244045426342949
Ni 7.388315949973764 7.638904731251446 3.7008159745485254 0.3778868586887299 0.19500840459152224 0.4027972487771644
Ni 2.169480702194515 4.44254673738838 4.4497247919540035 1.1971028036812352 -0.4244256256802174 -0.38105240090090503
Ni 0.7717162830338055 9.091403551533993 10.932731396946044 1.904483474467288 0.33699114891563253 -0.6489605789759468
Ni 5.402436872939164 6.743910427425196 2.4888620262674856 -0.9080899824170943 -0.8789197886110411 -0.3279231251760933
Ni 2.094563169948425 7.334792851343406 1.2399064420626307 0.49311084686175716 -1.0875568397295914 -0.6702976498908263
Ni 5.742758276522965 5.028052791959384 6.553027106844771 0.04641638248101038 0.31136342104519926 -0.9087319868764673
Ni 7.906594253585302 3.5753503914261673 7.90223115866756 -0.40372875945249825 1.1653933883930963 1.0958563607342224
Ni 5.933855356366591 5.419500599404306 11.916677315207664 -0.5264523984366805 0.042202344399662806 0.2952189500748528
Ni 6.240817359783994 8.647358010234479 8.639886615034937 -0.8530778878472728 -0.6378834952261789 -0.8660516743991215
Ni 2.687675722976233 3.2626973946377977 11.650829268777587 -1.685052418057027 0.4187110917939434 -1.3073427083761096
Ni 8.150631452250554 0.18079036697113487 11.929137351913369 -1.6750657391579604 -1.1723942451909615 1.0542751948583262
Ni 0.9919447713833508 8.191245712258963 6.300925354158711 -0.4537904519955798 0.5203108043153168 -0.5490457103561641
Ni 1.1062828430771114 8.875691768654967 8.49326256631467 -0.2494965083370735 2.700018273792769 1.1422737716564972
Ni 1.3911378820014426 1.8880865275315522 1.2033434290425282 0.6684248583481456 0.7248194350877903 1.2870585042057772
Ni 6.085939057263885 4.080701349120241 1.9610931815156833 0.2615004747764851 0.10327555756189956 -1.8145447432236104
Ni 2.3955010486755857 6.471260949893231 3.5369107386408096 0.10488455392023226 1.7718145513449355 -0.25768547190576907
Ni 6.860709969422497 9.214523334949783 5.6902688103471375 1.0373215977231232 0.7181780185118728 0.1890791835912808
Ni 8.281875938397576 5.811892278920511 11.444437759920083 -1.315674882390889 1.5391343432342526 -1.618824400166728
Ni 3.1924807154526036 8.64338819534644 5.3311319647776685 -0.5012836124805367 -0.22277709006435825 -0.4666603659797124
Ni 6.017323259140768 0.6023726783389075 10.533898253225725 -0.7231394762822062 -0.510405629386463 -0.13908459684070884
Ni 8.802217805459073 0.39756631934229375 2.740598259867119 -0.038224333588521266 -1.250548325094885 -1.315666654860773
P 4.309136897666063 8.632107998729841 3.26652470335037 -0.07123215597310958 -0.847439972835205 1.384872267322157
P 0.9855412471350437 2.0331189488375014 10.690705941303307 0.23037624256785486 0.2293809685341211 0.13659474053931958
P 2.0793316657393017 7.391452936563615 10.874277029425622 0.11898371232577573 -0.24539277058134512 0.2820281624161917
P 4.123564245533764 4.7269668548681 10.553738999382944 0.8230587157773632 -0.012061816260540516 0.13251799936678468
P 1.8492212069493414 5.08912686716 7.332410037045807 -0.34681636253617043 -1.5004114727427578 -0.36973414767460844
P 4.985828397241139 2.78047130269014 6.254294372378263 1.482646178339537 -0.5587516247900184 0.1822179376950733
P 6.720776308031024 2.6297663953087396 9.770848936681753 -0.8184209598950357 0.10649123628571981 -1.0823668108882198
P 6.846551888353263 2.9209139147082857 0.12395816390263364 -0.5756468578834603 1.1608399646944587 2.3908598308186884
