# total energy = -340875.5355501393 ev
CRYSTAL
PRIMVEC
9.20455606707566 0.00000000000000 0.00000000000000

0.00000000000000 9.20455606707566 0.00000000000000

0.00000000000000 0.00000000000000 13.47179821494944

PRIMCOORD
 96 1
Ni 3.3700916975728017 2.0524318942154447 4.841225506108112 -1.2779920231281345 -0.6110398926707734 0.11036203209503574
Ni 9.071071517111545 6.470959337051122 12.24725175413969 -0.23885805478662092 -0.5002058060353256 0.7046316472860058
Ni 5.575199561962036 6.994210731303814 0.6164677736548749 0.37079935571432915 0.8174632239674565 -0.13253728264049433
Ni 6.329052697383351 4.645115997593511 2.0584903329667794 0.03185159729295805 -1.0285603065907254 -0.9217916482739028
Ni 1.4845199943087322 5.329861326656544 5.342780841441372 0.5944747892232406 -1.308520787844611 0.26281559404348287
Ni 2.9930638797462756 1.1652691744191972 11.041890295203341 0.0006895698678568769 -0.08012791580084265 0.9719831815266291
Ni 6.037719295805573 4.393813210007762 5.999745900076872 1.197214132448119 0.8952673767311292 0.19696424276631241
Ni 6.60300789725569 2.997113884381018 0.31515295156365486 -0.2044312405673189 -1.3557810063831555 0.3286720875269759
Ni 0.35605523700775377 7.0730293442294885 4.284220084591641 1.012459544374121 -0.32692116627414014 -1.7091747650265277
Ni 4.654615099373178 6.331970541631563 12.143990442787747 -1.8152751936317317 -1.907533574147521 -1.7825630481106913
Ni 7.185416972843583 6.708538131658687 2.3627644198081574 1.0203726285736103 2.1099097319580244 0.7723645318566053
Ni 3.981154555951494 4.606594930783521 2.1305785745539914 -0.9774701727831295 0.32095646405027306 1.2631958386555666
Ni 1.1468140396631565 2.8470704172198107 10.56967632299319 -0.07684461706388056 -0.4356168664103465 -0.13030093711080784
Ni 4.926738592603896 3.0138109489433407 8.23260273940328 0.22410609328842693 1.5415977171730806 0.35707326437748826
Ni 0.610783960332254 8.289742782065899 13.465708534880237 1.9456512069548495 -0.46642690981266766 -1.2102457688210964
Ni 8.019193267909138 9.021762710683559 11.218209087888036 -0.17255367513243186 -0.03883599903059118 0.8150497294299577
Ni 3.767305106681122 8.975960840087021 5.794395937805865 -0.7100654167070675 -0.47821901735158934 -0.7272074757039927
Ni 3.616608116044764 0.3111636969984339 3.181068776713399 -1.571942648013525 -0.710488620287415 0.23859683070543425
Ni 4.243778947402544 5.155849195702454 9.719040042724323 2.2502515982446023 -0.6192864489502818 0.32772823555646785
Ni 7.450305685067692 5.760745001569153 10.479792913314283 0.5656239264298195 1.7304598996575489 0.12504225981502978
Ni 5.730369966808587 2.8802160233327796 4.0878151098298225 0.13494846318514822 0.09799142634482479 -0.24181276653957062
Ni 5.657865679290715 1.3227775364867131 9.839895862847424 -1.4441197401295647 0.18628979377160174 1.4316943698820181
Ni 0.8317015881458492 5.629966670090935 7.7864569902068865 -0.24684621519842004 0.5529985243563251 -0.46261859181017095
Ni 5.297516516914536 3.3373418873673186 11.811601039680871 -0.9997588089780008 -0.2907442021329509 -0.3765084902839645
P 2.6658695280390536 6.7339611152976815 6.680570088288996 -0.5494658286127181 1.440303708817584 0.1483428822141832
P 1.9378167630522427 3.219707661840037 6.632866556425327 0.3213963798011691 0.1818106749543256 -0.48762616959810207
P 5.977825249991329 5.532996672756825 3.902456522709263 0.11490748537387306 -0.4170709850873591 0.7636070973789495
P 4.862868178602815 2.6298428959018247 6.195922601850187 0.39139337781559685 -1.2777097160010253 -0.9147553102524116
P 8.645443643668113 4.461116923392385 0.2679943294144782 1.2564973435894684 -0.4021768415843461 -0.1882266057829984
P 2.1594440621325166 6.129856901245955 2.5071286759247373 0.36600887630422124 0.05499846772306657 -0.3476481144088464
P 2.169762369395121 6.686152651495749 11.753645473357711 0.628228488634918 -0.5457259019543117 0.9955979927320918
P 1.6937211428051382 -0.18824605633401087 4.960908665798335 1.6558572845503097 -0.9344509889091261 -0.6955857350336536
Ni 4.814617896113456 1.882175222104479 2.003902713679647 0.12246807132995037 1.2909007607700025 -0.27005890586945747
Ni 7.09955687458705 1.0784518023399075 2.375023967928642 0.24965103163706684 -0.8681916035602596 -0.7141221032749443
Ni 8.294970969867112 3.2552096342859467 2.041530018103198 0.701716787632056 -1.0868796111569088 -0.4488835016122656
Ni 4.873296940537276 6.721811101393455 5.295615776103004 0.5855224651259593 0.28632936089470684 -0.77708482015041
Ni 2.7217595919984943 4.448009635665402 11.640859287469334 0.18396345963127025 0.2271119699942863 -0.5747508284317521
Ni 2.840535182468295 6.877193211027731 9.316071945212274 -0.4486497883349047 -0.5042043856717575 0.3379326868932954
Ni 6.965943539864512 1.1538371158820389 5.717821395630078 -0.3308192157769657 0.6400265097111106 -0.49095549108165115
Ni 7.4978472167459715 7.565473089590176 5.0197938922762875 -0.762474783546719 -1.9225966391282308 0.11655093451456701
Ni 3.5379183669029217 4.322155741640791 4.5405209460789 0.3029955086964782 0.19242341747316535 -1.775106591832646
Ni 2.4363079016970803 8.659103204754379 7.8751824667424986 0.3055190464492803 -0.675137751591947 -0.9230435184031328
Ni 0.23900550078571275 6.269269106240964 1.373288457926738 -0.483373050748703 0.44313554338489486 0.0961551444670344
Ni 0.5932640084645991 1.2350305042526302 2.4970782212413853 0.1381965378088007 0.6123318720093197 -0.3630757618178263
Ni 2.166255433563674 0.8588495055770046 0.5340345315926933 0.5670981969825007 1.7455892990998196 -0.6980141419694883
Ni 7.560990470823996 8.414565765819848 0.3965562038107736 -2.8023278678969734 -0.6757021087358492 -1.7818703929190407
Ni 4.705672771438893 8.616274405741981 11.503609232675919 0.47930762243007774 1.043633398873764 -1.396519364642782
Ni 2.8850208015585417 1.5893967052365767 8.725413746547892 0.8421936368346011 1.0810002695579963 -0.8257020669374813
Ni 2.6501573509674516 5.573726833003947 0.25826419327951033 0.036905871887413864 1.3391074023822165 -0.06041938162832176
Ni 1.2252828794612851 3.047011782392238 13.115913316399956 -1.1599074255778603 0.27657870926584627 -0.3141690088147944
Ni 6.533660772441721 3.783726034563804 9.853111764335065 -0.8182363546880552 -0.7616895686412625 -0.4384494507631352
Ni 3.4241132366666687 8.064893888389808 -0.161562968980252 -1.5070886276526174 -0.13961064454750796 0.7922898100256226
Ni 5.6562548819928065 8.870145264448395 4.125751687334572 0.350596398403893 0.4233704449428257 -0.11433104404511277
Ni 0.755232898363924 0.7606037567829513 8.777294305918938 -1.3793099427430309 -0.9501938535656796 1.8684684898252595
Ni 7.984234364266523 1.7592483768840679 9.66187975003853 0.2869826782079896 1.2734748519840713 -0.10118036559576768
Ni 4.711140277695795 6.97841571322832 2.719093952584355 -0.6225856885268439 -0.06885594243144916 1.10518946520969
P 2.6706651017088276 2.460313383713915 2.4988970415046245 0.32703866568861095 -0.5158980199596018 -0.39897093305253867
P 4.005684697659647 8.686201417583199 9.344686148412325 1.209203186489195 1.696623153613762 0.7235606229800248
P 5.35830340465962 8.963672757842973 1.8914267213280684 0.035995187147686396 -0.5430882072211485 -1.0458021243903084
P 6.509259494517399 7.400278923272639 11.949538674806593 1.1507951788639472 -0.49323040315875694 -0.1253227671699261
P 8.691788583067945 5.471040806401259 6.055640566314307 -1.2469058432462912 0.5157740927872279 -0.9705266515857609
P 6.0938394736647155 8.33538817521064 6.30525984060984 0.3499183985002619 0.7033718067369756 0.2564731967652228
P 4.926683365267968 4.730884050290162 0.1780013855193109 0.10832186173655539 -0.0038335148134772683 -0.21899731130695185
P 6.551793747738179 1.377903622299146 12.020400869536198 -0.45168754671996403 0.6137374941075946 0.12571768861549962
Ni 7.718323946327739 6.736372708966551 7.71944782261388 -0.9694527017952919 0.2173374071060257 0.1775513854573394
Ni 4.507102885108685 1.0917247720746759 13.1956799985924 1.1109189114942997 -0.2273521110295504 -0.2514937412727604
Ni 5.1624304532339105 0.7170330705579168 7.435974191394298 -0.6659851385584014 0.529398882659514 0.42741093356078647
Ni 6.919239622781145 5.23848769936317 12.837815145877396 -0.40962429900132685 0.8054515442185612 -0.44224876990456735
Ni 1.0907951119198829 1.0103196789163595 6.591212258757005 0.5835730547090723 1.0109814171666975 -1.1569424294122654
Ni 1.8474740460295296 8.368892759007142 1.996533546155614 -0.2649930613107759 -2.011146203333865 1.0366366558409565
Ni 2.818775612112544 7.2191516705397865 4.178398986219422 -0.18422391238150854 0.44943474613004536 0.8156716792846727
Ni 1.1918887503366387 3.1535821316218837 3.980781771433978 -0.5150932646701194 0.0036211416923550535 0.7818704144645114
Ni 1.3571565531020808 4.2142967545728185 1.8532075639544863 0.3090244884993774 -0.6742669189512195 -0.007328158230297056
Ni 5.56975046481711 7.043768060743477 9.766690188163262 0.9568483827677198 1.0287400267016993 1.1832414723181106
Ni 4.823021655730545 7.289364023616634 7.6281634795135895 -1.184213863533709 -0.11390886890602965 -0.005837175507067366
Ni 0.7956326150510755 6.019162910933663 10.106246258562434 -0.945013852026637 -0.8307082619028209 -0.11100532210598947
Ni 7.024926334635938 9.00744962612214 8.671378400620043 0.4505626890869015 -0.950396456494789 -0.2738332853102252
Ni 2.2709480533717574 4.421684605539578 8.917603034667183 -0.024885707498086176 -2.059471372801814 -0.39555676516466715
Ni 3.846409060842426 5.052887032420124 6.570491882772304 -0.4151863664701366 -1.1661225532496369 3.1236489143755173
Ni 8.429375896404622 5.001866178578362 3.536629729064595 0.04352800518962181 0.060818931059585586 1.8095190078742451
Ni 7.944930910197549 4.231813024618078 7.764834567735357 -0.8421458143158013 0.1441913219396549 1.0372388082013297
Ni 8.120894407021105 3.18924058151959 11.835149975720698 -0.03483921916637226 -0.2591990803368181 0.21998821446531147
Ni 8.869721854872944 1.1376555064550467 0.18979518310679971 -1.0855917455834205 2.184971031869237 -0.06432720132316018
Ni 3.455040544786517 3.1826869376560984 0.3446581557833499 -0.17500007979039536 -1.1434225405489598 -0.4557000103134668
Ni 8.977249477925348 2.9805548881585153 6.082840029258994 -0.33564311952817033 -0.0451529423875545 -1.0514361827476342
Ni 1.1816716931899027 8.351431716297812 10.700689370649103 0.9177686431574388 0.8589315184145724 0.5975788820698611
Ni 0.5307917665181032 7.710776210417539 6.6436708642441005 0.03722880244447137 0.3900957420500959 -0.476006840191619
Ni 8.96713367089448 9.310500427472705 4.393301436694827 -1.8290732758570885 1.6588539052847882 -0.4707952140836924
P 8.697946431023952 4.1033910594728 9.899306669472294 1.1750008295758732 -0.3676243004204572 -0.7044532127266125
P 8.80932155847936 7.900555745779157 9.345453808381729 -0.24165181548167414 -0.5666983904409209 -0.8689220539683811
P 0.9140133300689885 1.0457019921344246 11.903438576596043 0.3418345930508629 0.228641005044303 0.12211865841033163
P 8.714256904234777 8.498419270870986 2.024514475903688 1.9450742514054566 -0.03710693215462642 2.175265631656015
P 3.7330825675175516 3.1402815482191513 10.094876791005996 -0.26066538046969945 -1.2820613081015018 0.9729159777535438
P 5.911193469193834 5.355854992766798 8.233127399094599 0.10312771913012561 -0.6707295952219222 -0.006740146937310973
P 7.861491610165873 2.2843590914463467 3.952127068187578 1.54372427659778 0.3438541945840529 1.284039771984111
P 8.211430419719568 1.2396972141385716 7.426531237406158 0.7469358073708555 1.100032346488783 0.8978302523622989
