# total energy = -340896.11875981634 ev
CRYSTAL
PRIMVEC
9.01123397789057 0.00000000000000 0.00000000000000
0.00000000000000 9.01123397789057 0.00000000000000
0.00000000000000 0.00000000000000 13.18885179613872
PRIMCOORD
 96 1
Ni 6.246542210685349 2.104853001123918 11.49728901959487 0.8001170193795253 0.020621790015409647 -0.5534021875526469
Ni 4.621438285585749 0.10152867004749133 6.036115483592626 -0.7467452886266043 0.8369645272251779 -0.09920704391948076
Ni 2.7774154466648002 1.4808611057393328 4.8752324764414015 0.5827014507373964 0.7366935608175571 -0.44329623733247525
Ni 3.454114048517693 4.368375806914268 4.8862847546912525 -0.4523616899688532 -0.28113676095017387 -0.09443250534897285
Ni 4.948428926313306 4.4945420912813026 2.5956183104629065 0.43994300458952623 0.13091414521477454 -0.3195451855250432
Ni 7.190261692358535 6.221499991968401 2.537824762517191 0.20703962472444343 -0.46961970571835254 -0.935968196884601
Ni 5.243492765704359 4.564234973453621 11.38092335310353 -1.11277113421169 -0.06520831837653286 0.5200986883045108
Ni 5.444335144532475 8.048581711354315 12.45511648889787 1.372685495447978 -0.5133472285132901 0.4524421654978015
Ni 1.6310513394044526 6.761948738837398 0.40540189159676254 1.3076232157310061 -0.5906798409571827 0.0855107773793108
Ni 2.7274030991012665 1.6312045303789717 0.4682056855326269 -0.04965905778802416 0.2643988793702027 -0.44716137671483636
Ni 0.4260736619230231 -0.023683324660626854 4.69825094357968 0.6472528522562208 0.6612445385496225 0.15943539258291897
Ni 8.517841711240983 2.2621170533182946 1.3654947850758843 0.5266380320849253 1.2156142322218613 -0.16848670415190983
Ni 6.831308205359292 0.45156013446607574 4.8107255593182385 0.6242083117319314 1.479229182238188 0.040793379867278136
Ni 0.8162042156070072 7.3877969483838 2.5507108268443717 0.4626520161512678 -0.06921718242560983 0.4062119308856682
Ni 7.674534407748059 3.9296458671258434 3.8274575747645407 -0.12147536839937786 -0.28618357934546196 -0.4148122709601695
Ni 7.656818322106635 3.8602593669025627 12.680935304436229 -0.125620500916003 -0.4947908056673414 -0.2499690770981179
Ni 7.881558492959703 8.460917747356508 7.227978211408476 -0.5501443427369815 0.8751808903938991 -1.1136419668524178
Ni 6.9208258018811195 0.7793951278002464 0.3156923557950966 -0.6405031922372131 0.5700148564086635 -0.21144135333656489
Ni 1.7171536783178876 6.291661458298072 9.235189988744166 1.1681452401066206 1.438420375751942 -0.45604119570296947
Ni 0.0864060174923342 4.723490508316743 1.3607467659891768 0.3345789399297141 0.628142356679015 1.0300618308369163
Ni 6.373168067975938 1.9053442848974975 6.990407845877757 -0.919232629297475 -0.013627360975447499 -0.4611504919050768
Ni 3.3705799112358994 4.3733409967354415 0.26090855993698797 -0.17721765626700448 0.3532754878979529 -0.09332281722456186
Ni 5.971834748437724 5.522615732511649 4.846032474451335 -0.002478800557795731 0.4858665065945181 -0.46243218683097775
Ni 5.178882219392551 2.806909214876592 9.213626106272176 0.1883685306775014 -0.1480286934078741 0.05695404878754062
P 0.27647276294811146 5.53438440384822 12.368373451261593 -0.7233423363216317 -0.7449416597589621 0.7231991258755479
P 4.150321971537262 6.124142622044722 12.553689474260525 -0.6613121585627644 0.975269822697701 -0.26766623726756483
P 2.468023745539329 8.544794311522521 1.3764542476176445 -0.2562217428760491 -0.020871701242686634 0.41291942481283084
P 6.2511289286871214 7.687114090126203 5.884153641363364 0.33800133534770177 -1.2525566137741653 0.43767323471874303
P 4.635612956345648 1.1957006122892389 12.731831654035073 0.6506729336813633 -0.10272071349969407 -0.3933075641191743
P 4.049936827058386 6.001382584052287 8.173791002692294 -1.8367495614554237 0.5299400998749647 0.3082292462915917
P 4.89946188187002 1.0391484475646857 3.8572775496397202 -0.6151971093722566 -0.3261272096179351 0.33425343826949533
P 0.1624833588085743 5.591993221501134 3.5434748495714836 0.6499918484539386 -0.009024314985797362 -0.25119369353383836
Ni 1.2673489321951228 1.1065344538854254 2.4428130167504105 1.136668252544262 0.55611958648381 1.4374940072829308
Ni 1.9246914038558591 6.458630609289912 4.721054771821892 0.0013279747828041646 0.37625729350510684 -0.028817695562640692
Ni 6.004518493413027 5.345517954733968 9.02172827810921 -0.28172168691936644 -0.09508993642731366 1.0204649311771006
Ni 8.723604223721296 2.039981129032048 10.040395993504093 -0.5152907253929061 1.3856327996372653 -0.04388667408062119
Ni 2.2306227912039613 5.136709645230869 6.962289191943118 0.5901411948448934 0.03703494126611041 0.27028619138891513
Ni 0.4703098086238135 -0.17675805426360017 9.088846650786229 0.5814765771913598 0.296786808782605 -0.026365634477722333
Ni 1.5690450396594662 1.2158226973539903 11.33420911710905 -0.03699508916711048 -0.7768837598831976 0.704561970390335
Ni 4.242002264169945 6.977389316413786 1.5123526644835275 0.09059719076328268 -0.17853508952684738 -0.19793123466527202
Ni 5.61444921611885 7.500058899004792 8.263118462181042 -0.5006997149526087 1.5876693147201626 -0.7815230584274218
Ni 5.349113437018266 2.986097598894766 4.691854769831825 0.5418504781593055 -0.37050856394678766 0.729409625561634
Ni 0.9288509459110549 7.32488952525929 7.032427229064921 -0.06155529500497787 -0.24311065941538776 -0.46779962179047824
Ni 4.951060206581515 4.543698371634288 6.960468922716481 0.37934210307801763 -1.2586056481817227 -0.7355532765655268
Ni 7.922442460688668 7.036953571800265 9.1536040802089 0.7961806604395966 -0.4773088468324941 0.17465400930488628
Ni 4.600973773636778 0.47816039550621897 10.587812226343562 -0.42323571913717434 -0.640059162721259 -0.7326523008686479
Ni 7.985286805176611 7.198353780306653 4.541013925086689 0.23056084777483518 -0.24322121685132306 0.856041598461287
Ni 7.224963953703971 5.986892520109555 6.966641617866214 0.3209256108123376 -0.04931530129536023 -0.035225398861197396
Ni 2.4698440147659664 5.422176520630001 2.4123334195614206 -0.8239408612720003 -0.26790689252346117 0.42822365927006895
Ni 2.18304347676514 5.354177750411186 11.516227929662307 1.5704817471972825 0.051805157596749495 -0.9750427942885593
Ni 1.1776601222311858 3.325974303949504 3.792941845958667 -0.2896823365273398 0.2984436276597377 -0.8388674006748457
Ni 3.6572182470284114 2.528480113071536 2.7150171582497213 -0.2536336704338987 0.08745093182481713 0.20145621709939496
Ni 1.1839499634202573 3.1996097724389765 8.045818867072697 -1.0790212914547546 0.827327518356046 1.2760341280708154
Ni 3.50073817217422 2.6017955112295374 7.192408168248559 0.6988590064682868 0.455568369831609 -0.724514759363178
Ni 4.10268858969567 6.708034527040528 5.97919242083153 -0.2330465903111664 0.43688364893791215 0.1321765568669659
Ni 0.735467165295253 7.479918791472449 11.434008531391237 0.012192685411449971 0.3475388425244918 -1.0589502317364923
P 0.10389141554860098 5.406857423178107 7.950133982141414 0.8946348853534528 0.36059079061244353 -0.13980990504250762
P 8.372220173110046 1.4722824111662727 7.931986258401197 0.4283043919093333 -0.16484165120015482 -0.011115136076555052
P 1.7966778165608035 3.169016633704166 10.341892952701562 -1.1587249752339852 0.3049071238968942 -0.0385763176113013
P 4.11498892382616 6.094865123444016 3.673279870145031 -0.7314042873941596 1.2413142080911266 0.7969874726116081
P 6.866911590084252 3.864927186008492 10.27970732940405 1.769217994262353 -0.5656056715973743 0.4299198160255692
P 6.310116465110706 7.71215630884315 10.40297019424226 -0.9236842373109254 -0.16037255968520767 -0.04768830721489852
P 2.312282591856347 8.515760116234285 5.800549216457967 0.7113890206144974 -0.9454331989522426 0.10543605554832809
P 6.878527070446305 4.218672179874091 1.6407591415720553 0.3415018923017925 -0.8175167029132114 -0.553046346875125
Ni 5.238473508480416 3.1360265067798245 0.5233075779437072 0.7772889657414161 -0.8984280338472979 -0.4199971575952186
Ni 1.4204858393112831 1.1637287547837583 6.904152315989804 -0.6671668175713285 -1.444568911851841 0.5303442772919189
Ni 6.6199136717569615 0.6174163980842051 9.139227557811989 0.24379431574597368 0.2788304814145004 0.11810105261050628
Ni 2.7063438457218107 1.462478188797061 9.149647247449415 -0.16130407036054153 -0.23371327736088784 0.37500876580998643
Ni 6.409780710885964 2.138509959349107 2.48485853251558 -0.2806641921891296 -0.3129022262872289 0.7781394866671695
Ni 4.074952012073948 6.697608529539446 10.412954641287376 0.3148387811883094 0.7596085177425175 -0.6031687174528128
Ni 8.27920621787567 7.250997408138394 0.09198577345834141 -1.5865238882618096 0.5781840224830171 1.37935982214436
Ni 7.622043970890838 3.6300493771357893 8.19520980430018 0.6071207601220254 -0.0005810693144506123 0.20393887431193264
Ni 3.1549410865160143 8.308024143552819 12.257045965585169 -1.1917199421027669 0.03333229560354259 0.7065106094762735
Ni 0.15825168341833368 4.881601616487871 10.099877345539657 -0.7438893072350479 -2.023969323240463 0.28378551142693065
Ni 8.495529896363992 2.3282504981414966 5.803951858339046 0.3853736539840782 0.3642623259267597 -0.037783646506676864
Ni 3.6199027278823586 2.733404580808891 11.379802355619404 0.3274811525426683 0.10548027852270221 0.5771694651755738
Ni 1.1521312968892956 3.4674326520670453 12.603860419538854 -0.19772991728774333 -0.862038182364354 0.060948771769230525
Ni 3.1176075449023717 8.220290771322448 8.150776311579275 0.3209940021564278 -0.5494658286127181 -0.6076763755151792
Ni 5.627100988367355 7.782038426925169 3.6029967521591253 -0.9041140284884817 0.02014587882025563 -0.19345802938526682
Ni 3.0349655197663052 8.491501874857523 3.6456883733874124 0.4772700231747587 -0.9405866694932187 -0.49381070114225917
Ni 3.3238386415400347 4.285292231322236 9.36647195053675 0.45502740972647443 0.38405442095202247 -0.4662680156373002
Ni 7.428230354423003 5.936970284883974 11.380817921668127 -1.1600871456888342 0.5329554896625209 -1.020363886822862
Ni 0.6032615520386558 0.20800180407842606 0.31251679700565704 0.10153003562570256 -0.35948495914277445 -0.4904487266485617
Ni 4.482881554750272 0.394063056112223 1.762162087754929 1.0047539481997472 0.10071088215851688 -0.7021371629989263
Ni 6.133243968177905 5.779544030481283 0.20454869928809344 -0.007389093375219533 0.03817291152529555 1.0663426675458214
Ni 7.896895612879186 8.987336003206329 11.095174426086608 0.3270312094894432 0.05176967637312374 1.0567313697083025
Ni 0.18041301069094598 4.90184084759196 5.609812035207824 -0.2602051530038293 -0.4468970673098561 0.7528228622792519
Ni 8.19923151794299 8.930835567310229 2.3927078534787865 -1.6261890680619153 0.3314661053323453 0.2444350346537661
P 8.337454833128044 1.7592541626092082 3.674202620485663 0.5425876134356462 -0.556649490845351 -0.5549762169079862
P 2.030843737963684 3.4397861867832757 1.6098578186414483 -1.5059935948162257 -1.00756699216851 0.285907699976256
P 4.652022413086764 0.9144149493710944 8.182667067980598 0.21612281797263425 -0.06712636133485214 -0.24482789921681058
P 8.577838505849634 1.7530904786932697 12.337208099180787 -0.33022709071892165 0.15337864486587777 -0.14340353593103689
P 6.427640976268112 8.082860444711375 1.430225180797169 -0.5069150997347012 -1.8976654231041898 0.08956412151307801
P 1.7439530876249054 3.103279683167954 5.890365084818416 0.3197105074583139 0.9606970670898488 0.12549220286825485
P 7.003116388899172 3.98813778569069 6.097298156568729 -1.1074414944686606 -0.5227376685892546 -1.1140731408525653
P 2.2922325966619574 8.364857995099342 10.212550208421709 0.724030877748224 0.2206073361065491 -0.19929391934075352
