# total energy = -340888.0269301884 ev
CRYSTAL
PRIMVEC
9.11998841750517 0.00000000000000 0.00000000000000

0.00000000000000 9.11998841750517 0.00000000000000

0.00000000000000 0.00000000000000 13.34802491157764

PRIMCOORD
 96 1
Ni 6.384520684182633 2.201829625918894 11.312637624201802 0.8673392828622933 0.30892447258640343 -0.5681654619047505
Ni 4.698453749715849 0.20849296174483772 5.824584417989708 -0.12862483495996557 -0.09740984280974191 -0.45841895190652665
Ni 2.737601571434376 1.6380866766603108 4.771758390696058 -0.12850296467012062 -0.8024749780887406 0.2563042752875263
Ni 3.4540678427281657 4.579410544023412 5.10970411264014 -0.46405455292574926 0.11089065090499613 -0.3474799642620983
Ni 3.617479790908437 3.1343666571349402 2.878033885401575 -0.3038974516854573 -0.3956022736906219 -0.7125524447949793
Ni 5.485125690006833 4.491803937581863 2.9620864324500085 -0.4505652601900627 0.3600711706635476 -0.9626703887661356
Ni 5.281412514066286 4.6544315667787926 11.506024237527965 -0.8196694875901562 0.008852565294623464 -0.9150129347891727
Ni 5.994969509131171 8.06414890699548 12.304515682498135 -2.359715801115717 -0.3882951985062474 -0.4012419884749025
Ni 2.1999691483305037 6.536988646548846 0.14795995220963665 0.16785626965676254 0.7670554609388661 0.23549273785881375
Ni 2.9671151939315696 1.681707580117518 0.19911396590218838 0.2911769187949953 -0.10720497452329279 0.9486532485514371
Ni 8.403676946888512 -0.1080262599729498 6.572139816984787 -0.7491847513060322 1.5768897076061552 0.05394457253725547
Ni 8.810838819112432 2.738249090595041 1.314500376103094 0.5118289920965509 0.06918992873210018 -0.44823095562993126
Ni 6.838887615217867 0.8066009384583871 4.3531509333082665 1.2261894366345463 0.9904928102950425 1.1477921303715652
Ni 1.0693550938681518 7.479785664465573 2.4605080586117394 -0.23984150174581276 0.027375049578843173 -0.3534361818455332
Ni 7.7414472452915675 4.063602252630411 3.5513617006127935 1.1759251411623555 -1.2993982567180524 0.07141984650388346
Ni 7.706362650769327 3.819213929414275 12.667462028035617 1.1287417986083335 0.4756664261330646 -0.9995160968395754
Ni 8.117117798335531 7.61343909121978 8.672598950303316 0.18262571465645322 -0.894809206147788 0.6001111615734117
Ni 7.071365233873035 0.6418310240383545 0.17432127803925349 0.6505634046866926 1.4507542147269468 -0.6331938030599934
Ni 1.9471630760257197 6.721093847905869 9.26922857693315 -2.4184153718394543 0.029809370051948662 -0.23371147758867492
Ni 0.17091861044989867 5.472248266698956 1.3133813535536065 -0.04883501922483203 -1.2896154662996757 -1.4868535315526652
Ni 6.398994105421728 1.7896973601377542 6.57725248235759 0.5389299620784008 0.5112186122060616 0.935268342604099
Ni 3.6761030749190846 4.324251514768605 0.28741460344411307 0.2051141255669564 0.8337581044727381 0.1389321304232446
Ni 6.453522514740282 5.704324605874275 4.752257119974221 -0.9550506674373488 1.771544842623317 0.2604404089430869
Ni 5.389776213601836 3.0239236002947187 8.951425260879846 -0.10947037351870181 0.24516548506188746 0.6168603560072925
P 0.40524758670527833 5.901407550409138 12.342998384615639 -0.48755212182705704 -0.2074720842761717 -0.05789892919931319
P 4.209303183768262 6.417051682014927 12.480149326836258 0.19744761016063414 -0.5704812545221207 -0.007670886281696467
P 2.6333327465909204 8.724463411074964 1.2547863415063116 0.1258228467347962 -1.0035007925189363 -1.687509364237952
P 6.767788187379192 7.8569336555944345 5.741986509055726 -1.1703268211389715 0.0010639224881401033 -0.43468998372070305
P 5.06488575473511 1.0828070764312672 12.578070639907558 -1.2167519453707303 0.05535970771722724 -0.08356573783779801
P 4.370097695341338 6.392911073306746 7.877016781562053 -0.7683633811170122 0.3928208542907428 0.6100816425225621
P 4.660350439106564 1.2707882727641029 3.509782762508727 0.5578442824844005 -1.3299640453200514 -0.16168870739346994
P 0.3009596098866479 5.567032303836893 3.5515358923870006 0.49285939297258347 0.3362493856536016 0.1292606687717516
Ni 0.892637994934437 0.07602422145500293 4.166065319814547 -0.5139624934997858 0.7609668315426249 0.3268198648095855
Ni 1.959921939487278 6.274962266195716 4.66688308663874 -0.39846596839166215 1.229345979985657 -0.0078002127707091475
Ni 6.179475989968044 5.8184612579267405 9.213541017117125 -0.514860836944339 0.7691041159377787 -0.9087286444423576
Ni 8.616327711243875 2.373495163400602 10.211439179610005 0.3658731220573054 0.46882729172404425 0.1288364367501394
Ni 2.1928281975868296 5.687133428158022 7.0959837299617625 0.46861491860292204 -1.7931747621882665 -0.3909228659370816
Ni 0.34403422605196987 0.18785625249479207 9.399184760479839 2.0900952683352583 0.45362924382736713 -0.9653654190997956
Ni 1.7666237900464445 1.2161230636228737 11.424600983071361 -0.8333271875829067 0.2289251119436251 -0.04406690841222733
Ni 4.66245715637577 6.784340965922956 1.4386097352286227 -0.36986116017077597 0.031109319810294807 -0.2673245376574299
Ni 5.882875734430662 8.106611571954033 7.88494478728552 -0.759163459785299 -0.07592879011783052 -0.437449291633395
Ni 4.837925728927865 2.869969079855431 4.934096916267734 1.5870977584874086 -0.8195455604177821 0.6797094301230293
Ni 0.980772648691515 7.591806479260654 7.074226174164593 -1.0290220767184923 -0.3017246124038545 1.390248958253038
Ni 5.117690486287949 4.648859254001801 7.008153683809843 0.6301442176003922 -0.5850128724793925 -0.4227310115866139
Ni 0.8619610906988092 7.911270545161242 11.534521464588959 1.2094482126204653 -0.6614936784459511 -0.6512671156219364
Ni 4.813256160905337 0.6410284650786566 10.329929714018835 -0.4290759799680352 -1.281198188770258 0.051884604684433226
Ni 8.712680386348493 7.353492068171322 4.893425416987416 -0.020862702381622134 -0.9761059454457514 -0.5234028129770792
Ni 7.385293466949343 6.001271420962435 6.942934824348588 -0.6414691556949083 1.048422335621975 0.24959266759530563
Ni 2.4726567948641636 5.397145164049969 2.338093193289754 0.4342197289525038 -0.18341555754760022 0.7591567749170797
Ni 2.5162229783923005 5.267212692472543 11.348970745105664 0.2567531898994868 1.262347631722658 0.44466097889048584
Ni 1.232812641989315 3.359548285247401 3.6270320665264753 -0.9755369603161586 0.6750544478495213 0.1859666061042281
Ni 1.9587728209768016 1.259443007470194 2.3623204418856294 -1.040360641659763 1.218750463857998 0.3920279260758023
Ni 1.3009480736700165 3.573038088515175 8.5119147905872 -1.0044071063832896 -0.14843312793514438 -1.8323210933704248
Ni 3.4305838731688287 3.0140922530384215 7.380216369530437 0.037315705731322826 -0.48512448622217097 -1.3724515250603009
Ni 4.0442678776922385 6.8454175267535895 5.779347452627291 0.4402690204703772 0.8983079633296657 -0.43323191111793774
Ni 0.8573527606722721 0.12342718400978563 13.557188010744696 -0.500694572746286 0.553260262658144 -0.16005400000352435
P -0.008656692778921398 5.607598011254342 8.27023601585886 1.5188624803590938 1.5981460458817702 -1.4773314509948428
P 8.830246153956033 1.6986707581293108 7.745044168629121 -1.1442406655748811 0.2919755034368907 1.8094436745516191
P 1.9366842096087573 3.4379528236169623 10.464597283458478 0.4813467643472936 -1.7472013807819458 0.7613653525326243
P 4.318387362369904 6.349709689305745 3.5072738537608537 -0.5308099040744277 -1.5640712156852483 1.4511419370836687
P 6.952613867802307 4.166658119046143 10.205939826738442 1.0216376113289631 -1.5692057086983362 0.6617106795527636
P 6.42296143435452 7.93148043896454 10.127386632561574 -0.9574906443374093 0.025913120321336015 -0.9299111920572436
P 2.181054292848537 8.36086772237918 5.647949398949599 1.982039001555264 1.0006378691488444 -0.649858665310184
P 7.100403276233007 4.3038774611780966 1.4380625359379198 -0.13937615993919866 -0.05417211516702929 -0.3896062040081871
Ni 5.695095177837751 2.9709729489310255 0.20354263216161128 -0.8052594828124131 0.2668943920985468 0.3747087180710643
Ni 1.7378046274027534 1.1940344522548296 7.344136784297936 -1.6273249814385715 0.48071453007993337 -2.8126865854234784
Ni 6.981998469713057 0.9673571460811132 9.05395216798123 0.023020886375205513 -0.19216013650944969 -0.7120611069808576
Ni 2.7753127225519907 1.6131435089924326 9.26360884021763 0.8664378540939465 0.5531342786032409 1.229502045947547
Ni 6.48043559985469 1.77003466562516 2.1791719272885186 -0.004453922006295555 0.9212859122820779 0.858792678843863
Ni 4.117264263072018 7.047935984242768 9.947534993690947 1.7076770974350783 0.400409208160962 1.3804625682902356
Ni 8.114801321338222 7.611569493643211 -0.11633092120818563 1.2849787388586127 -0.864579203618653 1.3188769342679545
Ni 7.926035806022044 3.8570618803545655 7.94873545659804 -0.998315905883887 -1.584219408498349 0.24181482342209967
Ni 3.4076653428765513 8.537029414032832 12.407936348441 0.06342782943734238 -0.12181629667856439 -0.36599550656778257
Ni 0.02085011697341983 4.8203971116490125 10.222691421024496 0.21987739991906002 0.12286839209216258 1.7686605790969863
Ni 8.605429325370705 2.4568792153155607 5.710899205352072 0.42414331855310816 -0.21176839765868044 -1.1196856019433363
Ni 3.6851409832038624 2.834474085865163 11.725999264389388 0.5643628003292087 0.11590918716551005 -1.7646067207425868
Ni 1.1609197751791196 3.7064087956358525 12.659720070070987 -0.3834671809899848 -0.3981885463605594 -0.05233814728208406
Ni 3.249962507295948 8.736237315813257 7.848651794329645 1.0845720460696548 -1.9116272846009206 -0.11876696832927933
Ni 5.711857716109619 8.098768382120625 3.710497286336221 -0.45486363045510053 -1.1931047382654354 -0.7669204780228986
Ni 3.2719872787467437 8.34230854643617 3.201363914290979 0.3924259328451693 0.3506861299042219 1.7227573888069685
Ni 3.3203323360803534 4.7718970145163695 9.087562060415026 1.3592820775578782 -0.40420878441271035 0.15711677175207137
Ni 7.456848894196939 6.385113483414229 11.327494084944389 0.9249569333757619 -1.191503969437219 -0.9818389912747866
Ni 8.528502225086044 9.233714430967707 2.152876265373786 -0.5658319286755674 -0.2529561847508998 0.2603751029227903
Ni 4.879020395659659 0.0710219079391597 1.1898657056584905 -0.7781999075914597 0.7301868700472909 0.6695486875399437
Ni 6.23747911478256 5.737211283245525 -0.03847358212932766 0.22214279891446906 0.3738954781411496 1.336365063750389
Ni 7.9709791077651175 -0.13750753375839156 11.081716787528684 -0.12448690153219204 1.1275480354105485 1.1949335639440581
Ni -0.07794306696773476 4.8309124580186875 5.734671366537846 1.1107085952557065 -0.03325644806028466 -0.2596104568426239
Ni 7.614916529304677 6.432519181965465 2.68929299405348 -1.0032809631986463 0.33837157420292696 -0.32326557179942395
P 8.610737158490526 1.9270717420687413 3.3027417028818875 -0.20603792293280643 -0.9762000478214541 1.474956265894447
P 2.008011637151893 3.454460002219836 1.3789577165514533 -0.39136123902608083 -0.6682806194607975 0.07175229014263772
P 4.87737879778755 1.1130398372426076 8.013406204769774 -0.3119910273268691 0.47560497676750985 -0.16124827742194164
P 8.668831483186827 1.6986616381411326 12.355598560282896 0.6251804458372137 0.25520461446544435 0.21542630612624192
P 6.706766346477629 8.065042665836962 1.5595836424184233 0.05868414410476991 -0.3672391491668966 -0.14568359021446523
P 1.7273075210094344 3.301162120929392 5.8627597765056025 0.2693515953897877 0.3619110520857638 0.8035561269680612
P 6.67951582180062 3.826564639886052 5.681279307746318 1.4228932266506205 -0.3803746581075901 0.5441660136663596
P 2.6227353203276387 8.6046723663519 10.016424648394002 -1.1914214370257417 1.6710193370027284 1.481142854321133
