# total energy = -340898.03524887434 ev
CRYSTAL
PRIMVEC
9.01753324607558 0.00000000000000 0.00000000000000

0.00000000000000 9.01753324607558 0.00000000000000

0.00000000000000 0.00000000000000 13.19807141186723

PRIMCOORD
 96 1
Ni 6.299883093995797 2.120499965936558 11.442120535046362 0.3071175012846517 -1.0217857068710532 0.6196114363898684
Ni 4.742771544842434 0.27596086083344334 5.928811606078189 -0.2887834788621543 -0.13359606292231185 -0.2801990796272529
Ni 2.893500940110877 1.5236114136098915 4.638515335667235 -0.19457697348105846 0.3529255607577019 1.8773987024353538
Ni 3.4168515098380765 4.374874228583319 4.962039174945913 0.6265323318794177 -0.5718771064283827 -0.3476028629932078
Ni 5.1869121036372325 4.492183316950759 2.6894107200028805 -0.3840865597415385 -0.4198012395343286 0.008106945377850555
Ni 7.278610068786213 5.969426575253911 2.5640417605321413 0.27062994788157907 0.42112047256638446 0.09970995169782829
Ni 5.20881569158746 4.471073271915154 11.78632608653741 -0.4163927280734119 -0.024852283156989455 -0.8652389486898389
Ni 5.610754195377291 7.935402093633819 12.41671928317411 -0.1914127168204639 0.06597476422891219 0.6824432841144247
Ni 1.9249186900812723 6.632765329147159 0.18233271619432462 -0.6515753908909746 -1.001815177286397 1.0926072576693053
Ni 2.548201561852285 1.4846015653296587 0.3087368884673226 0.4198989414544575 -0.12214822609668642 0.9212311477847424
Ni 0.5847599702792989 9.182734327491104 4.603989004854623 0.3676929488748635 -1.0158480012303794 1.1225328415841442
Ni 8.767431839616368 2.1930370023596257 1.3220767623883065 0.170296503667139 1.172645184859503 0.16753719575444695
Ni 6.94596228949599 0.6419699056570798 4.612541233266314 -0.4225767453969368 -0.19079616628238755 0.7420219150090059
Ni 0.6760814299461376 7.135862519485222 2.5019452239562425 0.3527774652156118 0.8864616055140411 -0.8650617996820265
Ni 7.6699890412916805 3.768625476877345 3.873514716877618 0.0862913642990772 -0.1238677798909544 -0.1720836774745488
Ni 7.635352696574997 3.938191169679355 12.395760732694933 0.8042076445091311 -0.6868216156877784 1.0998472270611706
Ni 7.793718613241073 8.755249152370276 7.145198371525103 -0.15145031749491336 0.7359901069926291 -0.13963584135848855
Ni 6.993502724108423 0.7263262227414748 0.43081174308906317 -0.8027601134293272 -0.329777918996645 -0.4906567288943099
Ni 1.8978570731859932 6.449637266531587 9.147147534783498 -0.38106757040955663 0.19977805806602367 0.3097436260535891
Ni 9.130342460059724 4.890262316564922 1.2784697757231314 0.10997353840736544 -0.5123254721169951 0.06154655325422948
Ni 6.311542764320888 1.910400461756914 7.022878240002479 0.732122653617423 0.37474831305974815 0.32759376686113256
Ni 3.5144843409361064 4.383359727249915 0.5642667245091517 -0.26695018503714674 0.0005252763758507083 0.025167500404563108
Ni 6.049790830425763 5.554060964647327 4.746092702290794 -0.052858024341296064 0.08397737145391988 0.6473765223182786
Ni 5.160508766659765 2.860550874087768 9.471041092920126 0.17051684720806115 -0.12461545669025637 -0.7968144373688535
P 0.06988858694551252 5.613486507912869 12.357763553384158 1.1714449939038147 -0.49403721533076855 -0.3739988364882333
P 4.012107888669893 6.19839977625522 12.624192881709 -0.34176054527981786 0.050853335206441454 -0.3498037272992685
P 2.302320486249626 8.428390629343555 1.5408881053158778 -0.2522802417297978 0.2571357700498862 -1.2492591739698162
P 6.456499609236455 7.79192412415005 5.761750082223803 -0.5635413328691778 -1.103719565532383 -0.1856516459669706
P 4.608302090946264 0.9775456779516 12.520363201850412 0.412953877595192 1.069100432796617 0.34648340467678396
P 4.015065639533488 6.098431404078924 8.375021261321889 -1.0004123834015999 0.16476554654658074 -1.0605448299171218
P 4.818140086665407 1.0237966053277703 3.735859368529898 0.07293088383177117 -0.6008608952552427 -0.11359236610687533
P 0.2124359470112226 5.383827974394385 3.6298654807223367 0.2027145149865283 -0.2716882139427643 0.12205360950035107
Ni 1.652129295646386 1.1071907516281845 2.6989133964054948 -0.9973872234220307 0.7249266500896161 -1.3504624223837196
Ni 1.7986191211924747 6.468357665290201 4.826415476810292 0.531504101927975 -0.14016985948508762 -0.42757085617741847
Ni 5.949209265997258 5.623153303418281 9.175826897120634 -0.29083650473644107 -0.0933086761571748 0.5331390664282366
Ni 8.511649512647159 2.485078830007249 10.194071407305978 0.7006811472786901 -0.13662533666693888 0.5156355103268346
Ni 2.4066984321219542 5.375279352995942 6.94659351681444 -0.6606943224731073 -0.40404423381038806 0.49578376570822996
Ni 0.502672464528077 -0.03797553723128613 9.042157298412272 -0.08005438225042988 -0.39009085695408946 0.49670884862566067
Ni 1.3634239552534297 1.0421292501621933 11.346460740195145 0.29709019895563676 0.7969843872878145 -0.25073243762670366
Ni 3.957596900955143 6.94584506156542 1.7300425853160268 0.4901782465959945 -0.23490704055867284 -0.8124678276353943
Ni 5.422350875886098 7.846371989132955 7.975158593656447 0.6908572192097328 0.036157166646847406 0.3806438526085767
Ni 5.382818010684864 2.8593425246495916 4.819235716939574 -0.24973999180644735 0.10996119711219125 -0.04756360871157615
Ni 0.553993950778028 7.358956288891823 6.751486563201304 0.6096761795540274 -0.0644369874281471 0.48890066543515154
Ni 5.00102467588672 4.505475160770699 7.1165451600340175 -0.0870909773822371 0.03570079583571916 -0.29895810540231094
Ni 7.902073291219639 7.125293970667738 9.056199400987857 0.7066599905699443 0.2637494187116619 0.23635482874879293
Ni 4.56813799842658 0.40972063487301225 10.348937619367902 0.050618850598132176 -0.3061170850445954 0.31982980664499755
Ni 8.322705141168722 7.1468548923593795 4.552040800052783 -1.189048308807875 0.2360092724839161 0.7063149485256998
Ni 7.114527036121599 5.971482572805434 6.967631421585079 0.5251771312686826 0.8877155325258 -0.3349988010759521
Ni 2.3094172848156322 5.250143045879717 2.6911529074018037 0.20308269695922443 -0.036513264434685506 -0.7103497807167056
Ni 2.4359693446318103 5.1577854716573075 11.238988878709097 0.11406442064728743 0.23204077475447135 0.5492997353484991
Ni 1.3642986559661396 3.3553338988885275 3.836652844986741 -1.1128276984812382 -0.2367006421239859 0.5699487790574185
Ni 3.6889645892889087 2.5904396869897353 2.5765671140368203 0.05915851263802715 0.5412706943964355 -0.4337371328891304
Ni 0.9349288164230795 3.3260359337793095 8.224681850886565 0.9714851588442881 -0.05771021022727481 -0.6351514410069964
Ni 3.792729342909028 2.4264197770569678 6.879626610600041 -0.46071289014702593 0.3853204321486396 -0.04775592722804034
Ni 4.122022599878343 6.921064880549682 5.963535420866145 0.22802471161654278 -0.38800877761408015 -0.17039112026347428
Ni 0.7084435528097759 7.449916145480521 11.37795176935932 0.16327327827177043 -0.5708363238686943 -0.529772463948849
P 0.22792536365268254 5.579932267170672 7.964072438437834 -0.12712691025820042 0.07657979343826811 0.2732884685503487
P 8.425496001211805 1.6551591867749478 8.155985381819612 -0.07789491270526586 0.0208066523327061 -1.2806806257038912
P 1.8743663994065185 3.168743103554599 10.393032454574909 -1.293163074441618 0.1630994716980675 -0.2627837123642829
P 4.053426225429029 6.071802628773439 3.804264571277052 -0.3167054020834029 0.36269549566027215 0.03369430692865165
P 6.9012263076841 3.9943974536207993 10.314094773142754 -0.7465743102663788 0.38092204597062784 -0.14300141539661176
P 6.189977400320468 7.756016307263345 10.304922138452358 0.07525618953083812 0.1430322686345472 -0.921818130636464
P 2.3446758393176452 8.374411676082927 5.817696661211371 0.2799355415532211 0.8229592140850214 0.3656126693070671
P 7.00035604928017 4.007770455238827 1.5174353051755107 0.08859944360696353 -0.8071824108667389 -0.11403613851251328
Ni 5.319316542448757 2.786949768756455 0.49536465568704596 -0.12214231255941545 -0.044357443069452634 -0.2070380820625467
Ni 1.3284990494768831 1.0627613659423996 6.996601148488702 0.7369509282440019 0.16398136008238856 -0.4208214532687269
Ni 6.8840208544897665 0.7025127212762786 9.356416524162723 -1.1134424492471018 -0.029689813754948863 -1.088727462998925
Ni 2.7928562529505263 1.6172945652010466 9.148005102183276 -0.5534651795800983 -0.4200514078719217 0.03567662746600307
Ni 6.395874734065857 1.9799617122501445 2.5315876588306714 0.8242990159423675 0.5797649938168918 0.15593612118040887
Ni 3.939724150309877 7.026849561588844 10.468393782371384 1.0634185519204913 -0.7931508724743372 -0.6106308301578128
Ni 8.030987944713445 7.188299474582206 0.13834518963145478 -0.39301960056511026 0.16838745956988418 0.7790715115631357
Ni 7.672964827221518 3.906016611504627 8.173262073525597 -0.7501787397881855 -0.37538800352627605 0.14389513085547476
Ni 3.1329254619991014 8.347773883244322 12.321045962023213 -0.19995392152225566 0.5339037125084031 0.3943612021946692
Ni 0.1432245768030761 4.898044447648103 10.14142434368728 -0.2630433937835728 0.147610632033849 0.5183007158638235
Ni 8.576260137457114 2.1841186621032342 5.84439667502851 -0.16947657886900488 1.1060582409678887 0.21960126343953792
Ni 3.600917395898203 2.7540177377995874 11.566658077963371 0.44864927411427247 -0.4602158959059493 0.16695946887410598
Ni 1.2782984425938375 3.427979145709044 12.588808983496609 -1.0885685688235576 0.2139893165693992 -0.16203272099644997
Ni 2.973946353080816 8.401960239766726 8.059917092718026 0.3416641289112696 -0.24894937758435187 -0.5089233884139817
Ni 5.5531321587358935 7.679610749131489 3.59302975967751 0.3212446847146532 1.1618861465707861 0.23791805947085473
Ni 3.0334981418100475 8.34060494441335 3.631963860679528 0.7894399992816533 -0.6293435760759678 0.2693467102937813
Ni 3.200286434410876 4.060973900651072 8.936572806608392 0.4054521699015081 0.8510539154387086 -0.19349119661604744
Ni 7.0356867440471484 6.069674490956949 11.362140426785452 0.6891317518781939 -0.015394994398831552 -0.05711628539701776
Ni 0.4028231237889739 0.010433285820672489 0.295256578205159 1.3736699708484341 -0.2146596031635464 0.46819428612573566
Ni 4.699343105333048 0.40631561436662855 1.48697407829372 -0.31478530224255463 -0.6366524510325552 0.28549169548475994
Ni 5.89497782180925 5.673200612238274 0.5515709396284907 -0.05705792135525658 0.6501695116823835 -0.29524620376836247
Ni 7.911713034125688 8.898195087399921 11.267655616499864 -0.2763917900660207 -0.5842268862429874 0.4296287671477117
Ni 0.13407719120541822 4.7850096699798845 5.800750011217604 -0.1315795467129153 -0.4916946832405209 0.4878357145057469
Ni 8.101667369313645 8.894362635823615 2.511553405496369 -0.3025717908954983 -0.06845330767639178 -0.14113145206740854
P 8.594403414096002 1.757463100029511 3.6138296015737614 -0.09043135460937975 0.246532283502427 -0.6451095806609728
P 1.8029385195572993 3.336243781271964 1.5881895753006123 0.40643381708848714 -0.8148810650625772 -0.2917225068858202
P 4.707278534479281 0.9648670263838682 8.181708796799775 0.33507464861921005 0.18918074216615163 0.13804947070797516
P 8.521226132821361 1.6421829566142323 12.286163438652334 -0.6601266228950954 1.0308560446034376 0.9701399576703034
P 6.368046626855317 7.769515554345062 1.4947607181434615 -0.14303278285517945 -0.03276022515015648 -0.03572522131575138
P 1.9293102287110628 3.2585847860363275 6.1184936117659 -0.7588179035204221 -0.6671351930024446 -0.07618435777206235
P 6.889864215951993 3.908153766854238 6.079876026176419 0.044915629565767806 0.09680460512557522 -0.6754635103624819
P 2.267521825936769 8.468509634197636 10.213736843535642 0.5966573986968563 -0.05222064786761329 -0.46683520099467984
