# total energy = -340860.22656775604 ev
CRYSTAL
PRIMVEC
9.37372791632857 0.00000000000000 0.00000000000000

0.00000000000000 9.37372791632857 0.00000000000000

0.00000000000000 0.00000000000000 13.71939831648734

PRIMCOORD
 96 1
Ni 1.3648804304578908 -0.08625142192899543 10.764912169548724 2.4068330663184936 0.35388612489875826 -0.9872869017632351
Ni 1.3214800692594593 4.258390947912637 8.636868726778427 -0.49422284897901336 -2.3722113624795664 -1.263005062800999
Ni 5.519626066540925 5.5911382383730714 0.9477692139197287 0.7568713213170126 0.2897355583627784 -1.0179077119728857
Ni 6.910743562008408 0.9638348465456449 11.74396995056224 0.9174871073612779 0.0298232540090196 1.2375855942866298
Ni 0.41958213127075544 8.180968085904363 3.7597732906201324 -0.8342203888211375 1.9662125760459686 -0.4223867408733177
Ni 6.632746907135431 3.35629147476934 10.493323395218997 -1.6522477128221802 -1.0532027877297538 -0.26199078414934235
Ni 8.467297985076565 1.4287248926873766 7.603482692323469 0.7116772412788777 -0.4982394263375742 -0.6666878210523808
Ni 2.005134182280024 8.52286544537555 1.8837828354033985 -1.2220085657839792 1.3390079006898747 -1.1945242443207813
Ni 3.3915648136872014 7.553846927179207 3.1946443454478293 3.1067979042564495 0.09803513509856664 1.6104001806587749
Ni 8.238757119767934 6.168597385515228 3.234897008743359 0.02992609813547104 1.586668384259474 -0.46527762669957284
Ni 5.69903922276943 5.6097544624206055 5.079840739051816 -0.35242008187619306 1.9307848313659777 -1.0562639431535807
Ni 0.20007004088789748 5.8630700911520135 7.433938197060344 -1.3673831093984579 2.2916772123792404 0.1340344360113111
Ni 4.32006070521814 6.485794971388603 11.400559671372388 -0.20295517024242465 -1.8630840855848947 -0.8848243270209342
Ni 6.0778784447639485 0.3143339119325286 3.1844644767088446 0.30367427993105767 -0.3474167151243307 0.9426152698874732
Ni -0.20012347113818496 2.324272129874366 9.600876049921492 2.1821808707186094 -0.276166304318776 0.8897634161937643
Ni 0.4425168318634558 6.823961587067786 0.64636917204802 -0.9074448926339275 -0.9004036695164299 0.4171095516347785
Ni 8.003223453281327 8.256145385431669 12.663800767818488 0.8160488601184331 -0.4619879002047076 0.1990334665905153
Ni 0.6415641990133946 1.2207031182347643 1.2268475970178252 1.963033664097355 -1.6164268464688287 -0.4218159559715122
Ni 4.5077414896490255 1.7085962931844765 4.948737902811318 0.33646870075325924 0.3102413916256141 0.47901271689747826
Ni 4.961936112005139 9.198795606424731 1.2317622426714616 -1.05841775627179 -1.8894823730727652 -1.3610201432949076
Ni 2.3293339430594964 6.886043788410597 7.145845099628656 0.5857088701051526 0.21702733206477462 0.23058064526917707
Ni 5.0479400675117505 7.067650397019325 7.055338005132903 -1.799501732847559 -1.6737272228521949 -0.33080044672388836
Ni 6.567974445822005 3.6331257873553615 5.649305033479902 0.6162484334549064 -2.5935910579757655 -0.3953215092254095
Ni 3.3293138852382196 8.389317940841197 11.866867962578768 0.3717992577337532 2.0636008215891555 0.3465888199063967
P 7.695802665837749 5.900040074859705 13.411576805420909 -0.03261032983585351 -0.6630278557022904 -2.1462558746872262
P 1.922692243459245 6.501130390593924 12.759836487159777 2.0926033794690926 -0.6212088627839754 0.41035603496102874
P -0.11353646974247164 0.6394213647650228 11.86111999249521 -2.4215927411261715 0.9882603214200979 1.572956176879704
P 5.6024617019427705 8.991158154825063 7.563957430330099 0.6157339557123331 2.488230335750063 -1.0154885610084317
P 6.658449669642148 5.778406578766649 7.45733033558533 1.0346605059511924 -0.9960700472725039 -0.387308666223262
P 2.859352652183237 8.050588901474777 9.720783842667544 1.8253132945940242 -0.5558149107591975 0.35279751982026986
P 1.5405159742537902 0.7341588227616078 7.968596901603788 0.1831787589464458 1.6429701441749962 0.22790078444416884
P 8.999810105880389 8.638846583411878 1.531455328652407 0.6050181119567258 -0.16338306437675734 0.34383336864844655
Ni 3.7748940514514913 1.1570648780239323 2.7095539152061794 -1.2987146003874666 -0.12149002368739721 1.2984492625412218
Ni 5.129782087732811 3.1504444052407092 3.3204379020808124 1.2451600641997782 0.7252529230807833 1.1988375269841547
Ni 8.338399849690035 2.2519819386082096 1.9303327692503558 -2.350026855962727 1.1979816067417626 0.6205987400038022
Ni 5.923211930773857 3.6879433494046983 13.262995715726719 -1.1776711773191846 1.4815334048913325 -1.0444481814655755
Ni 9.257737608847137 1.7612578977660724 4.28400559737502 1.927751443856293 0.9001573578335788 -0.20532469891586572
Ni 2.266811176495017 6.006422515300526 2.107834622315069 -2.3407495444258593 -0.7518399295406923 -1.4861899298267371
Ni 3.7735254871458817 9.2004641300302 6.015133520843011 -0.6932383178473996 1.7657004680273978 1.9229036288456882
Ni 6.839634460485448 7.779491310498569 10.700280314157109 0.11038800023696473 -0.7097090618089131 -0.9614694264794991
Ni 8.626735726680048 -0.3464689266756092 9.86232713728878 -1.3454963366276957 1.2617035703807562 0.4852378718715837
Ni 4.232585074396593 3.068583637563408 9.495772185996323 -0.01050449907574965 0.9542405128312276 -0.3117172048401922
Ni 1.3225111793527264 9.329324770504247 6.026918171836243 -1.5759967634782406 -2.531308912107092 -0.12601722213378944
Ni 6.883231669974414 5.4477858142245585 11.3466007428189 -0.47945391819995486 1.5698261158911544 2.663792715801832
Ni 7.494286258700841 4.004700370056405 3.478210869570074 -0.08544135759395607 -1.3513759353369243 0.8094586084954253
Ni 3.6425370103884553 7.346068869657731 0.33934114381269614 -0.8567517371544341 -0.7643987400423093 0.29218350568263873
Ni 8.213598033492213 4.6756343340173 1.3764401119762293 0.7193548124287933 -0.5347642607364855 -0.8010217905819818
Ni 5.563504487873508 5.532243104591268 9.444392907421626 -0.6661967403485752 0.11267062562355434 -0.9424280935773317
Ni 0.3251258851177887 7.166355754129365 11.617284952384988 -0.6596977628877929 -0.7091097376620175 -2.1953050668053935
Ni 3.0577194866716195 2.6465596501172333 7.367605010014835 -0.2642356143194611 1.0251122001411248 -0.15705429394525208
Ni 7.609076933265851 8.094364211798032 7.8944300899678845 -0.18623502927426636 -1.0124276626949211 -0.7714988414222004
Ni 5.243082339526643 4.011608807681295 7.525817605352954 -2.119692265266085 1.7220012273672345 -0.2916823976765041
Ni 5.672736541662995 7.744892880005392 12.756200418021793 0.025050000990092344 1.0652489202610105 1.3035133073276908
Ni 1.8860409665076538 5.426479330206408 10.406643593914888 0.44830114674623434 1.113305152338289 1.6777332586877942
Ni 7.221463901750441 7.191767931064343 1.1893170643685205 -0.26162208795601394 1.2012368804542668 1.726037345109821
Ni 5.799928658531574 1.9896487834247738 1.4351590196693642 -0.9189030138721982 0.6680466490731204 -0.19850227667739362
P 1.768775627718803 3.080460151092223 10.503009268486025 0.6087009601249517 0.9179344793113416 0.07057446778445266
P 5.920174842862779 7.096352752524639 3.223578232037721 -0.1622543500889528 0.15569777991735764 -0.10113614262139357
P 3.1886142261478394 5.097283372338651 8.047360589510038 0.9978083701198492 -0.6301717284042179 0.0546408272733317
P 7.19662352223082 1.6453330020984689 9.374547384449325 0.28859064612505786 -0.7420627955492705 -0.7635926992012463
P 1.6242983561958164 0.7571835111442661 3.433910630472064 0.5432342458807096 -0.029280751241988277 -0.17119716110453745
P 8.838985052515056 7.47893209203928 5.69577341589221 0.6637601058826246 0.9483935671321472 0.10247054516210094
P 4.614611363952118 0.8386252731745758 12.991612226042832 0.8361854829673083 -1.477623528313965 -0.7238904955156178
P 3.176718965162783 7.441315321091265 5.331865605421015 -0.5454857609190477 -1.8711300958178227 -1.506393658468122
Ni 3.828867977969973 0.8378585022143097 8.467654186745149 -1.4301889889810853 -1.5549859655545284 -0.01479027093529711
Ni 1.048901429240195 8.108406056522709 8.687452175835684 -0.5926770738928696 -0.7021533609488424 -0.7953306537344753
Ni 0.23782554301209682 4.8602592830808655 12.721202666710678 -0.3767596870628221 0.6848452086876979 0.5217943308393789
Ni 8.083471939721882 5.522785012917571 5.43894545123401 0.19979425601593975 -0.8213499606163724 1.1954236162065994
Ni 5.561339156677647 1.782048826737589 7.057409599047557 0.9981888933877197 -1.2332175471259212 0.29491376012960824
Ni 8.02626407700179 0.18670779145196567 5.71729830777557 0.07672686053909367 -1.224097587102524 -0.14392238454898437
Ni 4.2157217375076135 5.282114543420868 2.690525247121338 1.9490532906578626 0.9473460997042396 1.2665686117825414
Ni 3.0070638599078343 1.4173358130208336 0.5485402585172573 -0.27303444355801365 0.6298583109288572 -0.5956834648193612
Ni 2.647206437357556 4.00309746254778 3.7933865422878337 -1.0448076216875233 -1.1041988191616467 -0.7359204300969584
Ni 5.800134880550227 8.518019227937193 5.349070146013585 1.0965549294631436 -0.13609003298875916 -1.1250751483900236
Ni 2.5251323760428313 4.356730729625973 12.823467228388113 1.5818748195255723 0.11767964880237153 -0.512801383312149
Ni 7.218098733355141 0.07745605283342559 0.6095557295999422 -0.13971863088028197 2.1818306864680426 0.997495981085753
Ni 3.7245571314438073 2.1606724529853323 11.473162945157775 0.0848147797535507 -0.21440763505374041 1.2680092008838098
Ni 8.600404924389249 4.54029644741191 10.256677067204473 2.030333060674961 1.8299785612801776 -1.7902948695373104
Ni 1.4649449781454198 3.5767334389817624 1.2391056212811489 0.11245670984053537 0.4081420580288455 0.461107040261651
Ni 7.450239110262087 3.5595420216085607 8.061381812032849 0.5982779650194149 0.6651487587000352 0.41573195456096146
Ni 1.1194762282602797 6.138432728423099 4.246798458345876 0.635972394246395 -0.5250429196836635 0.5462897448775818
Ni 1.4670821881569192 2.1685276371504045 12.415808479286776 -1.0598364909961877 -0.5591583733101338 0.7166764942656819
Ni 1.2887938793028868 8.692876752299084 13.161142660713777 0.1230367993492268 1.4336175550466599 0.6715472060272112
Ni 5.0260805335344845 8.127172260220174 9.325857428472434 -1.3312897061100104 -1.8765145000581875 0.9928484550114127
Ni 8.536232381675543 3.0422903301850925 11.895240362854235 -0.5012902973487561 -2.488413912515779 1.666003628955692
Ni 2.0980934440521293 1.8722147175297517 5.405772764787978 0.38357773842592 1.4303579104587818 -1.4058306147413788
Ni 1.9913173070302428 4.759098009203225 5.884579047697569 0.13635588505563614 -1.160482838465356 2.2725947418264925
Ni 5.442142829895951 0.8364627540971507 10.043327265688104 -0.6046270471658941 0.8187528893131577 0.9229650997567137
P 4.8150685398113975 4.360386483593011 11.432114452344804 -0.4614114588759473 -0.33209653982749254 -0.5999013595554508
P 0.3279483146549048 4.295867112938842 3.3749442563565446 0.11057157700268055 -0.4070511389575119 -1.1832147328452334
P 4.29568901210455 4.012668038958925 5.29775929565417 -0.8804238839603935 -1.0576178860783139 0.30663516233159444
P 3.7677418968954646 3.3147377380106686 1.750444365006135 -1.063154242515511 -0.020012181455868763 -1.184234175248683
P 9.266342691261858 3.8718933900435797 6.763210455118102 0.24843669961399148 -1.0954488408831586 -0.2896298860228496
P 8.902032747854289 6.614589995765805 9.589461661189025 -0.32864072006840817 0.5344477579373312 -0.11407933304562289
P 7.231728134042511 1.6950793772345547 4.380603740403546 -2.589220439711896 1.243084155507356 -0.2803183788139366
P 7.27095718622727 2.2469482466074413 -0.02602990561812631 2.7788981761191236 -1.012817956154804 -0.3295416346161228
