# total energy = -381172.68248443253 ev
CRYSTAL
PRIMVEC
9.12546194362556 0.00000000000000 0.00000000000000
0.00000000000000 9.12546194362556 0.00000000000000
0.00000000000000 0.00000000000000 13.35603597032416
PRIMCOORD
 96 1
Ni 6.506235385947383 1.8273737629821527 4.1718783313297765 0.46936953738075937 0.4284378321634041 -0.9587507419967553
Ni 7.239092112695615 8.026318341964934 9.949298657643155 1.7417874088552263 0.7507261276512233 1.5285090023099224
Ni 5.123782647624195 6.852911686849714 11.764677913389034 -0.6931298172939934 -0.5180073529931207 0.5757620433050858
Ni 6.715135461763548 4.189006823480176 9.586735839966913 1.787997074642069 -0.36295106331450394 0.405567869543766
Ni 5.026724233925926 3.0970814184506854 9.102632819172534 -1.7595676156567825 -0.48981417838835645 -0.2324038145208449
Ni 6.494846809387074 8.608577569534669 7.836774283570298 0.4131099435570821 0.32299226353337923 -0.2927985135588183
Ni 8.015906189837281 3.3241137872358686 11.59681869031512 -2.530532438952384 0.009491741540519136 0.9597223618814054
Ni 6.674919550784961 7.68748993837179 4.541559921902411 1.184615984068134 0.8733919168142765 1.624806843002408
Ni 3.182495742652997 0.5764636466615194 2.7429560029280173 -0.775167034302407 -0.8427903898783357 0.6732947848459372
Ni 6.9488750451094905 4.146025897519397 5.15843476442905 -1.3178919446468658 -0.7958639005301262 0.359868053513806
Ni 4.400097010173325 7.612916663010541 7.447606181469713 -0.30781735556515377 -0.038892306189823346 0.35975286809218043
Ni 4.970000362212083 1.6744310200728847 2.0125275616146383 0.5191113846905769 1.3545718165664027 -0.049467510602508355
Ni 7.277774946060316 1.2351221545361866 1.8979062837753693 0.822790292607325 -0.14527658458403367 0.8163167690678392
Ni 8.315485981422507 0.21015117665464314 6.45560002247155 -0.28106965515766436 -0.25046632844951056 -1.407160389296396
Ni 8.437940555831782 0.04190777163105736 3.8975450428789666 -0.6248613719348981 -0.7624069064232611 0.5516157850761855
Ni 9.181948597128649 -0.06831138334547714 8.513164476632733 0.13862256960262578 1.3975125817939869 0.730643240858419
Ni 2.3436011476108685 3.127925479968187 8.602195221420663 -0.33246420757955647 0.08159113060993044 0.5543442397509422
Ni 2.7824811164341576 0.17630210050468212 8.847719426377168 0.06013630317026417 0.8611264691833621 1.2749604353906623
Ni 0.07541920568748363 6.522451331899038 0.6324848578023305 0.8576662785489035 -0.24849197833195913 -2.172548489835168
Ni 0.24547949019276602 3.92595625623062 5.303828925182318 0.8637402526571254 0.12004223549727713 -0.2931859788052241
Ni 6.6667066349962765 7.985509275957163 2.3170186768414953 1.0964099192448473 -1.0881880455556872 0.4464234701075473
Ni 3.534154545800464 8.738077000598238 5.570828992380032 -1.190551889936595 0.07882025273301263 -1.1669748739476031
Ni 3.62249814330074 5.332363332270802 8.119241096290502 -1.2359413738149876 1.383546606532198 1.9144531840854904
Ni 0.4858642349579518 7.598252045596746 10.460848330457116 -0.729227334347499 -0.25721007493124737 0.7488736478235167
P 1.8151091420710515 2.4711659807331032 1.8086875544704994 -0.310673079846394 0.3218488939575554 0.07522019408658014
Ni 5.479693916057802 0.6310101831451624 5.889651645658142 1.356244319172819 -0.3660479570722728 1.0238338476493336
P 8.405901058793926 2.507905090694482 9.666590932726486 -0.09637985888333078 -0.2599495853495975 -1.9138716005504073
Ni 4.097606196214112 2.082266167214949 4.375811418186188 0.7037806121396203 -0.7734359105439131 1.4632688022541895
P 4.786505572568912 0.9716335651112344 8.487187023993126 1.0035470723758395 -0.6998427105377947 0.11600303243089699
P 7.379715481921857 5.763349776474967 1.7472896211266966 0.9754744825093393 1.3589678887515693 -0.822204595307184
P 1.301847532588249 5.894573919854159 4.23636067082533 0.19059330624296209 -0.14132197081165984 0.18630959126594365
Ni 2.724415801808163 7.111828419818965 10.472467781205708 1.7820673394211954 -0.24674825616797502 0.424836745075707
Ni 2.8505205610124094 3.9310938913295415 6.488575791909314 -1.715328443332749 0.5255887648848044 -1.9678454836637014
Ni 5.517701465235433 4.482673315697547 7.320830700809392 1.0351456731177269 0.7564159789471488 -1.6075061469404315
Ni 1.4009865516196502 5.341516170644191 9.524363307282853 -1.4341181488321624 0.3017045577991965 -1.6276831361089388
Ni 3.2570690180142465 4.940406488986859 1.8683890644308396 -0.8092842877010902 1.1211976677124884 0.3673615336773738
Ni 0.9465567955697864 5.227703408737008 11.657709247972422 0.04141610105294157 0.9463762795918025 1.902822541825097
Ni 1.7452993578672389 7.419137477707539 8.358608352044088 0.2735756607734643 -1.4322972935733398 -1.9130267360516084
Ni 6.572522741824048 1.4436754627968316 10.405313506440235 -0.44952987694701296 0.6765644567361445 -0.73270063760808
Ni 2.7428036077128275 2.9252672201514196 12.820258428415004 0.15983622756576343 0.9838467657334347 -0.5726479231561364
Ni 3.175122369367157 5.680554459863047 12.678498026625128 0.9993646588633756 0.42246927328479494 -0.5795860450368663
Ni 4.949294688962612 8.372976391943292 9.775109101588564 -0.3807610949127313 -0.08080771547668664 -0.7623894229217645
Ni 0.18524140306756506 7.230021403480113 2.6621381739287724 -1.4503595503916893 -0.44921080304469735 1.2307950537273578
Ni 4.073204710859733 9.11854488724001 11.739394908406672 -2.819029496922371 -0.25479812305564503 1.2451222689833072
Ni 4.9726741225744 6.612647398182761 0.9930035719933898 2.0593114501851826 -2.4938656796589695 1.5362536792523478
Ni 3.6735459776584034 1.9838663106045293 10.406916850111426 -1.0108803728124591 -1.3967301951020075 1.1109482220703382
Ni 1.922041305639715 1.5973482426650933 4.546020447721864 -1.5340343030035257 -0.8094956323809477 0.5457241021820989
Ni 7.416755732128821 1.2152103964796221 12.918959425271009 -0.7125740420615341 1.1616645174782831 -0.7131831364004428
Ni 2.380486264964046 3.802817272172287 4.059313020076274 -0.06885928486555884 1.13844822726282 -0.8404188043223656
Ni 2.9837796824147986 4.235418923148226 10.551508882756 -0.31907493075684407 0.5420129718790988 0.7476156070466995
Ni 0.1383775930311364 6.980832412989458 5.954200601026202 -0.013135508940693506 0.48305012019164556 -0.17800415672404182
Ni 0.3429248234793009 2.4783568447791957 7.292341921030845 -1.0768116853979455 0.4266992522057425 1.3115775723930638
Ni 4.933096993934931 1.9213660214526451 12.851659143113737 0.8433722305237347 -0.3494615134685014 0.35220976563759987
Ni 8.2012534482639 5.7017072807499005 4.0780120042347106 0.5538978962421428 0.6070515974469868 0.057402963399501135
Ni 8.976160303850195 0.7574106073178015 10.902959625370155 0.06447992485094056 -0.1879864647477343 0.43264004317020976
Ni 0.9794540860344589 5.190836542307804 7.311147673094533 0.18873054200261047 -0.6887373446532526 -0.11270636395749621
P 6.8758804746720665 3.0038922006350863 0.7376795334085882 -1.4599322816817888 -0.708433023309967 -2.3712682818400066
Ni 1.5522958368331687 8.33284261012259 4.059540244079761 1.0546973699974094 -0.7082934124083092 1.7355244586646499
P 8.125256600832612 2.1346828208707267 5.5929199107591945 -0.5047939396266403 0.5128618042364393 -0.31930787270325656
Ni 2.333964659752146 7.376704079466006 1.8612967553742117 -0.2596503089416238 -0.009603841638351202 -2.0767712975328427
P 5.273303342288178 -0.044619858933720516 3.7393560718731274 -1.34618873470903 1.1747241788757188 -0.4493313877829616
P 8.031392098829944 7.485707722905816 12.163382123266482 0.27004605035365103 -0.45050663903798543 -0.6635261354949475
P 4.675430449257957 4.097414561512376 5.2658441896596555 -0.36523805957646777 -0.23874338358562755 0.08989116583519358
Ni 7.2843909060011995 3.7491048029142946 2.6218036319443474 -0.17020008729859074 -0.14453842086642849 1.095755830600616
Ni 6.028563078215543 5.717366573520325 3.301278231158533 -1.6096473616531506 0.3213606414672272 -0.8826062363236928
Ni 2.306296259006269 1.4401895363176345 6.948758239196051 1.0586722954847574 0.797535374695278 -0.4230899375879294
Ni 0.8448945862988618 0.34561318458079676 2.070466032319008 0.41439832335120247 1.2228673142398487 -0.09325005500509746
Ni 6.843694970242413 2.075568078116178 7.6678072294111095 0.5808571984398061 0.0035193260071681325 -0.12239145245574405
Ni 2.63974976548882 0.8544462073611011 0.43916285814489936 1.3555254387289235 -1.1528770010936404 -0.2627266338741024
Ni 0.5016056568862626 4.3986825635652735 2.4305184354025093 0.5697394912600897 -0.13226937369108835 1.2253707973879928
Ni -0.16610165909513677 2.1286691414210126 3.412974798430832 0.7053145322856434 1.820830576232322 0.03992486121939576
Ni 0.9463742863300378 3.020902061779649 11.030149402004707 2.4140979754110234 -1.506771353522515 -0.9746653563444828
Ni 2.7042485308159505 6.538074122821513 6.1284841493392666 -0.7696101090399197 -0.23188290902036837 -0.8882472366595541
Ni 8.586083305735663 6.810140646514646 8.529592133302499 -0.7200240705816761 -1.5007027787309315 -2.0115812339887547
Ni 3.846555611478022 7.374258455653376 3.4296835193298096 1.443996584288139 -0.10506067448678034 0.804989259870162
Ni 6.070439823275843 6.363814300709617 8.898645892090398 0.03524468213490704 -0.47429397126557027 -1.1055694742569282
Ni 8.416860738640827 4.492017788772672 0.24934686098303735 0.13711975980485416 -2.0081338988701027 0.6519677412333869
Ni 4.383078023566775 2.4758564681946407 7.073570832982878 0.6371275908967609 -1.3526360329962703 -1.7855565835213765
Ni 7.806093567822372 4.439966153596392 7.36145999521601 0.9976739014245141 0.8399922583079081 0.49055105655438097
Ni 8.10456005304513 5.565966033686932 10.526600021715122 0.5297200134443586 1.727065529264019 0.4635398180728597
Ni 4.986106802619891 3.767081963029525 11.399696848286125 1.609554544829028 0.2577728894132528 0.6379493154671078
Ni 4.924847576298298 4.204145964917316 0.4072374293818878 0.6280649664738602 -0.8092151250260516 0.6224748739805924
Ni 0.5045568312929962 1.7521343288958213 13.312054213664782 0.1477222179110488 0.5225278665712937 -0.002314764176105691
Ni 1.6389786002517328 8.051221727728622 12.509009908586458 -0.1816713211629839 -0.03623507107263437 0.6887604845817041
Ni 4.987740260315641 6.310275215229385 5.213915748220205 -1.149295197279653 -0.7756457737110384 2.4382863997317683
Ni 5.483170717075011 8.932841735795881 0.7705092954545536 -1.0280769391964037 0.7510811969977967 -1.6913981577693968
Ni 4.663038071879032 3.8778650715568825 3.127209131202174 1.4228891128855623 -0.35341766990277196 -0.25507580219706394
Ni 6.18806702829377 8.769003191273626 11.83217895571003 2.755823810798163 0.1954606616375924 1.0651396483766558
P 1.4166914717000112 8.844434260061693 6.41656038354314 -0.8221781129446227 -2.075730000752522 -0.32731351661655245
Ni 8.35762736488044 8.569931238017919 0.7599237595491389 -0.7942214798306966 0.6193252726080173 -1.1304271567305564
P 4.565121864753945 5.628165182593231 10.192925679052474 -0.24372103930587702 -0.4403641512873448 -0.648245040966161
Ni 1.5763231782460627 4.73559462014106 0.4721678290610234 -0.5578118865845684 -1.2240204540076856 -0.17726007946916567
P 2.065621324549883 0.7378510920939517 11.276127142421984 -0.9935724776616308 0.8314903914844841 0.042807324973513375
P 3.641670738936323 7.7490685558629435 0.13705166340436334 -1.866793930336314 1.8823331636224936 -1.4373703372208728
P 7.073492354009787 6.386582328368246 6.18603478790917 0.42174576485520915 -1.0245254743997194 1.4145445975756092
Ni 6.676543883018723 5.237321645671755 12.44749151914442 -0.5545432431356255 0.9780903228656317 -0.1459802955192776
