# total energy = -381168.3511208413 ev
CRYSTAL
PRIMVEC
9.22012285315280 0.00000000000000 0.00000000000000
0.00000000000000 9.22012285315280 0.00000000000000
0.00000000000000 0.00000000000000 13.49458177988711
PRIMCOORD
 96 1
Ni 1.2036409301412139 4.130946936127381 1.6502387839504675 -0.5272669239181758 -0.3249385886264726 0.2258315606199659
Ni 3.38321341778051 3.705853174710546 9.191875103784444 0.11158073499348527 -3.4040721941984344 3.217715294634323
Ni 7.081054305783081 6.425208531201099 11.234967645778008 -0.020115539802952456 0.675983387421694 1.1857686096153384
Ni 6.15887606417395 1.028836622089988 8.913103769095926 -1.6433072157994408 -2.874919109001139 -0.351714056948104
Ni 8.29335293122785 0.38934918936910035 9.345875126763314 0.4579466402557984 1.6956044825412604 -0.18924090598012572
Ni 4.115724513394506 5.045850500852054 7.823511147854951 0.8598303760797579 2.5073516299605463 -2.916413885810816
Ni 1.1554012476830666 6.968117021679516 2.976553447865697 0.41599549263499325 -0.31918574530309546 -1.0131971938710937
Ni 0.05069684518274514 8.964882134682405 0.9925010401711591 1.2488647667448751 -0.8451756022810606 0.6612751346772419
Ni 0.9114755230698688 0.3835183837141821 7.603319863338038 0.30882111423931974 0.872677150135439 1.7969902792796149
Ni 8.701039100809634 0.5827449530221244 12.480194095756946 0.2807294982094262 0.97435605263418 -1.6513953921242142
Ni 5.350197534158816 0.44894621908488247 6.610469380512987 -2.1132832764159475 -0.33456608441390767 -0.09665239581842709
Ni 6.378554709863518 0.903301884212998 11.336865676860327 -0.7341977909788969 -1.2027851987779932 -0.11825891834460925
Ni 5.931406414723463 5.251154975105794 9.473034450276606 -1.9947605628869902 2.145746282040659 -3.0466446318053206
Ni 6.281522137579584 2.903269145862239 1.690533486597035 1.1626240531780752 0.5751827737628481 0.9886069061262394
Ni 0.19810079231479627 6.2100108651894095 5.23824588118193 1.403163866542493 0.9581087375373821 -0.433712450298782
Ni 4.481117979720265 3.9576547282143686 3.4668934082341902 0.27173423668935137 -2.890343928196641 -2.4407415461404804
Ni 4.899167567322493 8.496250953432359 12.34497822894627 1.1279115893975544 -3.436462951824314 1.5520788192100623
Ni 8.474675866094426 5.0952703590278325 2.9028062956979808 0.09305722226800103 -2.079059322236071 -0.10906439632953474
Ni 8.090796053566718 7.189436849226413 3.3931988107663997 -0.5808284020843997 2.668741575166675 -1.389850951483671
Ni 4.257115096440318 1.4531374529465395 2.06260600987476 0.4923156046539715 0.7361633993456999 -0.8271064034841755
Ni 2.2956538336156105 2.2056377747779017 0.24334762291401488 -0.44882719445303343 0.41742476888235214 2.0015516176668946
Ni 2.3655239241484542 6.395058729664757 11.313034425474708 1.2019380202863494 1.448061498386132 0.13250540096129437
Ni 3.960780349841531 0.26684049579309727 10.766314336233254 -1.565971775142071 0.8878422879116515 -2.388565121247241
Ni 3.0495002933748947 0.9967413746441145 8.731480258226266 0.33570534022467347 0.8809964686344117 -0.602716974627375
P 8.10536384758122 4.286868432696518 0.7483687848073759 0.5066960417453595 -0.6031005832190387 0.0433318300184157
Ni 5.856778740828921 2.8621658384466384 9.90432136817416 -1.1130218167699153 2.432823062624352 1.0475461036646088
P 4.685915347220336 7.667389574621184 5.534262533544325 -0.40300730790544137 0.3090147183073646 -1.261921085708201
Ni 7.25112869084099 -0.17719047583031 4.956802554907714 1.0636108704369553 0.2948068022380987 0.2787181242063522
P 6.1196721020539115 1.7406946426454493 3.514380728672348 -0.37379751911070463 -0.11814039048887394 0.17071019416578986
P 6.337884748219235 7.741878946673816 1.4782235630444232 1.0709187169522782 -0.3699223524260145 0.6579686960118282
P 2.9033060263534147 0.25439609605805114 0.9087749491035094 -1.8715620411489184 -0.0956928601186352 -0.2698570742712965
Ni 8.2326937433662 4.694692904120213 11.89659351533954 0.304336853215721 -0.8798325302332975 1.8388964325950976
Ni 7.485218388457561 0.3847206877265182 2.4195381695124767 0.36157012380657727 -0.1621417357704885 -0.4048351051427995
Ni 3.6801935729748765 6.151647487903463 2.8628886960736875 -1.6432488517576798 1.3946524866373722 -0.08475101639515081
Ni 6.910786298146497 4.327529174218007 4.650368085800393 -3.136601617881443 -0.07855568621771633 -1.4654570681547598
Ni 3.945576367354244 1.291656222332627 4.355916088276139 1.2085264721371445 0.5793397333540151 0.8280224875405418
Ni 1.9340498377581798 -0.22651628875358906 12.431073891571973 1.7400215752040549 1.0576518246400428 1.3499890822917266
Ni 6.860490528305291 2.8134282693576163 12.894990824037455 0.3722815966868105 0.9914166076608925 -0.21195068887281565
Ni 5.188273737650793 7.571214473757091 7.583820225641031 -0.9475767276578068 -0.6306730935206687 0.8267708745216277
Ni 8.756691761994148 5.065729085595893 7.442464679061837 0.24747536414198673 0.7682656791968833 0.2749730553416232
Ni 1.2610915152705555 9.432646624389818 10.24947205490572 -0.4444640323883313 -1.9908023495701908 -1.1771728975265272
Ni 4.158229279474792 1.3878221030739257 12.863386087124221 1.1850636131285142 -0.537794562922377 -1.064427967021612
Ni 2.104594449078583 6.845498608642266 0.4205556169776335 0.2404014880143408 1.5780762717150885 1.3743682824670396
Ni 4.348403532223597 3.2133787559152442 5.867363441796419 -0.6364701598184199 -0.995866158791814 1.474304491243061
Ni 7.547730821000802 0.7226907428261183 7.221395638854936 0.60274319987962 -3.47579337399282 -1.9896450960372958
Ni 6.422608456573195 5.649879185331821 0.3506246736343491 0.9665126453303612 0.054020162970197294 -0.09634720587318245
Ni 2.4949652280532573 7.350733677384446 4.958003936907771 0.5534075868692856 -0.050793942723415746 -0.2711187145925395
Ni 5.309841056689529 4.687897673621043 11.4962631597228 0.13996931343850735 -1.9843668783574924 2.777440360626674
Ni 8.825298695704214 6.599339770288363 1.0598687893777148 -0.2871125189176346 -0.4014636175674054 -0.16955628306700476
Ni 8.780286056223964 7.74056968923707 7.782419826598983 -2.46460626857322 -0.836786863996733 -0.009968681176937671
Ni 0.11874503945149703 6.40979248588955 9.901122907576926 0.35244347891496075 -0.220061233795092 -0.20836502840408627
Ni 2.923719378219305 4.455366176756656 12.584156512332841 -0.6814233274903426 -1.54721557758049 -1.0686738867821595
Ni 0.9146002226847513 5.213896458895286 13.109946000819662 -1.668892777578029 0.6812909156775364 -0.6010362444908423
Ni 2.5591280625766224 7.6129908501366526 9.07422910296999 0.3543332397385059 -0.1907059205614264 1.2501027529170343
Ni 1.5421024177857336 6.9627509102134155 7.047005314317161 -0.9176686272444649 -2.1655064953867225 0.8833917083394658
Ni 7.822269197314601 2.6956135402960326 7.840054814184204 1.9852662502433098 1.2861815009174624 1.5349994951302726
P 0.39841349208787036 8.712158568899184 5.763751389886695 -0.27864690464878467 -1.268061908498616 -0.9978320242689332
Ni 6.450130523113249 7.766044888516859 9.535919375780722 -0.16973985983272058 1.0843750995675003 -0.7025963620235319
P 1.6322659985881458 3.067599394419494 4.832990135968641 -0.13795485411163982 -0.7427248546133015 0.000331929418122009
Ni 6.3256680855172 0.7313180117244532 0.1843333049588128 -0.4960902412050553 0.5463815332604397 1.8370264692658944
P 3.295963395780998 4.508142159629445 1.565222797703939 0.16000823436725345 0.01126477428054189 -0.2861920639858942
P 3.9644407385907443 2.940546102318334 11.235966185076595 0.5161875261755627 -0.37292282981523517 0.44489392083689827
P 6.8440971499775785 6.266613199021704 7.460222635563058 1.0626834735266795 -0.05860212591392488 1.3187432369035677
Ni 5.877791400676419 5.962441348048027 2.881430363012398 1.7611925528547152 0.30254042343693055 0.09186705861464178
Ni 4.600739852849471 3.4728698918292533 0.17976657813895036 1.1274693596538132 0.0966667939961303 0.900355589887314
Ni 8.023443056556633 2.3500894385913176 10.92622537993535 1.4231652493650846 0.8427793341347422 -0.6760186115350035
Ni 1.6385449022108522 2.0017624195572306 2.840204427963638 0.590960605422395 0.04923559709736037 0.2580999337353684
Ni 0.5652562241064872 -0.027529442638290522 3.509765135201677 -1.5303524832765645 0.14517296912663386 1.0084483663321988
Ni 8.494858714890466 2.3619372963815928 3.5817051433017717 -0.5795706184178986 -0.2623332550904256 -0.891024285184059
Ni 4.206985288809403 7.960377416645753 1.3431764244808753 0.6879971240531184 -0.4539753143128762 0.011889038128102106
Ni 1.4961308855349074 3.4537934577684917 7.878096118819921 -1.2605789698580097 -0.8134767285158829 0.08770958480284248
Ni 2.8166737525811 8.919731193360244 3.18899890722338 0.21977944088861504 -0.6338376072915795 -1.2747102670530692
Ni 4.210894620874053 6.008468201035618 -0.05873587024682361 0.8441721007172106 0.7770981898868488 0.22159309705858612
Ni 1.9641535386805518 2.0892060641354164 11.106405019575472 1.6881961058923314 0.254016250584298 0.011774109816792626
Ni 7.316969587712862 8.054173725828996 13.077464430228721 0.1609639134123034 -1.5635685650172169 -0.22064873086744582
Ni 7.255572790027692 6.523301417606341 5.336891052942533 -2.4758520166903684 0.1719011291500975 0.9227159598603851
Ni 9.166092874415614 1.6157896391552888 5.8430997666517595 -0.3877835489771515 0.8965796677846494 -0.9024224997186717
Ni 1.919721766936322 4.8971575805534036 3.830801512777838 -0.012426655799126985 -0.1381057778672073 -0.16212888025468208
Ni 6.449337592552967 4.189024489606713 7.0053478775216425 -1.3958897014785832 0.8173202706316892 0.08661146664265729
Ni 8.89042964312095 3.979838343656705 5.192472581571175 2.3372736700621166 -0.026824576392011867 1.5510910013754966
Ni 0.4003930524517397 7.429833110834073 12.31006807801139 -1.3658669298642476 -0.8320804596599993 -0.21229907335116988
Ni 9.028104516680784 2.0700374288467143 0.9407770733091638 -1.0847533088425254 0.45889126355725485 1.595080005361937
Ni 2.308248521352198 1.4728777358484688 6.011080261823155 0.812249283866685 0.06972266130711864 0.5463748483922204
Ni 5.5223280065997855 8.679657636050376 3.396626852421205 -1.242822160095221 -0.9493983542475778 0.517742015146876
Ni 4.337302504379634 5.275551420018687 5.075176945422894 0.4912838209553475 4.05208712143166 1.6388900605683516
Ni 1.3915009320687273 4.390355090936244 10.765478071095838 -1.5778764969994568 -0.7812893451500609 -0.5782094764043139
Ni 2.288572779309827 4.8866189801998745 6.199073033518902 -0.4243654618662433 -0.18549532289476442 -0.13097893701443894
Ni 6.389978442005269 2.128410026255455 5.606054097667435 1.6818840476313743 0.8873617487308073 -0.9988470957970088
P 4.762912592672932 2.335411003103288 7.946487301656609 -0.4989783613861277 0.40033310350738793 -0.9593917180148638
Ni 7.82136562528079 4.4243589038004725 9.771561742075802 2.320922482397603 -1.1675022072059829 -1.4165855392650377
P 4.809889118308304 6.592894904455365 10.934632287898909 -0.6544388284816987 2.362108212607293 -0.10373321392460846
Ni 2.958912586923959 8.536662751638408 7.058516637625456 2.675037949698348 1.6240540239967838 -1.4574524526827286
P 8.359885337309269 8.19399688799983 10.740081242859798 -0.18511968472290055 -0.8774612017876436 1.6154218022430826
P 2.0706459569511177 5.435326927915711 9.088533201472584 0.012394259899294782 1.535940261776987 -1.731742365914398
P 0.4002778009168148 2.3507901679236607 9.49118426199657 0.37504578969550895 -0.24047862110917936 -0.5838815870884266
Ni 0.6401411394269815 3.0412021828603053 12.621252754382175 -1.9995446145391949 0.15725304021961947 -0.8234628931943172
