# total energy = -340875.37756887195 ev
CRYSTAL
PRIMVEC
9.21678041880404 0.00000000000000 0.00000000000000
0.00000000000000 9.21678041880404 0.00000000000000
0.00000000000000 0.00000000000000 13.48968978936018
PRIMCOORD
 96 1
Ni 1.9690269044120305 5.241933314117487 6.856782385453041 -0.07509395292136099 -0.34516879963041847 -0.5987690457232203
Ni 8.816707719110715 3.1758997948299137 0.1369254129456108 0.4213369594525647 0.25161432601102474 0.13921418044003764
Ni 9.010287760177796 1.4185454716275478 5.7342246031474104 0.4110656594335437 -1.9662544850274974 -0.20624541095792223
Ni 6.009580529296036 8.894755416475665 13.247994771932897 0.5414349878884417 0.11013603212715872 1.003326471724601
Ni 1.9040209514697781 9.223232257097942 4.712879052664374 -1.7259954361282919 -1.5840227191065106 0.7016113724024433
Ni 1.7516491360662176 2.7790897435010065 7.0632290521131145 0.0020337426005771425 -0.44806434814507995 -0.09760601798094803
Ni 3.4250938894988026 3.4208726040248836 11.487023784058115 0.2515950427373151 0.15416308844038612 -0.4982548529565418
Ni 0.7799248884969058 6.962807620058343 8.33115113159999 -0.6420340270594427 -0.0920910016999898 -0.5546504581374513
Ni -0.04371518996244183 9.132493052969703 1.3444121409455094 2.379095748304225 0.29850841945940204 0.12724980898930985
Ni 2.4187689262141205 6.866814851038981 5.12272347499157 -0.44740768839768746 0.8765415181868516 1.1640656707206083
Ni 1.1615631974270835 4.86442320117807 3.2572470996177088 1.4688252132960447 0.5357543925638967 0.28520090371721846
Ni 3.583788416332731 5.0693490990538725 1.7440010515984052 -1.3489218173694768 1.298643895050531 0.8192951349698728
Ni 6.743540411707827 5.68908542059606 11.056297823805785 -0.24988525913505996 1.2189630940894363 0.6579856652926926
Ni 5.889790032997942 2.960107312731948 9.590454599631272 0.3707286503773938 0.48623571700847873 0.17530758372848518
Ni 6.00204120283825 4.402164791442395 4.690527438247777 0.7348251401502506 0.4651827529929215 -0.6230806258853915
Ni 0.067953479349587 8.966157815092371 10.575444559389693 0.8168073355510126 0.4789327555891623 -0.18259948940420812
Ni 5.155479912926743 1.6398864555929793 12.32277747714273 -0.29201535553589064 1.3424153837095267 -0.6453242677749401
Ni 0.034383199695317154 0.5468260576339229 7.98044618141996 0.18743779133311592 0.08667163045663137 1.1243673236897216
Ni 2.6757880675366277 8.837205838966602 2.3112828318978655 -1.1077574830471826 -0.14095404594927982 -0.37417212884130396
Ni 7.587981842101866 7.062588485867619 2.0603476873904976 -0.7377813945650971 2.2738424981906644 0.4583893842201718
Ni 4.5466931266313155 6.506235963897794 3.9100541513104825 0.3511880092413049 0.9047856006342097 -1.8909425025580593
Ni 3.489740388001136 1.2847086018310863 3.8961054756855282 3.066849645998286 0.9426913745410475 -0.8611089856818653
Ni 7.637374568858924 8.610390087377791 4.243060117875738 0.42499126837570034 -0.8248533457839408 -2.3252229095451695
Ni 0.278909916713567 1.0819947312778613 12.469868998991686 -1.057235305927915 1.1346900457719682 0.21179873667598362
P 6.455663489235361 6.744286970929197 0.2632266429964912 -0.8769055863944898 0.19309678939110617 -1.0691901642969457
P 1.7154732725615616 0.8929714664952902 9.523154590019896 -0.11882533237104051 -0.22591357881081092 0.2650231432177629
P 5.680320262330345 3.825480051665877 11.626386113770767 -0.90674606679469 0.15345140708534216 0.1007029117387169
P 4.543955742819626 4.398376694652481 8.372740010298605 0.2146881424086367 0.7124709408247666 0.6625964245918265
P 7.478569440658866 1.6089180730768913 13.314526102049676 -0.8826193489498154 -1.7382624264211033 -0.3115950774400311
P 3.950441161830496 0.3144046601384795 0.055089618790746586 -1.2656638405800846 0.2096536653085228 0.7514524642942865
P 0.1759133161840939 0.5349198205701484 3.5220230834180555 -0.29450264073411864 0.6045740824407717 -0.803625546753416
P 0.873859550428219 4.391980248978027 8.460058867179308 -1.0541533245684813 -0.17119021912600196 1.1671453380871963
Ni 4.187284770614993 8.664815176293713 5.5509802597450735 0.9332536261669153 0.05608501591902599 -0.07582568888106297
Ni 5.984215949330478 6.86083316048751 6.064370602720183 0.522144515089946 -0.3655049400846092 0.09911654108820349
Ni 5.852710925003233 5.333511245272204 1.8818251006438131 0.22601976537137203 0.06390091241901898 0.47286289524599845
Ni 1.60591340263039 2.451239643953459 4.388047448734094 -0.7597314164736271 0.21484215148799773 0.44674228689954676
Ni 1.2893907263305424 4.6141323096284035 0.7935620369405973 1.1549423682631013 0.5664510503168051 -0.4962013128616228
Ni 3.6917630000160555 3.9595934248776614 4.203225192508318 -0.5938685230978096 0.14521950609385315 -1.670062372406098
Ni 4.105034221337145 5.8867392786488875 10.773486443902021 1.6783091857959225 -0.238842371057337 -0.3111973277809802
Ni 6.227640339399644 1.6936755866536604 4.065171645628193 -0.8900038143393447 -0.10467912277764554 -0.6350491111011772
Ni 6.682479240824172 0.2131915066378346 6.053714161093666 -1.6080496781487275 1.6539855214488937 1.2249085130395938
Ni 3.734676330074063 7.568202631125817 12.226218797800007 -0.8287043440989147 1.4281555034908242 1.28960389633545
Ni 3.0311963408112894 0.2736913755883858 7.7841315215753415 -0.840887516428668 0.028792498751660088 0.5738838524457666
Ni 7.951722084958236 4.817076599694397 9.187679447955812 0.5360953208430832 0.7843975517617394 -0.5272278431501243
Ni 1.303962456318023 8.139947176548578 12.823569402837707 0.04393372526847272 -0.1424969649563675 0.015820769082340494
Ni 6.29258177487832 3.4160430110372557 0.25522647751316846 0.11462826357055741 0.03617516436897641 0.6758214079225329
Ni 8.436312753871436 8.061383339475027 6.343378217307164 1.7220873593231374 -0.14031075593832606 -0.1517339101736032
Ni 2.5790026553933427 0.8926230721919843 11.939157560402743 0.6153727157181724 0.48940203055160225 -0.828696630789431
Ni 4.921604107466703 0.742757299409294 9.977231263696186 0.09591911719682834 0.08652842001054775 0.0941702528265217
Ni 8.263415168270456 5.643185853652572 13.160271298387771 0.0422311407550692 -0.49700761081300204 0.09605204323026684
Ni 1.4380850463103176 5.352801966881184 11.912165296998987 1.3682665404446759 -0.341994772777811 -0.3415070345081151
Ni 8.363730607349355 2.552200257668109 9.646949777449906 -0.8372643178537839 -1.7305974536766777 -1.5472065787194258
Ni 7.851508030464957 3.6675136504922974 11.537205467226894 0.05898753427780164 -0.4078846906024008 0.3074273192155867
Ni 1.887062075330016 1.5483638251213268 0.8433603020401279 -0.5017528388074713 -0.812903372510916 0.13510247226450925
Ni 5.25915026011155 1.6966618235391402 7.467123120942578 0.5351476122178332 0.4925418617321646 -0.4106398847500347
Ni 3.7376625669595427 6.946908673677315 7.442922620355527 -0.996182147370336 -0.3680323344921532 0.1643143179417751
P 1.5103722558560546 3.2260943814914063 12.502811615893176 0.16176069828198594 -1.3948689735235524 0.08929492701209137
P 3.935279557890328 8.033650046918208 9.890465413646128 0.028133010790790256 -0.9442186098188513 -0.5256319594179141
P 4.010783423834314 5.589949729422535 5.693957410774037 1.2850026501180127 0.025133047622201875 1.2798892401508475
P 5.545580148043831 8.643275560240113 3.5656755992730242 -0.8940728422023957 0.8518458152123846 -0.20831077812738316
P 7.043380715283235 1.0306941309550801 8.689976987088034 -0.41005315900862926 -0.7521227508884337 0.560522343537196
P 7.694232887829681 6.03502806028619 3.9472724326909034 -1.6511483091104144 -0.3928925880689427 -0.014658373343123143
P 3.1241383554815956 1.4901322058544686 5.980789150336585 1.0537257501127593 0.5360374710219543 0.04609242348268836
P 6.669796950841394 3.4385872561665267 2.568450363386596 0.07388733420776952 -0.8001504437206219 0.7121976325587218
Ni 8.139449470400997 8.05308823701536 12.698964982078854 0.16783287261799482 -0.04164827166840569 -0.4390436327037084
Ni 4.828569924991291 1.0280581317290085 2.0108001187208595 -0.15702678314142635 -0.08149394291043384 -0.8895752114423583
Ni 2.4962359664068936 5.409429866339173 9.409517216390773 -0.433880343335214 -1.1505406396509799 -1.2413877416415395
Ni 4.551578020302008 7.7598287147246205 1.3379373526367142 0.30001868545634136 -1.386595934881483 0.29443296383844775
Ni 3.5958623988018013 3.0167720793119805 0.5422056855638887 1.6968470966991098 0.34099255676554174 -2.2451798401486496
Ni 4.17568084395197 3.5598893044683817 6.351755349113376 -0.10991157482117844 -0.7020723711992618 1.7085741553280511
Ni 8.104462571582227 3.0564411026302074 4.445823759043721 1.3325366911432341 2.162637144258727 -2.487460290353258
Ni 5.752496870509954 7.982524565425131 11.199235342678552 0.5226821327609708 -0.720559631370172 -1.354536335342777
Ni 1.7383861889112622 7.442227675105016 10.44812948348263 1.4424996880276382 -0.2953405632543817 0.6045085193101589
Ni 3.5327643194252722 2.561896310765408 8.960472904873345 -0.7693378292151396 0.14878356929602765 0.22307045293506098
Ni 0.5328395932088743 6.908179761971184 1.4215565938204069 2.121111514211115 -0.5749495747061195 -0.4502089052919085
Ni 8.654013109535125 3.3200778923594263 7.160043957954034 1.665669128434409 0.24202333988847996 0.5228857641313446
Ni 6.583684570529546 4.268890145257089 7.110699158455632 -2.312765143397791 0.9267657044497265 1.2417021875581649
Ni 4.812560377244133 5.331511203901374 13.041144410286451 -0.11460203831831231 0.315571802699592 0.2426859131731433
Ni 0.37534140448523984 6.974466847404429 3.9206571356100386 -1.2283465921868653 1.7408947218376276 0.5596396838219265
Ni 5.2942846274184925 8.611569835283165 7.917274367799344 1.030876613428728 -0.35469010885729235 0.9551866787945806
Ni 8.350430793072357 5.559939892079565 5.975217606517842 0.31422043087802015 -0.12641780000631778 -0.7626395912593575
Ni 8.334624014496436 4.860690405071221 1.8327494311363248 -0.6991325718446475 -1.0305804223445476 1.783200424584374
Ni 7.18173380752996 0.896826845782933 11.234159567389849 0.11208415699246504 -0.04255150020896543 -0.20074427863403493
Ni 0.4656640101343938 2.9569551737972755 2.364000973063199 -0.34914629622092774 -2.523762724328718 -0.3724903702635069
Ni 7.208084583010167 0.6113499729554634 1.7594603575490702 -1.5945416163599633 0.6114682384574437 1.0115863977405484
Ni 1.283464336462136 2.9345676139366867 10.02799268235909 1.6002810899469022 0.6836990108983967 1.4986117005298578
Ni 7.4335823349859425 8.169127503645582 9.527633023670063 -0.16550371026418592 -0.3316990472787578 -0.9148758949906759
Ni 5.771723074655357 6.298738584259495 8.80086223005665 0.27802212658059217 -0.4030875263240736 -0.3593247794158263
P 2.4750005041101475 6.520955162373447 0.15275431179475643 0.13686239237840944 -1.1502940708578124 0.6822933888001217
P 1.379770476018863 8.328946477701821 6.7503755761345925 0.6070317999526449 -0.3661418023376598 -0.43491598368858
P 7.044071973821541 2.478254027630439 6.098527069614936 -2.691650361444048 -1.947224722089556 -0.0630385644187237
P 2.957093425504936 2.9384110114096655 2.465295234232338 -1.1968068697073713 -0.4520377309705311 0.8074942856802029
P 7.842088480782979 6.6974472923736155 7.751297662683879 -2.1508627773316182 -1.00827096021407 1.9898559264965214
P 0.6964116402890869 4.150187229059263 5.233635446623667 0.17918095064096237 0.5085384942707372 1.348664449943032
P 8.961991830301516 6.4248241416464245 11.31701381579115 -0.899947812925934 1.6965262230245814 -1.5013797501932982
P 2.307273532375693 6.785034357567181 3.000498009964166 1.3682161468227145 0.09082807582716615 -1.0698115999310285
