# total energy = -340866.3645398849 ev
CRYSTAL
PRIMVEC
9.27977803946048 0.00000000000000 0.00000000000000
0.00000000000000 9.27977803946048 0.00000000000000
0.00000000000000 0.00000000000000 13.58189317508926
PRIMCOORD
 96 1
Ni 6.352221475237197 5.732879811803236 1.6892341802995376 0.027467866402965595 -1.5140408906007343 -1.592821291234747
Ni 8.170092866137233 2.0237339860307513 13.359041274460111 0.008758977139552657 1.3680842492305407 -0.3674456087507478
Ni 7.951136504249874 6.095598494451732 7.531974499900014 0.48077675077643645 1.6115407220211215 0.9688713753705249
Ni 3.0965134418318288 3.903148864620425 4.003602461460038 0.7878245751654174 1.9063066437189555 -0.2815386243742829
Ni 4.935839679465648 3.382451241316264 2.5207858070155575 -0.6554227896615228 0.5768329077717613 0.16052965408836223
Ni 2.532219421488175 7.145224904145203 3.784608052482882 1.3104120913300528 2.3476048767847955 0.5526072024551774
Ni 1.3405103308513948 6.514060803540463 11.087823033017349 1.69182033290848 0.017756038431840385 -1.5324399619332123
Ni 8.362147151605376 6.251452365945617 5.222495733767208 -1.430214957123014 -0.36144131153819686 -1.4187362670594534
Ni 8.08028317466252 9.195322739471228 4.943129873061693 0.5268830582161959 0.6575056403324805 -1.727658939873644
Ni 4.8542147521860874 4.960811562061066 8.936899481753949 -2.4195571987533815 -0.5010285590469371 -2.5299143457524105
Ni 7.177796924921835 9.252523291057313 13.152732322007642 2.5709352682494626 -1.2797347168508542 -0.6223136658123799
Ni 4.8395805422816 1.0311225323633848 2.409740271567839 -1.185109635875101 0.3022336908297891 -1.122961958701763
Ni 1.0947168509908092 0.503804715434708 6.276830702817392 0.0779465918788077 -0.4149518818618273 0.8513920155044176
Ni 6.441956928487919 4.831646332092421 3.934307575207803 0.6222617295285218 -0.7233243385995026 -0.06542943324840343
Ni 1.054321977360986 1.7955813641463416 2.1314740645552113 -2.6253205278685625 0.19178835499232777 -0.07875134716829019
Ni 2.1983515686386963 5.402816667933363 13.179175977393708 0.618005011134697 -1.2375249162520237 -0.33803681657132745
Ni 4.198607716331875 3.4250732616658564 12.22728975745293 0.10930736557827626 -0.4321448487013461 1.435347136143257
Ni 6.345558594633887 8.648474701765771 8.964660865615878 1.6536664475465779 1.1983796135111298 0.3673149967101545
Ni 0.20673396628482427 7.741858950815512 3.4894461536674006 -1.81281670478891 -1.809136684834162 -1.068190776498154
Ni 6.224921480646359 2.0033277542108614 11.396200263681264 -0.5843076188822518 -2.0036766344296977 0.9358059602751239
Ni 8.457162798537553 0.8894880646974294 8.616108692060719 0.48328254791742575 0.6111427367972249 0.45226424515904046
Ni 4.523604101414271 5.421496861045433 6.493855942903152 0.9177534736487872 0.18482220808713976 0.20242732276341266
Ni 1.1293582622612275 5.354478304336361 3.7170651883168655 -0.40390333735714956 -0.16517332350796068 -0.1935852989917505
Ni 3.6516761606244263 7.676705629484249 6.067819479011604 -0.9898814019632889 -0.7108557738188468 0.8946369422359819
P 6.315028125017043 1.7163042207005388 9.040501707268636 -0.02264627664460616 -0.769620650562881 -0.35447773573617014
P 8.951737846774414 3.9001236569927378 12.52535808273771 0.3986534018121199 -1.005053995938669 -1.767994663378213
P 5.153942301777096 5.011367792599838 -0.10578390132226223 -2.055985985356375 1.1158572293361813 0.8903673683263504
P 5.009855188785995 1.151713247460916 5.864009570774277 0.8216811187035461 0.009631866662809218 0.13116148533889024
P 8.305392029363245 1.5048180801024058 3.256816038898454 -0.05038822264456483 1.272754171767963 0.0856177352708203
P 2.0462467274564236 4.147253424885185 1.659571369925605 -0.3772811067839309 0.25591038228321733 1.020481643347649
P 0.18800273439376103 0.5592068460445795 0.2903540458341782 1.3898195840251033 -0.7628162260465379 0.13107149672824522
P 3.360068416782578 7.845244957502822 11.469284083290507 -0.16554613346634717 0.5235686491309822 0.07208884754645004
Ni 3.819231832175102 0.054031507399413294 4.433592110779179 -0.15936674412851262 -0.5192304267669445 -0.14881390831333083
Ni 2.021070689745027 6.432352358258912 1.6247341553394068 -1.4146237875529766 0.023281853346076034 -0.10937498559141809
Ni 1.0287097900836342 7.256684317691679 5.899607727156396 0.7321635341576874 0.6199040279296226 0.7583448205387456
Ni 5.233831910570835 3.452058856087066 5.385098787799795 0.9207693776569755 0.3205815972093576 -1.7201029819032572
Ni 4.158565474266015 0.051891590592834554 7.640629564535179 0.7119194391966707 0.4471981434900428 0.569686012314335
Ni 0.29960041663242215 3.658032808553769 8.858721992001032 2.305292746280146 -0.5908467055523502 -0.6545966942158017
Ni 3.221270777250929 2.4238872931273767 5.9337118392806705 -1.468303793574936 -1.4361776024643524 -0.8194954239061369
Ni 2.770718995841515 4.183518797305435 7.373758924905372 -0.47663856023834683 -0.2886346119891158 1.388903499968737
Ni 8.193366549358828 2.8492444772693957 10.579317182048328 0.7222822704882335 0.2035670927948107 0.385507094238149
Ni 6.112543369077979 8.553134262603628 3.3094722831984096 0.4508912760709138 1.177967368403365 3.616658716883036
Ni 6.855417437235168 3.9078258727319413 12.986164018836066 -0.616519427728106 0.30305747228266516 -0.8270248995139627
Ni 7.224891798266966 3.9192585592267593 8.405276775811517 -0.9359939079162137 -0.7067132124053829 0.10693012359535133
Ni 1.5235632316604675 3.748334328262432 11.591208302486502 0.86987181947616 0.47829100824010534 -2.9221209634979224
Ni 4.838912398265669 2.7352609641071814 7.425316443490242 1.5484419937884235 -0.5061381123593606 3.6587746722164796
Ni 8.124714751721926 9.050419006016211 1.8069620838843647 0.18968596393734427 2.7225781613711564 1.0303788478567026
Ni 8.845410150461408 4.832082481658376 0.7322960492160826 0.686586873969153 0.1623901043358687 1.6400835666558207
Ni 1.7311889846109998 8.809107658929163 1.7794995088740044 0.25750138091942104 0.12876033209656537 -0.023967052338558722
Ni 6.54968587127878 8.114349239696997 6.3948444235645905 -2.4257404447459576 -0.5854047086011724 -0.19130241649484472
Ni 8.122478325224158 3.1924477867859093 5.100326528432039 -0.35670816772858566 0.07167875659222495 1.1041864778664725
Ni 4.2382880470557724 6.156919267469391 2.395777917590483 -0.07924757007841836 -0.5170979538049739 -0.2521601712121657
Ni 4.014506200608911 7.552106050291132 9.494693945587075 -2.0684555785782957 -0.4388101765366636 -0.2489079828234552
Ni 1.497301459923183 2.715884787645185 13.648716040544759 0.4040054101526527 -0.0877653777414424 -0.13520017418463812
Ni 7.1341170098803515 1.449835395458091 6.635542377325902 -0.7734071141885067 -0.0466287556021326 0.17512297852150485
Ni 8.509649222900125 6.055760407501851 11.86511486979518 -1.9734543452100466 -0.7639899346396649 -1.1106080651221002
P 6.863463004760336 4.768859354150912 6.379971723365529 -0.92059839929675 -1.030711291495457 -1.7546727494583267
P 2.138422762320893 8.39132277363436 7.95203571473798 0.019340095089508628 0.056548328708689706 -0.10818327927616207
P 3.777927540301372 1.5229786056465282 0.12558323566101504 -1.2588558165193158 0.6123380426569067 -0.7670464620778016
P 2.5935216349498367 4.6339963404908575 9.696330529817025 -0.6351141600111577 1.1587342312053657 -0.15504137728028136
P 7.339432098109122 8.138755055834475 11.024504323796496 -0.3976326738570894 -0.017537751773447213 0.09174338855258393
P 8.455705873391704 8.592072211087602 6.938201408786808 1.4748500793338857 -0.576258266215214 1.9921730046654724
P 2.621722880288921 5.611008487341837 5.285325398687512 0.06077882185026952 -0.05501517989361493 1.8705683097770816
P 3.8854337684202562 8.301782195721618 2.2766107204380046 -0.6947061606421777 -0.33141751148259696 -0.1936773444849245
Ni 5.8034154043739425 8.395452274843933 1.270208588686264 -0.24117076208019753 -1.0509461304850933 -3.7654512850401276
Ni 5.8352914418006465 1.553676111267354 0.3423477139850022 -0.1984616532474453 1.241554863347023 0.018708632153096812
Ni 1.7232269350878229 8.953259730366257 12.636443521230825 0.17403205945017125 -0.949480886659055 1.3479954489004653
Ni 8.218496188180229 6.965113692961826 1.372056008181333 1.0525301871427615 -0.8847248253285925 -0.8637412810983899
Ni 1.7704610051029392 6.207920927352118 8.348966154935539 -0.6037554431942181 0.3280493663413125 0.26381523895259085
Ni 8.976227180913881 3.8106480375259895 3.049352682062905 -0.001161624408268967 -0.9682820785259583 -0.9389725309285635
Ni 6.183264557208667 6.298575078624744 12.111938405013657 0.5810659720165025 0.9091328218593115 1.3869625741922822
Ni 7.080813965053863 3.3290925178217807 1.7143341238313425 0.44935889858678746 -0.8793604756928854 0.6158018328357912
Ni 2.787905144695738 1.6667966050756577 11.504882239672627 -0.09290706984338193 -0.7630877345403697 0.4117549721910844
Ni 1.3183780603236832 2.3590123651360844 4.625775385161507 -5.086172471605673 1.1029425781570426 2.383579237996875
Ni 2.794011238619107 1.851863217710522 3.3851785680701814 4.504379391615158 -2.2478782129164188 -2.604707736714217
Ni 6.20277065056265 6.3488900349355415 9.791661689201167 3.3403471452356475 1.2500978678210277 0.9447536563867148
Ni 0.7098417703918043 4.632353819785028 6.176433712623574 0.14044291064081618 0.12952677794894468 -0.13131446597698676
Ni 5.381064868303612 8.678383426256678 12.12826339046957 -0.5068868175999272 0.17392870110308756 -0.9754307737555976
Ni 5.149246734109582 6.793586276427561 4.593898419757003 0.18526752315467448 -0.3256546408568908 -0.5987595326415237
Ni 2.3975698427220977 1.6547792925669003 8.298455395308961 -0.5874322805541625 -0.1515027679994036 -0.47240215355949616
Ni 4.506482911006041 0.43750348556496327 10.165911423991274 -0.1445862433852284 1.401588551635573 -0.06309847112238165
Ni 3.926385428730022 2.990649734418775 9.782222299020544 -1.8150268250663517 -2.3118310616192956 -0.4577990589343406
Ni 8.99520432692192 0.5088853938891826 11.34711487795534 -0.7851274879492285 -0.3859269553843869 0.056873573258592366
Ni 4.175334033110281 5.592708765127729 11.233705783051265 -1.5645993202745763 0.5540452204532845 -0.11255235487813518
Ni 3.9584099426047112 7.336991516495375 13.358484487780169 -0.314436146433252 -1.6156655428227722 2.215506738564249
Ni 9.113289501959711 7.710613938292743 9.077444503482816 0.0800060455109977 0.33042840809645024 0.33924137840239
Ni 6.283226325814331 1.7712683457888554 4.054222722467004 0.4462442642172056 -0.2789945177961905 0.2330185652867084
Ni 1.8062531088452385 8.984940892454981 10.339080433253567 0.6961963720344592 -1.3042105905050312 -2.2621501494544005
P 0.6341531170982303 6.8964990144369205 13.104747517952404 1.0973422012511296 0.9479639357938964 2.327390349510134
P 7.153530305454344 6.774794725979505 3.3953918917359256 1.6128910654014288 0.002055596977448073 0.5629564068999853
P 1.0622654673281646 1.647188434163685 9.994208619652825 -1.1166393589178447 1.9202561639205125 0.8943075839210212
P 5.727079950553835 3.6893056604105356 10.362020044467195 2.2576597177832154 2.2162816690570604 1.0057309674010357
P 5.270960302344997 7.134228367216339 7.937380161344096 0.3609314617813139 -1.206949357458012 -2.6035944490453806
P 0.6183877022556603 2.5473083405146153 6.883588987284655 -0.04166421250800567 0.5401085557675344 -0.2992596958031298
P 1.3628745958290824 -0.06893668682147212 4.204451192537871 1.820614089346142 1.4700020072129651 0.21111456612476542
P 8.616329550777095 5.498129267761509 9.540016381334388 -0.11717262725896595 0.3568392939898113 0.5932691989509138
