# total energy = -340863.5190193511 ev
CRYSTAL
PRIMVEC
9.24178928022504 0.00000000000000 0.00000000000000
0.00000000000000 9.24178928022504 0.00000000000000
0.00000000000000 0.00000000000000 13.52629278598633
PRIMCOORD
 96 1
Ni 4.3137623248224015 2.351610286503458 4.867179159206613 0.2861169877735847 0.26526019892923347 1.8649792457250782
Ni 0.7357702782566372 3.4036586275568803 12.222277605512849 0.24554857943291902 -0.14189147016188464 0.15449964584419842
Ni 8.217022846938182 5.013920291706404 8.89168456515482 -1.7554790474097057 0.5218935754214045 2.0285602850452547
Ni 6.703836938915236 2.943112535110596 12.481183563734408 0.21739037183114818 -0.35488422714596946 -0.4650223161556572
Ni 8.548479624687586 5.0246038002824065 0.21766909380449898 2.9032279832481613 0.13407017434525298 0.8999791803845016
Ni 4.253940221870446 5.459254398758138 2.808680541946771 1.2181040885232506 -0.2643117189730351 -1.931888348842802
Ni 6.58563445216172 0.787361643546147 7.928139296356782 -0.46789218150428447 -0.931789125806247 -0.7246461427347197
Ni 7.361676752019384 7.116048472665595 8.37418224865746 -0.9619628211761498 1.1826426623918471 -1.1449698304314218
Ni 1.1912666569607695 4.71987427755186 3.474445189483376 -0.3216074673707106 1.0128981745734362 -0.2922891780225676
Ni 2.017695192766843 1.8352530277159316 9.448819371424952 0.3381088074598435 -0.3195693538947593 0.30822976051222406
Ni 1.7999771174783887 0.8703861830300319 12.574474807091201 1.961830902038505 0.24069870753978545 -1.885190944786263
Ni 9.123365135907482 9.047859716300271 11.454795051021183 -0.10906311077795411 0.5340438376306932 0.9767410079265888
Ni 4.271092983044373 1.4517372501320833 11.381131520046495 1.6990433330194803 -3.2340703389535785 0.2220031880128112
Ni 0.4315056175341987 5.914366319022165 10.823929248713554 0.6702261732229425 1.4834445058711163 -0.19224061203839796
Ni 8.273000365489086 7.553527058705564 1.4588377169477773 0.4009663662160127 -0.004063628546412356 0.4704846248218091
Ni 1.6184314060017606 7.1366114541375705 1.7988209696212454 -1.0481130319116723 0.050397735726261585 -0.2575214355240791
Ni 3.299670012939948 6.796291800329011 5.860874841826752 1.6670706367676256 -0.633429058999251 0.10428522977333654
Ni 2.7839504376227886 3.0633020065906176 3.0353003088099704 0.8832019609261629 -0.10079521434220705 -2.5892222394841085
Ni 7.130031300066539 5.054547198021374 6.801845191594858 1.3995342402097057 0.35250955626620584 -0.15156601713717124
Ni 2.9270780304571677 9.23413722396281 1.2670391642823806 -0.17555749495576217 0.1758742548652326 0.22368443236997607
Ni 6.731821077295976 0.30905468018173077 0.5631669222282267 1.4557431833011059 -0.4430843784319853 3.3113209332066256
Ni 1.3207718521818037 6.005019031497947 5.746861658219863 -2.744744670165866 -2.4313845304056128 -0.4004518884734393
Ni 5.014336172230557 7.4392246070896535 4.315131033836335 -1.462635796655881 -0.564661305406234 -0.04703139035718997
Ni 6.175862750819722 1.3958706330542878 10.168783417226974 -0.05349591503561109 1.191273855704284 -1.0766299084044426
P 8.007529964238518 6.992947837516507 6.196124449956423 0.1951783545104832 0.7388106071605599 1.0577065891373785
P 7.134153138150359 8.707105698388707 9.899136651334974 1.409439929359192 0.6649057894512936 -0.051655776503078774
P 1.082675631209885 8.203788604480714 13.489069089838623 -0.542801272108349 -0.4376747773806398 -0.2901693034660874
P 6.219419304382609 4.047876043047682 9.025013088661227 0.5130518087600583 -0.09659763132109171 -1.0309637738258954
P 4.707906160245698 7.683411167293047 8.440081752335695 -0.6271676514705715 1.146788114587083 -0.744839329853143
P 3.074900452319755 2.9115148570644447 11.423441356215868 -3.1588840834287275 3.192821616716437 -0.4496304070806192
P 2.0637193041063675 9.129917564610237 10.498648758837286 -0.4985132488242511 0.3321543896486215 0.15189511834181582
P 0.41797286527828204 1.6294476189970843 7.763131767057278 -1.988329719659982 -0.7158984784490767 1.8917164046096064
Ni 6.84079101641331 6.600735536083162 10.553903569455107 0.7298207449571238 -0.44769179529700964 1.1116503903436854
Ni 5.305581924189142 2.8157606768257284 2.6184466242311295 -0.42845171612047506 -0.29276868876214746 -0.33334532463292915
Ni 3.4336574760324012 4.0724499611303715 13.355103807040791 3.5251019904199614 -2.443511909796766 -0.179324161087046
Ni 0.21193456346590972 2.2419287296003514 3.536245959551354 -0.8346297084444142 -1.5039092014833713 -0.14882907782198238
Ni 6.62407105438282 5.279575528745483 13.053210589484964 -3.9402598176450074 1.68933716147531 -0.8695208638946443
Ni 1.7986000908539734 5.324971198404066 13.261096325003516 -3.108794622971504 2.692908916441498 -1.0675449153840388
Ni 2.71685504639288 4.901651033764128 10.668065545871748 0.18394649035040578 -0.2282201154568005 1.2642057679773195
Ni 0.5103112801452939 3.6534179867839156 9.82893509467912 0.4354674853166758 -1.4632304928170865 0.5654346932371488
Ni 6.7687143006829995 1.0980539688140953 3.2607158705110133 0.7851971648448993 -1.1170430221141665 -0.8674634671449835
Ni 1.9103148414307132 2.3870063400035333 6.720051658462465 1.0169263218962228 -1.0363985716882216 -0.6770231415401178
Ni 4.068938081148641 -0.21342341574237506 6.54308710200411 0.8361240336017537 -0.17944757403878772 -0.28778666216652377
Ni 0.16601026345218237 4.12067361835319 7.1609681901687585 1.7955638312457334 0.01096781186541337 -1.5391379427786784
Ni 2.0553000339396394 9.29760983373788 7.652270033644521 -0.7881706456509264 0.33091460370424947 1.496112588257088
Ni 4.997996688526082 8.274016962325902 10.452118197437239 -0.13091697342825195 -0.6757049369493267 0.5909940297634919
Ni 8.183539843849207 7.256098549621246 12.64535286273301 -0.1837001786675546 -0.31061137337052314 -0.26062475703975113
Ni 4.234587914813225 0.6110856004000002 3.523707623837633 -0.5529476165137316 -0.7388304046549018 -1.0870649876948375
Ni 0.4097504452263193 6.583776852487174 7.89386334773509 0.465689774536327 0.752754985155794 -1.0020074958028615
Ni 7.385039995687319 1.4482900626763318 5.47783778893515 0.08297644099323129 -0.035206372697803884 1.0706029854840724
Ni 4.162723760239703 8.611656497201036 12.611401300920155 0.4829015104289232 0.5191458374729382 1.4362796752598552
Ni 6.576790059681414 5.907028338218233 2.14435022012902 -0.48965348444077605 -0.33628640953912403 -0.486512110598317
Ni 0.20043685324151178 8.444943857752508 9.284311822933374 0.4555079489073187 0.08652096381138003 0.78781377653214
Ni 4.376939197335853 6.2765243212434365 12.081711836707248 1.2842027799245366 -0.02086964436015761 0.829338635248804
Ni 5.760712328032021 3.381552267250828 6.977105562083131 -1.0300500037623743 -1.4903893126200654 -0.40542543042863083
Ni 2.527647891482424 7.3390898186632 9.498514321524327 -0.12267838756854356 -0.4418091112639875 -1.1311797186258647
P 4.3247692960282995 5.162121626935441 4.756791529591389 -0.13613425596313328 -0.5236691792645883 3.3750927762469485
P 1.9983244021307707 1.8332383176211493 4.552341891381279 1.16833653018182 1.0538579048152497 1.8578369782533422
P 3.02711115919994 8.032723082212723 3.4417791605796246 1.5253658286952503 -1.7323877128078808 -1.3792878312558439
P 4.063337556756723 2.073700436686023 7.1185899647576365 0.3618017802014092 -2.812481411391208 -0.19154821395706365
P 8.10869983308064 3.4273268502758603 5.332267591155583 0.28353842841313104 1.209302945291853 0.37522833801996025
P 5.702174833810224 0.16400479514682562 5.170885615847745 0.3326575545372852 -0.08907355502990465 -0.5607779111914277
P 2.8596129676502344 2.0984776741360758 0.7767271164541008 -0.37429091380735535 0.014144924041814349 0.797625106195607
P 8.105372788887422 4.779003246296894 11.491545950851053 -1.1650000096094195 -0.8995762885191281 0.0772865896973056
Ni 5.481564078431554 4.743311455535199 10.840945231403984 -0.07741720173789893 -1.904078011498753 0.45973664227668565
Ni 8.603468271769948 9.02905267481916 7.293187698944093 -0.04489223252700011 -0.1801875375286058 -1.8518583920724043
Ni 7.850678314107112 2.538710313424876 1.2431851815959458 -3.298257158044133 -2.1185779491559837 -1.6450409106610961
Ni 2.512417422509023 3.866940289673144 5.216807143324644 0.5033412663405138 2.674750500364916 -0.02421156424919701
Ni 0.444500497645545 3.4769922266490734 1.517325305506675 3.836438671992283 2.0089152571208175 0.05514193527946632
Ni 3.3896018658405316 3.9497836900842875 7.48285324661006 -1.0860311471136845 3.9640301805917275 0.1816111573490098
Ni 5.429107681651808 6.704788843226074 6.782205464886501 0.6773296170369433 -0.19421959014163973 -0.84081963930521
Ni 5.558215479927541 8.226421746784025 2.1757852426812803 0.07889481472468993 -0.22174144971099227 -0.9803248686231051
Ni 1.4593986935659118 0.06891509956781042 3.7615265911267834 -0.18984820054682144 0.011811133702315143 -0.02321089089882454
Ni 7.2569857614061055 7.841621360470017 4.332999109511803 0.8453252404850473 4.114209601794018 -1.1979924053750401
Ni 3.6900431982775967 6.976063088235923 1.037213420667438 1.9818615954371355 -0.4232465177704518 -1.4195315092672391
Ni 7.570439533354425 5.77539753142931 4.47567477884327 0.7326821256653188 -2.7705336062045123 -0.18382847671530275
Ni 6.0240571177146975 3.8682526237715806 4.437340760484793 -0.040245992004240366 1.0077078886217485 2.0494263298609865
Ni 8.296243465894488 2.1041613746328243 10.522806796395825 0.33128664233168753 -0.5193368704378217 0.436283553460068
Ni 4.217860275952876 5.751230252081348 9.099232051180394 0.6886890079138204 -1.0844213794244033 -0.7140596254681251
Ni 0.715737775497691 1.2591476002918547 0.9164370955588901 -0.8738104924089338 -0.6732629031667372 1.680401549548577
Ni 0.5756719875000158 7.167423580082546 3.7883897004501956 -1.622486679509664 -0.5500283859844075 1.066099955407396
Ni 7.826307715391787 3.7823409492711355 3.114645691923521 -0.6636145814436958 -0.7717855194246838 0.41874168792156263
Ni 4.415745471133977 2.8397800875428816 9.172463066409962 0.07582234644695329 1.5290008543446765 2.215982649759403
Ni 7.82690843170445 2.7193133623800914 8.070733637941302 -0.13618902046046868 -0.19223007051543667 0.4988282089615087
Ni 6.662821877444391 0.24269955628481354 12.031028939318276 0.07416115669444648 -0.7931626995488792 -1.9468017756195244
Ni 2.408382598944963 7.180195733068735 11.856797179993073 -2.2097454106004397 1.4210039800477074 0.4775914110699194
Ni 5.048161121528279 1.7790167390611116 0.4637557659137976 -1.261635179036666 0.8103728927795786 -0.5150881224637968
Ni 4.341145746890476 0.6463883118268771 8.82230830029467 -1.2430152499426335 -1.3945588984823014 -0.2465844768966011
P 5.527615915139355 4.0587443874121965 0.9627652617705165 0.4971899020271373 -0.1290333832522939 -0.7790362874498261
P 1.5437947146005568 5.0882704876354135 8.869271377439837 1.8660948473867605 1.4001860148610916 -1.6151623779341087
P 8.78607678903052 9.104705963057182 2.900267599333481 -1.7257969469642407 0.8529300494154988 0.02010628383157182
P 1.6131081352926109 8.030791548222771 6.087048230260693 -0.8878353459331162 0.9240259369210603 -0.8209043884385218
P 2.5475547059051817 5.105950030806601 1.6477861017543167 -1.263246489387844 -0.707081394378079 0.9846355801833171
P 5.981387775936669 7.48999899819394 -0.05622242597068148 0.0248751659751249 -0.00023139928451573053 0.48224099402678877
P 8.717835415911837 5.456260058984242 2.379977959145359 0.8320930580654895 2.347497147562338 -0.2665262101258507
P 8.608190826166433 1.6886874892152266 12.614823535544458 -0.435001858534167 -0.5258448467596686 0.9428983483455311
