# total energy = -340897.1165121454 ev
CRYSTAL
PRIMVEC
9.03488371926426 0.00000000000000 0.00000000000000

0.00000000000000 9.03488371926426 0.00000000000000

0.00000000000000 0.00000000000000 13.22346558319128

PRIMCOORD
 96 1
Ni 6.295217903732171 1.9274930713872014 11.448427400778105 0.6243808327540536 -0.21315139404913616 0.0003666393107993686
Ni 4.646956950543202 0.19859668392309524 6.010408551774675 -0.6205357479763506 -0.0268932248464182 -0.14480530137456996
Ni 2.92782636896017 1.7161852094697656 4.701206910218388 -0.6152536736418048 -1.6317475359862996 0.10027765127584021
Ni 3.4054826048012425 4.302818227247703 4.909608250022824 0.6139606658619943 0.0016884434460164468 -0.2737180998885996
Ni 4.958913417803559 4.596831415314968 2.5330209208978336 0.504509318506686 -0.5071884080007459 -0.2247936062737548
Ni 7.352796224954398 6.093053344203158 2.6631792636528773 -0.09213985266005423 0.21558288630876418 -0.31819535636536816
Ni 5.166634430859133 4.577469659367941 11.39086525270806 -0.23288229681916023 0.812337215594801 0.8764391882810326
Ni 5.458795467750878 7.91148633344544 12.435810095936482 0.015811256000643738 0.10333906380998333 0.12558681946459013
Ni 1.9531792459823474 6.673634976100474 0.4227530540683739 -0.3818754110228326 -0.8210558264147214 -0.5997692048529606
Ni 2.7050080651031574 1.760781395822787 0.3249377882798101 -0.32517307323478195 -0.7086045158908248 0.31342570289086663
Ni 0.620120090308599 0.06004493413361927 4.594361278088689 0.4879719829732951 0.26740835562048787 0.9228506856660365
Ni 8.496413744442393 2.543545657016682 1.2284894107689934 0.6567980727424947 -0.717788496382938 0.7094396101976104
Ni 6.781927093123836 0.8045021915758579 4.943407750255129 0.11893640402760805 -0.7003037093346134 -0.6303473347501338
Ni 0.6568477963749823 7.6408283199573 2.337062423039382 0.46404118318931054 -0.7744808068686598 0.7210846506357066
Ni 7.434182458071906 3.8719446196351446 3.7992472342517742 1.5511282823713353 -0.889430458334378 0.25245019164875876
Ni 7.406544748579626 3.8679060265841314 12.65654947303502 0.15313721827903304 0.05370468861230751 -0.18365801257570952
Ni 8.094370450981472 8.64791067571619 7.021435537793234 -0.20905948336794963 0.03295974275547227 -0.2605332257672094
Ni 6.617907812926764 0.8099890764972904 0.48075068353675926 1.3065358962040983 -0.6163319943076482 -0.6232647168717396
Ni 1.7531469190261288 6.525336393685869 9.256637777574392 0.2714874107858679 -0.020827735378628646 -0.10182031317261173
Ni 0.3334712360128792 4.883661870774727 1.2223212956103207 -0.28992093490070714 0.17458793195364125 0.8333973786992098
Ni 6.421444265064841 1.8707268965784425 7.036747858828709 -0.2332201397745532 0.08412212456190028 0.38200653728405826
Ni 3.1935242312514287 4.292536529502619 0.22899726087622455 0.38224230744394816 0.02323994436454707 0.5210021739553865
Ni 6.000834285429802 5.41686457211385 4.702793435810688 -0.787373860781244 1.47356272798103 0.5837656303358526
Ni 5.227529547556736 2.734525030422307 9.280029995177028 0.20463127239326692 0.22991781487419757 0.00751713431265157
P 0.3227856789626931 5.646233166713556 12.358161594240013 -0.5395740234203029 0.1785155491428216 0.3726976011783065
P 3.9487049922557422 6.228811507926922 12.628700347262217 0.40086635030303863 -0.14872160570984064 -0.22044432816612358
P 2.3140415391602294 8.654515175761581 1.2288932700740947 1.6485229556724255 -0.036390879924208294 2.035810538849765
P 6.453951776916172 7.7457142857944605 5.7402799824762205 -0.17042300194267423 -0.5117158635574541 0.33722537641362565
P 4.595674950190741 1.0356596931646043 12.666995605664956 0.46594379952866205 -0.42221216296866637 -0.3760307793165975
P 4.0738562024182325 6.216804147379278 8.128980380289116 0.387618484154197 -0.6745841930813221 0.8063298330584564
P 4.722551823155789 0.9408476227455188 3.802169115667205 0.427455927866109 0.8651723571179616 -0.3305675047774758
P 0.33314146275479867 5.697334469390357 3.452488394659197 -0.2107834080375918 -0.5742936862896755 -0.057572141987513745
Ni 1.1651837870780797 1.0919560540166455 2.5173905719531966 0.81157951149317 0.9153623477087912 -0.5682842468708019
Ni 1.9281435830195792 6.333336078412762 4.764480911816061 0.6376821778486501 0.8378034781867056 0.4790147737800073
Ni 6.090089902322325 5.613165492067678 9.201178046960658 -0.3203350284161902 -0.07420589388945284 0.36599344968525355
Ni 8.689299478326236 2.3731748535201413 10.166160554755777 -0.4441339027424222 -0.5401764328909923 -0.056850176219824675
Ni 2.503593400928136 5.069057686002442 7.1422319339723055 -0.32581250659099376 0.020321228055855324 -0.3798938618164296
Ni 0.41009518188835303 -0.16977992209713053 9.186790898024567 0.993917005485243 1.072861699611262 -0.11880964864175668
Ni 1.4914424753669684 1.3154881136925172 11.299332845102214 0.2235257953049247 -0.6988782897419964 -0.05387412431063625
Ni 4.055470213919772 6.931942303457217 1.5943272144461884 0.6798444130389969 -0.08772578275275861 0.024531152372144847
Ni 5.750992644177755 7.858532879593119 8.026485044700943 -0.40788083394765884 0.08190531941623959 -0.3403675215870332
Ni 5.310207769055215 2.8333937636599718 4.828297006440716 -0.16329590397958973 0.03909748022209395 0.06853301187439165
Ni 0.967365006648703 7.108655595369442 6.956613860603528 -0.2836369016642083 0.6821154684613607 -0.2345684262723315
Ni 5.157229116841003 4.2406040175177795 7.269283180194366 -0.06939201744057727 1.0259292967257814 -0.13513641082623826
Ni 8.190962393505815 6.941302443056433 9.257034408972466 -0.19845393993796145 -0.33788897813955354 -0.36710416625092906
Ni 4.647218962172911 0.499822419714351 10.346832932741727 -0.5503562016374716 -1.300101196322348 -0.08643457474516081
Ni 8.38778733671906 7.186211037762947 4.755912228036238 -0.7094714918768104 -0.6284205500410661 0.6007264265599073
Ni 7.1908549680274225 5.906211947570159 6.854211584318323 0.27851912082166874 0.40671201045053823 0.6413542273835986
Ni 2.4708600169822295 5.292210280559425 2.54398294539178 -0.7149906219228267 -0.4740412318248158 -0.1414358706817048
Ni 2.319579922919225 5.319043885395017 11.408412803991455 0.14496599532215032 -0.13365288430217626 -0.17730481666417205
Ni 0.9801584020854692 3.4496812562678105 3.6870330741782005 -0.2299664087239459 -0.06229448716384755 -0.013151449780293478
Ni 3.7003902463630274 2.5867775759184664 2.608487498160702 0.032442693909737676 -0.09221749997552504 -0.25229721101066227
Ni 1.0664957515160753 3.371565651079759 8.167156378225917 -0.0020437699029061574 -0.35786799236464173 -0.06600947412158953
Ni 3.522918024213028 2.636541715795379 7.0175342749757235 0.14535834566456257 0.0411204241893937 -0.16884948680796724
Ni 4.210987668477016 6.757966581331249 6.063977281212621 0.17784886209310016 0.24958778249929917 -0.8661974559483663
Ni 0.8657026873453263 7.609956122070696 11.497869898792342 0.43102359061270923 -1.3228963398399927 -0.9530999714688811
P 0.16587323834934967 5.374156676471481 7.920392921878748 -0.026677252180870185 0.28825511716251 1.2282656024372844
P 8.467167825636734 1.6053633249871562 7.876861044835368 0.5180443768786432 -0.4196243476368322 1.64846022075529
P 1.9311883388544593 3.2372530687612797 10.295856311461131 -0.3041141956819537 0.397703893414657 0.3165871313379838
P 4.072491934966995 6.0765827510667 3.8028304691601225 -0.4070159148442023 1.2548428387051809 0.030216118572064087
P 6.902154291624576 3.770943653824686 10.437188998479021 0.23586734758941313 1.14953713808713 -0.5549361076986701
P 6.304812950309745 7.764687541738817 10.284840981152865 0.20887256416812416 -0.27016380687843794 -0.21148943296568093
P 2.327349922972628 8.439349418468794 5.804294844544101 0.7213402182899383 -0.019347037068044103 -0.24569924607817037
P 6.937426477913514 4.017243620633785 1.677370445249503 -0.5623843364465992 0.5420559093018923 -0.9064143944868841
Ni 5.13388297714566 2.8106168216429603 0.5559688014955941 0.32300460482855337 0.984047568890331 -0.22904518246125716
Ni 1.4693792891688164 1.1210935542169078 6.993731873649339 -0.384647317341015 -0.506738722057837 -0.8323105733929343
Ni 6.962263373433055 0.6257162973238061 9.281378903325832 -0.17499313781185993 0.24943531608183492 -0.31503264236667033
Ni 2.6525063554399875 1.5400772547710029 9.000552128139896 0.21116033176103638 -0.21686175302118782 1.337833163655483
Ni 6.395360555583243 2.0110476766126353 2.562787249009394 -0.22686977207649314 -0.22686103032574478 0.7335997523835818
Ni 4.173393517055841 6.886677535704251 10.335910661736424 -0.10707693358586075 0.6043218572206495 0.25012951393538213
Ni 8.301974010547868 7.0981389906459995 0.46921042648069883 -0.29445147578120906 0.2765463133660141 -0.49051017601411656
Ni 7.589654738210235 3.753027479282943 8.30507658963896 0.0969051352591815 0.004245148429599141 -0.31094741655370317
Ni 2.9571445668360927 8.506668337536128 12.300282321749187 1.371863770877631 0.05861883808447324 0.029886246036471106
Ni 0.08504265058449842 4.775812463056734 10.397240356343989 -0.40773582372936235 0.03160579983073912 -1.2033613829964371
Ni 8.635370257025349 2.2933877948322294 5.792631713068592 0.21721913636060652 0.8936105578539966 -0.4520181905865054
Ni 3.8428161543186654 2.6702508671898526 11.421689565710613 -1.2431710587942073 0.12918045035311945 -0.2731380590154135
Ni 0.8505258895665976 3.4552106051430234 12.453264587916912 0.42883326782960984 -0.5144857129931075 -0.0046398127648565254
Ni 3.1607004984676914 8.299317754715657 8.050512414633525 0.12017618997198015 -0.16338434992833797 -0.6147453665468187
Ni 5.418960665151513 7.974242636202346 3.673240420595031 0.6684382280845843 -1.4818897597894867 0.5686292889150465
Ni 2.890982112892986 8.285711219738419 3.503054832216043 0.3803947127122481 0.3602190090953215 0.1642677809745558
Ni 3.600663199165975 4.548657414983868 9.453349784740347 -0.23401975285771306 -0.5512123789901797 -0.4074285769015887
Ni 7.236969014855992 6.162612914448683 11.531787756002203 0.3282982491273249 -0.015155367584199705 -0.17700708291809517
Ni 0.677749096518637 9.135622737207772 0.09177634946798847 -1.676448992658732 0.767609276559807 -0.07828983415083936
Ni 4.680837764729554 0.19609311762681844 1.6892187918425647 -1.094649999130947 0.9017560697792665 -0.36848844819296533
Ni 6.043469902001906 5.715449411375326 0.5315195024903446 -0.590890157195776 -0.08186186777281385 -0.7293324924667955
Ni 7.989222473514605 8.783081571994057 11.455025576404848 -1.3690041899416487 0.3448088451878384 -0.1560129971649313
Ni 0.2434277772544753 4.850792963572075 5.744405310411549 -0.2856323348276823 -0.5940819246601963 -0.1601748418521048
Ni 7.743771785781109 8.801133269792544 2.9099824734886917 -0.5723154795173822 -0.45381539169624424 -1.1581125384609667
P 8.408224243836266 1.6620391509580845 3.6472434459977494 -0.35928544153745867 0.9333811528837151 -0.42570629216485395
P 1.8438029429050222 3.240370103666424 1.6774101987381485 -0.5395771087440966 -0.015691185483011686 -0.8684762246802139
P 4.649025938929515 1.0252244023952082 8.082949454391349 0.34177005836151464 -0.37699468589176366 0.21051781308103099
P 8.296769917488845 1.6610904881608666 12.408318751561488 0.9091068537173828 0.4955060865668111 0.09665136737716257
P 6.383091183405891 7.754947937020715 1.3333220707918343 -0.14250982047217392 0.00888804651824921 0.9253235726865612
P 1.8127861868778903 3.119094858646852 5.753093254657308 -1.5994822481946906 0.8828782590381569 1.699522586648744
P 6.905081593970277 3.847776305515547 6.052869795089767 0.2429088278172268 0.14468728773946693 -0.5516363539014758
P 2.4565397261861315 8.52592167487776 10.161029644255397 -0.8359538265724764 0.4215637307513901 -0.2715748282933516
