# total energy = -381173.2169942444 ev
CRYSTAL
PRIMVEC
9.22928218020252 0.00000000000000 0.00000000000000
0.00000000000000 9.22928218020252 0.00000000000000
0.00000000000000 0.00000000000000 13.50798738087380
PRIMCOORD
 96 1
Ni 1.1818834356275283 0.9754336193602731 3.2377835988886376 -0.7725079994130051 -1.2140808262964704 0.32977046279747724
Ni 1.8125941309680305 8.091800963912776 2.265019087975971 0.9440059795874128 1.8214849219868692 -0.720741922584307
Ni 8.65776824376243 3.212602425000508 13.10473364953146 -0.4061147431861715 -1.6478979204939166 0.7059061431230552
Ni 5.997630658574068 1.0373067280488903 12.071278300995658 0.2361727946449739 -0.7210864504079194 0.953701609608622
Ni 6.947609917289471 7.26275299146631 2.713930457203816 -1.0849985920841119 0.20547922221585901 0.17820701676346729
Ni 8.603684649353823 6.348444908926549 10.633677294208038 -0.5487299788879582 1.472372821437987 2.507615168034578
Ni 6.159484582660029 6.148372526743994 11.615600021969113 -1.0524898208231295 0.7368606825230406 -0.7386717675898504
Ni 8.134080306231176 4.722328427280343 1.614474664924872 -0.5299748097676421 -0.9264440594442496 2.037978235925045
Ni 2.7401185457933077 2.815743285142134 11.191043805861552 0.3616889087726287 3.738064151276427 0.16248394960125565
Ni 1.6512478174097955 2.544725409748153 5.005587099818373 0.9271464848279128 -0.6913884091228545 0.03132709224805572
Ni 6.800430552095949 1.8815184113508756 5.0297401316558 -0.38179570682483277 0.18584756402786057 0.31161513204468916
Ni 4.196480837685674 7.05051641518298 9.49681798946156 -0.31652979573748713 0.33464810260475264 -0.5025493665668378
Ni 8.394798302553484 0.7190469252318152 12.672099965535432 -0.5896663120910038 -1.2119234136338355 -0.23994126054847062
Ni 1.5864859433543022 1.7457187512607333 13.527303724083263 0.686550878524895 1.1762023060831421 1.1785453523940221
Ni 5.925531505072357 8.03493012624284 8.084747023433852 -0.7941595162445098 -0.09194290615789973 -0.8624161345290632
Ni 1.4139168224921654 4.269410626596392 1.7875661631664506 -1.4584361567522366 0.40063315124631 -1.1366106598334489
Ni 9.038706871614858 8.09561265751188 3.234015282916448 0.1279290944445216 0.5850306130912054 0.7518869807285438
Ni 8.952293101231277 7.096312114066172 0.9623843370847902 -0.14082909033564134 0.23877603659577587 -0.3602544903189473
Ni 4.463354765316947 4.32954863020842 12.428024211096675 -0.16685636763733847 0.9900541800957273 0.24338165368858727
Ni 1.9046193050035618 5.749584466880261 10.265070833394653 0.26209054295200024 0.49563078507013353 -1.1123669567947359
Ni 4.143513986438065 4.803509194587186 10.030963626792197 -0.1342537511109688 -0.26799148181746746 0.3506542482250219
Ni 3.904780140607447 4.815359593089004 1.8610764739352403 -0.7257316624894147 -1.3251568537393952 -1.6071479922700644
Ni 8.736835505417469 2.9869464722205716 3.7976623211902782 0.6264467141441469 0.437511255219582 -0.4096932045660492
Ni 5.409909960290783 2.5652051872213097 3.299892977204706 -0.6152611298409726 0.9937005185990628 -0.15035836998231525
P 2.256171897941826 0.10798352609899924 5.714473508141582 0.11416649344279046 0.21288965574731725 -0.02132113007527941
Ni 0.27211246827740393 2.3816070739840387 9.19897981963901 1.235680406844117 0.01618895105503664 -0.7256923246110469
P 2.3294523995807905 4.769739250569935 13.00401818326126 0.4895496118730602 -1.0208516250925581 -0.6154706747486175
Ni 3.278370290829131 7.471888528889351 4.624121479945344 -1.0030215388896724 0.38442851646198956 0.2767131779611815
P 5.967727783849855 6.177029448354698 7.072026180563304 -0.08444608356022232 -1.2328948736791798 -0.006714950126330371
P 4.527581340997748 8.490745921575988 11.00690301082373 0.9532002444921711 1.2231622197724483 0.776550802023811
P 1.9319287513952115 7.641615030796223 8.95344583859333 -0.06589171759680267 0.20887950614665962 -0.49664688503947363
Ni 5.659266710074354 6.901638862042156 5.050096236745839 -0.11148406151462091 1.0431240633375134 -0.072122786108179
Ni 9.14864608263795 5.911604518048024 3.2684737313949417 0.9793259950449458 -0.6524127991906055 0.5969445909199719
Ni 6.8846754411337905 8.229880256736523 10.210796192841974 -0.021097958320879795 -0.556685229179293 2.2930365546206124
Ni 8.93580960300367 4.790468218665794 9.199533576578348 1.6880264130836864 -0.9727887081470602 -0.9935112854063921
Ni 6.911089647140178 2.509829493287583 1.446164857854471 -0.00399189476821248 -0.33147073331803556 -0.2650457689255823
Ni 5.752353251576949 6.664843165499219 0.4037294176190855 0.4198210370286705 -0.5264562550914224 0.16002006144179537
Ni 5.3764999582841 0.8383473973144038 9.539219158306613 -0.7798330723195086 -0.4869764518292452 1.7820105180413308
Ni 6.0192271792082215 3.5267764245335065 6.578781953700349 0.23607612116610954 1.874573574281733 0.6690460368719123
Ni 0.5362111507143654 7.485612471702593 6.4316801144783335 1.0012431068330112 0.7746394439337111 -0.07883850756545777
Ni 0.726840131224755 1.6374961867495867 11.396932481763612 0.24281292566931084 0.10530981438310896 -0.33113289036264265
Ni 3.522180241937007 6.77098914148785 11.884043850523407 1.3942660498322312 -2.447808994510223 1.6202271940515258
Ni 3.631538008173795 4.547913449953748 6.2674902590366015 -0.40856191917508344 -0.3748611844885286 0.2717596906106481
Ni 4.412316834074696 2.503756625519518 0.5142989886247897 -0.1343457966041428 -0.3851466255749367 0.1127333605406897
Ni 7.701909932207729 5.3279262454219 13.161670015105885 -0.2075420182821587 1.6442960620752713 -1.9079156400772885
Ni 4.29779989901975 2.2056784943565892 5.813257285621725 -1.2036634876178882 -0.3159132451994108 -0.5943765730824796
Ni 1.0377681921650046 6.588664669211056 12.342194654284095 -0.9840020603643763 -0.4872523311984512 -0.3614328268977646
Ni 8.386602699851293 1.7838910629457156 6.90401355638368 0.16931691336268903 0.37601766669047504 0.8912474569384587
Ni 2.513032054253417 2.5162346152192505 2.559696228603136 2.078727392817949 0.9625230645549939 -0.5255070038042756
Ni 7.967427155337626 7.011513468088992 5.237492199658731 0.2588401543355026 0.2835669676582213 -0.5777605617923534
Ni 0.22634353431294663 8.82850073744243 10.102340127488073 -0.6133950231665113 0.496495447063274 0.12005740500592874
Ni 3.7475131698356634 0.9222258838440517 3.7449003600102233 -0.6406600295300514 -1.576275471060924 1.3165302884126486
Ni 2.211123770926739 2.1287155090710312 7.431730075648613 1.1612582831788 -0.7414071642431425 -0.13799984841696233
Ni 4.64732204984711 5.049331129241321 4.103753315265417 0.9244496547220402 0.4362586137594035 -0.15307268358968476
Ni 2.17530492623394 6.34514082585517 0.8230563223628373 0.7099072938626484 0.8433966560037668 -0.3678143049440762
Ni 7.6742774609348 1.6658670006082994 10.45362876295192 -0.3517983891317941 -0.9463603387522025 0.20072653802222204
P 5.844886036140205 5.403246418454091 2.141623583326983 1.61509321525907 0.05118346485235056 1.0087617838075593
Ni 5.640780457582811 1.300055166482101 7.437659889540682 1.122980470644524 0.058397208991970394 -1.0009762263248696
P 7.637148058152236 0.0662708617151874 8.52244573756835 1.0316494870390105 1.7942044890043616 -0.590030637408958
Ni 7.5177396034664765 4.211690694952805 11.072605348747866 -0.3812678593458208 -1.505602272915078 0.03556684136101617
P -0.13044390755851878 2.580904196451521 1.705545531168279 0.855247898915398 -0.2492530248676998 -0.5974187023429129
P 6.374453026510755 3.165929944296699 12.952133926830056 -0.3454547063019534 -0.01966431119814678 -1.162879877942623
P 2.8436710934493763 4.12296037470633 4.174468076418786 -1.4102922500571582 -0.4102452204147774 -0.09610269396254416
Ni 2.325502266746852 6.052037277863954 3.079618618946896 -0.1790814489486206 -1.1179269673810166 1.6621737136866404
Ni 4.55804720194362 8.785833765266496 6.046945482806748 0.807642638332609 1.6226124064542506 -1.3175880402532019
Ni 1.6869005350207933 8.652129152263512 13.092184594357844 -0.5700256550419409 0.6823846629623475 3.3549749224511514
Ni 5.311461205758939 2.837469015728799 10.748454495024474 0.45031946272784384 0.6848698912780463 0.013713235821034446
Ni 2.374777405065546 1.2601477497205287 9.713796571002081 0.14769187889374563 -1.119665290228362 -0.6618957989803762
Ni 8.580002310914832 7.247976910468327 8.484596450764647 -0.1592243050133774 0.09430035064648276 -0.4994722703034108
Ni 6.950378701986158 8.893760992743328 0.8216627007321718 0.5144744001391979 -0.25632253011997147 -0.09058793479190205
Ni 7.415866785193064 3.156248427140619 8.698752717771013 -2.1093242917681994 0.26610917719309013 -0.66661017373691
Ni 4.195373323807 3.106345697624009 8.359836858188425 -0.011308225923967621 -0.27919017874676433 0.2213681255319736
Ni 0.7464874274324412 4.253111714015232 11.619800268353986 0.0027801338482984377 -0.28697136535407997 -0.4347676310361739
Ni 8.04567301086598 5.323459272777913 7.059896134807122 -0.40717943700526 0.24618621301691793 -0.3846719999313633
Ni 3.5231493165808474 0.9757751028061976 11.999969174060736 0.4327863389400869 -0.5605385414871121 0.48833605118093315
Ni 7.05213153958938 5.200211436646082 4.126866206985122 0.009769677792254142 -1.27977482606017 -0.6841083305216734
Ni 7.926227639050934 0.869964149765865 3.228436181752625 -1.4175147359475264 -0.2891092376326892 -0.8923257776043019
Ni 4.169900504597486 7.451039580123303 2.1623313240735005 0.47185836524088415 0.07771956346966614 0.2746799495812366
Ni 4.575555150509 8.544598783926537 13.405353525045944 -0.5964164863306438 0.3588720081491239 -0.3150976912766509
Ni 9.243864588356992 0.27832192942383915 5.140464754604519 1.2604889812473647 0.2335091317698817 0.505716965661542
Ni 2.265041238253544 8.371162110526106 11.106672475655895 -0.1796738311169809 0.645775753490062 -3.5258288412836563
Ni 1.4369715697332401 5.650517350432824 5.37955577366101 0.3912866770344035 -0.898536277290388 -1.0841380438560297
Ni 7.2786088984960005 9.163717500670247 6.200072197528754 -1.249070712108094 -2.2637123517351982 0.7814091585573768
Ni 3.7690081683642713 6.8078232072361 7.0671761927029415 0.3763354550412099 -0.18120929392490082 0.08823666095090611
Ni 0.7081203778904587 3.5973435171697186 6.82400583086 -1.570331080552031 2.0964322662968797 0.25281220297386786
Ni 1.6448242369134831 5.807258252112239 7.687801128321648 -0.21126214744622326 -0.4392094688576113 1.2658229918657684
Ni 0.00045961825964993135 0.4080985598704565 1.3006356883401728 0.07674434404059041 -0.24609159642058265 -0.31797629837602653
Ni 0.9767072603207487 0.14177562039382371 7.882653428422716 -0.5359240853725415 -0.05536973501955625 -0.751247804482648
P 3.1858559648305182 0.5096345093391055 1.2539992018374204 -1.351469266381679 -0.03503128057252031 -0.18940519947213186
Ni 5.189948474703698 0.6198875159611553 1.8849581648723923 0.7238784113307598 0.01647922860194581 0.14038608926095178
P 1.913922421584428 3.880534815946797 8.917433178971764 0.6382586191774104 -0.0682573896155018 0.13205288680490804
Ni 3.4680966475284007 -0.0036677167948771633 8.01499118471377 -0.20686247571663083 -0.22323397509611875 0.37536794892161807
P 7.9379026811886275 3.772718339857831 5.553620038259357 0.4129510493817146 -0.12830601816796613 1.280838234327678
P 5.91748357088732 0.05981313287428264 3.8876256735550108 -0.12132007376843623 -0.3866036697364374 0.6604382405982432
P 7.345770385955288 7.839887702925932 12.514353072082889 0.48274904401145885 -0.6786974439187473 -0.25739159481443413
Ni 6.543884191383315 5.481427669006191 9.393346659489927 -0.7086132576415731 0.5049147814752207 -1.7796834125700511
