# total energy = -381164.642227452 ev
CRYSTAL
PRIMVEC
9.31165310472539 0.00000000000000 0.00000000000000
0.00000000000000 9.31165310472539 0.00000000000000
0.00000000000000 0.00000000000000 13.62854555509350
PRIMCOORD
 96 1
Ni 1.6077313816341618 7.76135588218264 2.6348206737105238 0.44906759259861373 0.08484666143275064 -0.29528039944040757
Ni 3.806054354044 0.21299847511295433 12.96663415298405 0.009245944078300206 0.3611278940628361 2.15292480206697
Ni 2.150675244069292 0.060047125459614124 4.325686493223207 -1.0662634775684539 -0.14720336929310132 0.7552011327034414
Ni 8.219833740361937 8.275256698947619 0.5196209651956215 0.515524438670267 1.5975436364110809 -1.5063373513088896
Ni 0.3109663762016558 2.295136228528005 4.856354803524012 1.3510604609790344 -0.9004232099004558 -0.8274622441616976
Ni 8.087245113463162 -0.006993982559426258 8.094170189790475 -0.24333280272852284 1.5428660423625429 -1.2840323157849434
Ni 0.1412754679714542 5.3386406960635036 2.855030092897529 -0.9206099692609758 -2.5869560691577513 0.971519097406017
Ni 2.861927234265878 4.8193204972594 12.70686045141554 1.7757547669396063 1.2903687995259325 0.8622994064455408
Ni 3.5076996806495426 2.4643848332412674 3.2837162485064257 -0.5988376941776268 -0.022627507591528772 1.503408607697869
Ni 6.205918743730129 0.32859147297769364 12.56228865828627 0.6205398617414087 -1.1534027916901233 -0.02022172636351356
Ni 4.454741347812967 0.456866011047043 4.630843329125534 -1.1265555895902921 -0.7429662812001462 1.1958097959014244
Ni 1.1684448402635146 2.758456146261159 2.485642405847996 -0.2359254545208582 -0.37241452272024894 -0.46066481051790986
Ni 7.9259393487488214 1.6988086595116059 6.164818038605576 -0.8967892126922943 -0.6175578962949493 0.3937163695218187
Ni 4.355832969772458 7.864603490515642 2.8394256248199277 1.8059557160030189 0.8090467177689873 2.028656444303487
Ni 8.839961894416138 5.696524767011431 10.95446136662633 -3.781147355619146 -0.6148698079398249 -1.6054130118568284
Ni 3.781583329991048 7.263433861945387 9.158314273768024 0.5174573940269217 -0.8846062974728571 0.5175527819542054
Ni 1.6067815930293667 4.8079602806138135 1.3043726259238537 0.5247310448701995 0.6551235132535491 0.15211366211052513
Ni 7.042747686125387 2.4825146216092646 12.202249870836877 -1.685550183629052 -0.5286784595537217 1.44744134830363
Ni 5.680033829569354 5.226761185410452 6.565415592975611 1.373603636386873 -1.4869941708955874 0.05280325984396068
Ni 0.14491166846334072 7.705756002190183 12.044417352687129 -0.6405705551400387 2.4321797726133982 -1.2206430528950203
Ni 0.5832316602538143 5.745485438423312 12.876385612222553 0.8517386002105589 -1.2033205024561728 3.075322716466304
Ni 2.7260609055152614 7.297980094531556 12.297895445670322 0.12353893579662596 -0.15680901070366543 -0.85062479832109
Ni 0.8822288377044563 8.806039542580178 9.398094925205598 -0.6374140117889281 0.66378298870076 0.5290990920309081
Ni 5.526978189402548 3.2150623621898315 4.510299325366977 0.3623679371175243 2.1104589195932753 0.2531862984838349
P 2.6897733938203015 1.868224873978656 5.404345581878739 0.5546910815673995 1.2191402430972489 -0.09022618057710913
Ni 1.5638269377948664 8.922295530137676 -0.045561918071192496 -1.4470451413064758 1.3532664674914177 0.6768981859264794
P 7.25161737430338 5.107153002777207 3.4804174685594576 -0.9207855756068917 -0.7248834555565065 -0.446354821653141
Ni 0.7314927302970053 3.618201066660342 6.741809960192007 0.13817751164540718 0.3828130923457536 -0.786894092931348
P 1.7411301223429099 -0.011422604720607365 11.373184984703167 0.5895089605775331 0.2783471140201787 -0.05289993332282503
P 0.4970765221459252 4.12461531442282 8.796694367641235 0.581872784188514 1.2830753511883128 2.028499092790016
P 3.9438388833101836 5.03965283026585 10.582252248721376 -1.1561633851543962 0.06985841555403452 1.9343329537285525
Ni 8.146085448695507 3.230473147885279 10.416773932303032 1.0703319912108726 1.4805520148146694 -1.0615660720927846
Ni 3.8590562828527526 6.591672592071697 6.800807662359853 0.8707310821526617 0.04692931756168692 -0.57616622072204
Ni 4.794141787579346 9.30170814279429 7.086285250836948 -0.9484473031882183 -0.10569265164382441 0.09072446036976634
Ni 5.564904552023427 5.260264512861944 1.994483439176063 0.21812493600432759 1.2646438839560026 0.34669397802569324
Ni 6.88660988881949 8.411588610347646 3.695720577786988 -0.3969958116040389 -0.1417433746197946 -0.8112167288371126
Ni 1.4456341264158257 6.592315096127882 10.174022863562225 1.1128922331705866 1.7192421765648587 -0.2836230177071373
Ni 1.199014997023728 3.1849670997320154 13.461023332077584 -1.4109491669148668 -1.2363067275742061 -0.7661265213666935
Ni 6.007831949712455 5.767647172535193 10.755130535769434 0.5371044788338878 0.20098776210340868 0.4579900918992241
Ni 7.2568412116297525 0.9041158780531867 1.8160721679224257 0.6235100001133261 0.3509815496574536 -0.9280381434042468
Ni 6.57902736731374 8.846694219526597 5.83979106639176 0.4406757689904927 1.1841974084734765 0.7643223782784191
Ni 6.390177733060346 7.170587370000188 7.710390411882403 -0.31066716630912306 0.5230755115446475 0.7249153372357063
Ni 9.097047321766956 7.340888191501116 3.762568934589173 -1.6467861754869766 2.4306142278984915 -0.8698509935405535
Ni 5.585334318679506 4.198382229395227 13.218340238403592 -1.1134463059018436 -1.6366981951233555 -0.5589480570715406
Ni 2.932444382345408 3.1996050182294433 7.206625329395064 -0.5500163017995496 -0.22601642293726237 0.440614576735254
Ni 6.667190097805882 1.6135232297928133 8.409807291131006 -1.6479110331200395 1.5517785143608243 0.44359319974760375
Ni 9.145849695078038 2.168097346810187 8.435824049579995 -1.3555969153968073 -0.8788421412955703 0.27999159160213716
Ni 7.386915692221717 3.883629735088575 1.0451762468406138 2.066203035098693 -0.05692550954245035 -0.30347013434005154
Ni 8.179672581023894 7.668835298092027 9.507599964346662 -0.5864125810403965 -2.0737373958025254 1.3110013881746196
Ni 5.564709007310675 2.9947858991013114 2.047075655253336 -0.2135738262985354 -1.1690512968606575 0.15674293335242037
Ni 4.9684279965592175 7.787177095918879 11.41958960736979 0.8823601817511578 -0.29064032956523494 0.3229662953914503
Ni 3.64567044297549 4.472247255430756 5.37974605701455 0.7722452326699216 0.4206005955071724 -0.028610464647841047
Ni 1.812652928945164 6.153661747160431 7.914355652431518 -1.1653486511980897 -1.8193311088686601 0.28647848487806143
Ni 9.0592606339409 1.458428337621593 12.249432016528013 2.460687136024472 -0.7730682427918492 1.8085813265513238
Ni 6.786788968786139 4.578996045287316 8.85830957546406 -0.03669709831071744 -0.8013164390042651 -0.3626345605153497
Ni 7.430894629284919 6.88804388337967 2.115750027206504 -0.8625786282488563 -2.1763665780296773 0.3904382129911792
P 7.319331714833465 7.496327614832899 11.483753414615482 -0.8516627526673011 -0.053417239278875754 1.0184481578573878
Ni 4.018937364659901 0.4270296125422985 10.798754698853786 -0.8924098526776759 1.24721540406691 -2.290849831381939
P 3.428522695291 7.53697298012633 4.861560948709707 -0.14720876860974003 0.6830495502398559 0.7707028278834662
Ni 3.3645516392621646 2.6510462290424375 0.9373957258329623 0.2252952285005217 0.4011962228386316 -1.0208164009792484
P 5.345494072662809 8.942902218200532 9.089177112661343 0.08734165994046249 0.15841980683421103 0.5736005168773928
P 0.12970387680303586 6.804034150120259 1.450486428787969 1.147490025750114 0.3384769894325396 -2.337102434591575
P 9.40691119825481 1.0674320286476764 1.0082983763462032 0.3170432450387959 0.6853458024732003 -1.9594480036286253
Ni 2.82229683914816 -0.02644695681704495 8.498147874195222 1.8824336937561001 1.7725766263219411 0.6300087204637924
Ni 7.2535355748189465 5.889788124781226 -0.2317372455863792 3.0822798645104275 0.4720928498491934 -1.1483207491815255
Ni 4.997703833554073 2.4098185467304996 6.786156707548241 1.2643438362170805 0.13903060367432188 -1.5040182162574098
Ni 8.453705216813209 5.213817987756874 7.440818057874428 0.00737855185225826 1.69338433496149 -0.47841544963311156
Ni 7.879436953725823 0.9929946746601201 10.445776006700035 -0.8543837511428899 -2.1489262224305374 -1.3063790589112598
Ni 5.5473986444056385 3.4037350750364497 10.744690310439081 -0.9238127924689896 -0.08508680246801475 -0.9626958426874324
Ni 0.9064614834409107 6.401258600116288 5.311030713788234 2.083347922309096 -0.20989689166758044 1.943884859083046
Ni 1.6230769857586917 4.204658283509264 4.455280492520983 0.0717296644348184 -0.2209472359444711 -0.5933936403439201
Ni 3.175301603930279 2.7571990731077536 11.818728956881875 0.6134636716209176 -1.2527988116919584 -0.433622461688137
Ni 1.2548476683408893 1.1391596916156705 6.916486327432083 0.32222453212941926 -0.3422482835495138 -0.15709337471330365
Ni 8.017742935559344 2.8630260093184843 3.241686240413652 -0.507342674190423 0.854411776167348 -0.12328979590029736
Ni 5.2038731423654925 6.339922741883108 13.45964706976593 -3.7889995046737135 2.169873514106166 -0.3914358010177581
Ni 7.79143252133448 6.9725471342474545 5.5477450378967985 -0.48453056139191386 -0.9935832762949083 1.3023498831472087
Ni 8.657630417254476 4.7312043250321985 4.972197353688835 -0.8056556898095673 -1.3648662565138754 1.145014567626428
Ni 4.268377924907418 2.251427329401461 8.914772645688522 -0.3194991627784562 -0.809761998668457 1.4026267630921003
Ni 2.910850659065806 0.27324021412002153 2.0437504639712545 -1.9069779587543672 1.8752572306123187 -0.5253267694726694
Ni 5.0092689065654 0.7327982240459491 2.3284505294238365 0.40310038183987995 0.4797064005303932 -1.2526234624563588
Ni 6.366796172407013 1.2817304105177814 4.016209981499661 2.57516061918472 0.2593793146684243 0.7019196476714815
Ni 9.19664476212859 -0.2055333229123259 5.377088511251722 -0.20353649666719137 -0.5114245575692804 0.5750169376089451
Ni 5.384873053149845 6.0500416727079 4.351649244084867 0.3954971155713253 0.3868132146440822 0.1723328173708774
Ni 0.04004010784919839 0.6850219948941659 3.0223884320541905 -0.08441008811596432 -0.9863422784617787 1.1777706790115265
Ni 1.434813985643554 4.548044110754587 10.970679472635853 0.8536545862863493 -2.9398397209339238 -1.2863943882592168
Ni 3.1580936692081116 6.071905433924161 3.3126903879444645 -1.3227323034583027 -2.789127824266932 0.17097013269539588
Ni 5.854999789217363 8.216258065614474 1.132234615288357 -0.20909033660588508 0.3293999668319359 -1.0352166355649783
Ni 4.418314161323185 4.715160346933556 8.617233673095829 -0.5755460706395379 0.2582647414480068 -1.121527026027449
P 7.054936639886923 3.493629772984394 6.729189876897119 -0.6077270262474566 0.8360700404353665 0.5817339446178045
Ni 2.1010534452952507 8.068696300710696 6.807880793969678 -1.2422452045458283 1.0413011511961616 -1.8174719441727343
P 8.455129899720403 3.952293864223456 12.500074711176305 1.4717501002523234 1.3299997836539934 0.9141174195580968
Ni 3.1939807798245794 7.599193445393387 1.0215656195237701 0.8985869280226654 -1.8604998697974862 -2.2554064029726644
P 3.6158545301073195 5.130785978061223 1.242404506452777 0.9640317878900364 0.29588486579362594 -1.1438002356033528
P 5.307726008142727 2.02751000999456 -0.07961370188368867 -0.7434141673708422 -0.5334113462530169 0.6779309980663679
P -0.20621400474576226 7.754949464926768 7.358092401562088 1.7025598308131713 -2.4845271758668632 -1.7658094828014363
Ni 1.8514545869469337 1.9307526237943229 9.546305712322653 0.5051862899690525 0.10155780353984444 0.7934946289670011
