# total energy = -381168.5349134668 ev
CRYSTAL
PRIMVEC
9.23238602997543 0.00000000000000 0.00000000000000
0.00000000000000 9.23238602997543 0.00000000000000
0.00000000000000 0.00000000000000 13.51253017874509
PRIMCOORD
 96 1
Ni 2.651975166007253 8.33473952579731 1.2075730008523458 0.18071589922825007 -0.9298857381359469 -0.8122883646347366
Ni 4.048539723379776 6.932561677769246 5.784497867012995 -1.501665399754517 2.8384256420607956 -0.3158433111934238
Ni 1.556783383090076 5.720570980241444 10.830590429254336 0.4188710144105754 -0.6488502786503277 -0.2865329922650807
Ni 8.137351114258687 8.344211953778537 9.154630792172382 0.3225577470991219 -0.03522257064771999 -0.09977911437286686
Ni 1.35975503460337 6.581084744781621 12.814162087214354 1.0858488558995494 0.9320616627413432 2.1349759308980327
Ni 1.8158164355942465 3.8137970783011492 12.956326982213303 0.4374588047150917 1.555892793639514 -0.9566689197670619
Ni 4.47422657460629 7.982884064985875 2.694506921586118 0.6136709025357173 -0.8953100570436064 0.030913401749404826
Ni 3.7816683752069298 1.455384088238406 5.915731617051151 0.02061407670592579 -0.43259839129899696 -0.5763847644907493
Ni 0.6258662130367993 3.375138724819642 10.88428875563563 -0.2741598154117085 0.19074962931516828 -0.10292948707639048
Ni 3.9922683310351594 0.06979499127921834 12.638972024445772 0.2419022409295834 -0.3587141424150209 -0.4719990045838065
Ni 7.266469380300461 6.9070341306268555 11.94273933543966 0.2229138727525387 0.17333451916251438 1.09740725016111
Ni 8.165860722061833 1.0615397361417664 0.8411063660417974 -0.8579655549568772 0.5374104401100809 0.4063713392816679
Ni 0.14469549198691464 0.9525144904981926 11.626437792908638 0.08909180986234978 0.4946825622242513 1.3197145996779014
Ni 1.0464909470487844 0.5428836816714365 7.708452315961345 -0.4195297310404968 0.5215945561237469 0.22574928531880475
Ni 5.41600380024857 5.538249822567696 3.367119474386412 -1.785014337864661 0.1688659418681995 -0.06597759244238958
Ni 8.951739878609574 2.066152580536706 2.866913419991797 -0.6680124534010753 0.5636488049813196 0.34387579185060774
Ni 6.661517291148529 4.292053135107688 12.77566488429416 0.13313275013264814 0.007562385728290201 -0.1299926618417697
Ni 0.24733561950980973 4.810885528149598 3.2541686182383374 -1.0330566517991824 2.377631505053873 0.9618725754551886
Ni 3.739070146449249 5.199965969097785 9.729278497693148 3.8863093315704815 1.9278152072146928 -1.914483008882161
Ni 9.124219312864232 2.884354320283547 13.193121063449269 -2.727728081003212 -0.07231459040401093 0.23766429158883584
Ni 8.115498056723048 1.132130559089583 6.751967899506108 -0.5771504390121802 -0.05185837943218811 0.8976901272400089
Ni 6.592588297671103 0.8710765373016984 9.496065658965874 -0.813653106192747 -0.44733569750917146 -0.1564364578555951
Ni 8.78978536433406 1.71146277723966 9.567209501831892 -0.6951900422571318 -0.7387887527836888 -1.7054664629370047
Ni 5.436739739084667 9.005813963098898 5.834818986615018 0.18832790724755308 0.4994406457345269 0.2587992737952382
P 7.483975160816759 3.266704351876651 1.5895195771795827 0.00930687922322268 -0.37715100896396986 -1.9732368298826015
Ni 3.090781237663907 7.532205145001875 11.210792084637662 -0.017820316010872535 0.13278847941935196 -0.44354614855975233
P 3.2089373130086827 4.303011977226319 11.383874393694633 -0.8970280681759777 -1.4570611307815808 2.91020338612473
Ni 7.775921669220612 0.031802799870303905 3.9218363051256246 2.19246348359154 -0.42437857449236593 0.03210742205750599
P 7.794247955324642 4.60824388900735 10.583567787628116 -1.268369926657338 -0.9812358104731488 0.30132634852417134
P 1.6188711785810603 2.0592375234626914 9.211842964644958 1.1697478087070499 0.5668536850718624 -0.24651428578029805
P 0.6385035029205256 5.302159249140863 7.1636815346024205 1.3790019245843088 0.2188528153092876 -0.6319285631943246
Ni 1.0896523513492085 3.6986138312311834 1.6395424907155307 1.1454277439044467 -0.7399935717250675 -1.3953536264694548
Ni 4.897079083347194 6.174887460288411 11.853501862595465 -0.06705874132171032 -1.6387319377239327 1.4580977995762114
Ni 4.402121640363228 0.08642251836907155 9.8703355063785 -2.0823336221119684 1.0397898567579575 -1.2321088874427748
Ni 5.756281849082951 7.997406608079899 10.849142908814057 0.16865408296770953 1.977930635813845 -0.20114742760972454
Ni 0.9126425853105474 6.60615067262668 1.7526835340141056 -0.027354994974185146 0.4435764875770554 -0.10074944870593616
Ni 9.165755817238052 3.374667873136364 7.8035938996183996 -0.3018611379817189 -0.6717572651554883 0.702102710216565
Ni 6.34163358287022 2.201323943181093 5.223133718392219 -0.32374379698742306 -0.9069944353600702 -0.3626618142088593
Ni 2.0062251633572297 2.936840434390052 6.459097229269 -0.4728127587343535 0.4040997696386717 0.05658201016010255
Ni 1.9244262238702228 4.295247540645216 8.96421283202345 -1.6295816386832322 -2.0043281519707676 -1.2597204785124563
Ni 5.10160412922255 3.32258798401151 11.13117660442703 -0.4568096984378778 0.15601813937125386 0.4496849144676384
Ni 7.27380912712802 6.537277073464933 3.4203321772669155 2.1256366557749775 0.595035289712401 -0.4050402791750702
Ni 1.7775204986876887 9.195447170442366 10.087266109250324 0.681700235300813 0.7864444069884392 -1.1868878108214462
Ni 6.562989268326256 6.289627552832939 9.607354685643557 0.7044632400289417 -1.2123486740967122 -0.06715824301405209
Ni 8.20647398784099 5.27833046101265 1.1694257053595278 -0.6138871323115814 -0.15297883832429782 0.02135918240206644
Ni 1.3323533131138174 0.9616637849712879 0.5666626149155375 -0.3490897319513794 2.081908875869724 0.904156965911275
Ni 1.6522370213921262 5.641541756538422 5.188501192229277 0.24730464289207732 -0.3870690394086302 -0.12509856697426197
Ni 5.648226003963771 5.697646965936 0.8866783463128827 0.9322560381403363 1.342355991226501 -0.35773763743436454
Ni 6.502849506270008 4.402860231238958 6.078571517138947 0.3397831098384729 -1.9404853464831937 -0.6571109759972231
Ni 4.435385926928882 3.399761498139263 6.687391976002512 0.32583024720280657 1.4698855362397587 0.6072341457714381
Ni 5.424765334511907 5.786767187478672 7.601541286699547 -1.475942026846484 0.09012025112686416 0.9279913493267115
Ni 3.9632786391627888 3.2576104517192355 13.38668819044459 0.7599903265619685 0.5715963419631704 -0.4969752149131699
Ni 8.44994123763917 5.26941197618822 5.2396864631559055 0.5192702788659443 2.035567569601023 0.35759905497397126
Ni 1.5337855096970585 7.877948766316652 6.345700448879704 0.5029928818621596 -0.31913278057797295 -0.8093364810952642
Ni 5.911533651161224 1.6152982452197204 7.405650368161463 -0.8531357376684018 -0.286695485984874 0.6755033624614817
Ni 8.325747181885307 8.060011417183894 6.7748983764817154 0.2474987611807544 -0.3188242481986186 0.10612331142333982
P 7.345618625020791 0.20497004687798387 11.67194791619388 0.750777549714449 -1.4840088630150183 -1.424506079663695
Ni 9.11402675877917 7.4695172444243605 4.6269468564580025 0.10128552371506427 -0.04448651244814919 -0.41148423502820103
P 4.980613711392164 7.663877433372495 0.3842639051998374 -1.7303089759019814 -0.761566669910153 0.453055116491452
Ni 7.444617499526341 3.8610576619618704 3.627682333241937 -1.739734382980939 0.5218097574583466 0.359771894255574
P 4.727618639297079 5.130501497235454 5.311964966254763 -0.29042358556873854 -0.32653884323405696 0.9907920867030162
P 2.642899730621731 5.229168005846926 2.9909311371740785 -1.112732824774587 0.2423069325671698 1.1791881281843433
P 2.608139797532726 9.260360076033015 4.964246537586005 -1.1692616130992508 -0.25003412600809843 -0.3281676370867316
Ni 3.0313708340974403 1.7435822479479326 11.159472020876214 -0.47840028012445995 1.1690332991385286 -0.20692495352345008
Ni 0.3716515427581669 1.0824972522405818 4.940491608545365 1.7630506891093762 -0.5841852343717745 1.127333348296581
Ni 7.178678622334101 2.235169870061383 11.237303804121959 0.5860847653873326 1.746599999752521 0.9619049713550208
Ni 8.611794195669273 3.0774127428132085 5.607591503696936 0.5035909204574747 -0.5078934044875704 -0.7745391709104209
Ni 3.2731762544252283 5.546235836411517 1.034535930486513 -0.39584601427031185 0.3380473580942888 -0.8238529295438843
Ni 3.9310114502793705 1.2676804495577811 3.344202845989725 -0.49741127400932394 0.28719865087353763 2.2494237030266677
Ni 6.359175116168789 1.8098615466586803 2.8617645183493696 -0.13059584264340732 0.7745911071942788 -1.303410463201239
Ni 3.3973518454071967 8.949884169034306 7.5412621156155035 0.5779364252485854 -0.5090519435720459 0.43557572875976597
Ni 6.398200411565129 3.3986166822818826 9.174007723797137 1.9426625566401705 0.8230180923474149 -0.5778148120690565
Ni 1.730343006500487 3.2937552427002323 3.9293763947282248 0.9988023586020026 -1.2672622954154562 0.8331541523401522
Ni 4.148858829075692 3.4393684338502406 4.260203250069056 0.08995544341422572 -0.15397925456435416 -0.6832542100514942
Ni 9.08195345000063 5.674482909595943 9.244340963177043 -1.4669771043437123 -1.024632946511861 1.6977253855390053
Ni 2.027542742507963 7.5584805154059405 3.6525580739364956 1.1952492954122642 0.013770571421531121 0.2640610364148097
Ni 0.2253062234025922 7.786289638638659 10.958202314285634 -0.6360263874127821 -1.1126682900852387 1.1197118271955813
Ni 7.179287959806579 7.770151428003977 1.2957570584600313 -0.19679917794335783 -1.728033035383611 2.2396861640239303
Ni 4.269793852590399 2.7761599893751687 8.889501595227662 -1.912389873798558 -0.966074272241362 0.5186570707619778
Ni 1.6430323326033514 0.8116679802124216 2.9408537525610456 0.49247809837376477 -0.8950686304567617 -0.14082909033564134
Ni 8.721853468538868 5.319553064264285 12.37651837294838 1.9999572765965814 -0.9395507720295367 -0.1894882461042414
Ni 5.899217648308441 2.1016418721154935 13.403835500863236 1.1233319404466717 1.3787916083457157 0.02004997667233966
Ni 6.159487840529457 8.160884466036608 7.877156627602432 -0.6549934154335881 -0.05619094536927097 0.5824587385989711
Ni 6.325504604621484 9.200248011134606 13.42588797793532 -0.6591046093884843 -0.2480266086597664 -0.9075217686184499
Ni 6.413424615991096 6.84977487298595 5.68781539814145 1.0529917001602125 0.0434362168067639 -0.43443878694184535
Ni 1.1823547386391675 7.224572812874724 8.741336572602009 1.7974013986751043 1.7506538581069204 -1.4323949954934685
Ni 7.747347434715839 5.5004247373444155 7.4886310530496365 -0.26521854705802067 1.09669993968144 0.318658926265348
Ni 5.156342945500029 3.799302232364964 1.9551146747567705 -0.15916902629540977 -2.0997430758376674 -0.4552834916013385
P 1.8186784752376972 9.101710755926385 12.455120137182075 0.8508523409508637 -2.3048260910563725 -1.8522965080510871
Ni 8.885802178178853 8.196567637720273 13.388268774918648 1.1864779769775373 0.18519938892090043 -0.8155981457342599
P 3.369220765427862 7.173046866906667 8.944970693233516 0.3673245097918513 1.306911534375962 -0.4321481911354557
Ni 3.032377164165622 5.462987412330893 7.249553802769074 -0.906180166988891 -0.15937857120305454 0.48102949021719094
P 2.93357216976495 2.4773538182129813 1.5578054082143664 -0.15804314022108265 -0.8544259172347348 0.8745013478283713
P 5.8199299177989126 0.04430437368061496 3.804723489392816 -2.955504424054374 -0.9648776808300995 -0.37289454768046104
P 9.07483528043579 8.72383843151739 2.127696588495435 0.7517532833641568 -0.45288413813122647 0.4218488660919767
Ni 4.473063293977017 0.8447106895153559 1.3172001980596388 0.2803677439946333 -0.25457675107345834 -1.4397509216379076
