# total energy = -340897.33409545926 ev
CRYSTAL
PRIMVEC
8.99642237479020 0.00000000000000 0.00000000000000

0.00000000000000 8.99642237479020 0.00000000000000

0.00000000000000 0.00000000000000 13.16717351782083

PRIMCOORD
 96 1
Ni 6.281382895592449 1.935562227385961 11.385377938039808 0.4984795673728383 0.31525375723854093 -0.3483659664114775
Ni 4.4303780397609565 0.34844402389878876 6.044680731983752 -0.15205478384813167 -0.5114901206998933 -0.8813551375254111
Ni 2.691171721678945 1.686649220026772 4.755389982592529 0.15154750519440996 -0.31345861301133116 0.47170101372741347
Ni 3.4164452805658567 4.257196913851445 4.940283550466799 -0.2987788995119693 0.4894832774114989 -0.3205836540918866
Ni 5.103283425457257 4.607067770299285 2.6105502848042383 0.07719608686602834 -0.3956058732350477 -0.45489062703829397
Ni 7.2403745048691395 6.050336782573847 2.452556918726437 0.7241337218746755 -0.6506076276610667 0.004291171176186158
Ni 5.209864038374139 4.61767455198486 11.447580100255442 -0.369793283047318 -0.6923487161535947 -0.7997264688093259
Ni 5.679459280463736 7.830818685366137 12.343711009216934 -1.020134030200243 -0.1557512588631124 0.003614456824135711
Ni 1.8054289813453845 6.49190816974354 0.35968865191303806 0.20893581330589175 0.26282819244897315 0.40359171965400176
Ni 2.714598404892886 1.4590397402599844 0.479924034331503 0.671172853406928 -0.36713656215076124 -0.2642512980487449
Ni 0.5344783380985306 0.24711912078743006 4.808796342896384 -0.3168223872772415 -0.6003903833767272 -0.4051498081697409
Ni 8.513539167600998 2.251264672602408 1.2372113613508307 0.1612621613790126 0.6979064127470304 0.8726516962141422
Ni 6.8920960151374535 0.8214228203496609 4.736561370726761 -0.9241532065275438 -0.5345014939934021 -0.3187993084979542
Ni 0.6122928912701839 7.354530105215415 2.4639077045217634 0.5744572084507332 0.047616573436698645 -0.03893267250945553
Ni 7.618494126790012 3.799099099237815 3.898879316670282 0.021938966164936412 0.12860555168625593 -0.4508012874602688
Ni 7.47531606866794 3.8533385282304615 12.3605127271779 1.2305119752693001 0.036963207487910536 0.2841297821402268
Ni 7.911255695587276 8.711595400686603 6.848773744393701 -0.31754023927987246 0.34297333464099644 -0.07297999190215174
Ni 6.866042376662963 0.5591330329325576 0.37289449995057433 -1.1077657105772987 0.797015497636066 -0.19132504220266405
Ni 1.8830141257528459 6.346184124160046 9.34225448772532 -0.05283642707474126 0.11326326490223075 -0.02474455393453158
Ni 0.17424000479364474 4.737353955515989 1.2752986140599483 -1.1197920456142132 0.1606047303006718 -0.2907560292074928
Ni 6.315461342602592 1.9346265994849432 6.844375393616705 0.06430020473996668 -0.13939107233753414 0.44318619411717225
Ni 3.449938960137863 4.2561803181513 0.628462160755751 0.18922085137546765 -0.11192860525120722 -1.0534948650488758
Ni 6.135892756984209 5.606480304184362 4.58807542355084 -0.1148609484066538 -1.1309406060318652 2.3156175252449214
Ni 5.372177486356447 2.8351144756816558 8.994706507470198 -0.29439568284260914 0.09175084475175166 0.3739517853003818
P 0.20375456685968818 5.585221758702586 12.287908901701146 0.15276080877622078 -1.4998771975058427 1.159068988836965
P 4.0221923750977675 6.081095549819802 12.656523803646778 -0.7993248624955331 0.08742959166857846 -0.9111372538838501
P 2.407784424736106 8.393760803426492 1.3687543467384213 -0.3665783756544461 0.10327067246589311 0.4893866039326346
P 6.205920906806528 7.8153808249993455 5.644517176929578 0.6413295447932504 -0.3700169690223498 1.7653901358758304
P 4.64186593107944 1.0970147175210399 12.570911151777029 0.5170326477846774 -0.6279320404404218 0.5105745508641595
P 4.099597591062725 6.190267132308733 8.414692778785124 -1.3152509074795928 -0.5433926258354449 -0.9897335635315149
P 4.728051655038564 0.9995294873727034 3.872505405568135 0.06410454378939283 0.7219151169568019 -0.1715810268065174
P 0.11307423040683001 5.583197563724422 3.6361280127981574 0.6583075674084856 -0.41719954024542344 -0.3927594049251881
Ni 1.3246691793984533 0.9663956646857044 2.542621000263721 0.16825041977138766 1.0126642041857592 0.06178129497285489
Ni 1.9718987763495202 6.3380243692925164 4.737706615263296 -0.17728219095635273 0.45876605083330024 -0.3290698371860268
Ni 6.149693268524219 5.607919731724388 9.16694660762542 -0.3918764880996025 0.8139932631409852 0.4226240536951045
Ni 8.577629678820704 2.3396995020928237 10.115733575285528 -0.23532535904301408 -0.6715150672376952 0.3046816381496495
Ni 2.4530724137142097 5.219598167113573 7.032481583831873 -0.4643497155686648 -0.19889771234359938 0.678472729502451
Ni 0.6319653675312921 9.230868885751384 9.124798369969 -0.28494636450425115 -0.6257275765899353 0.4309351446639611
Ni 1.4138597083473832 1.0726973885167066 11.389973310461345 0.11700293445032106 -0.4698616465258295 -0.29230126220742564
Ni 3.9367803434414084 6.744797595682054 1.5740832874700141 0.7701297289888156 0.6207440073324149 0.7489338116374908
Ni 5.497902485555691 7.823243697936744 7.817179209782167 0.2752180814728937 0.5931866665394365 0.7931390453997953
Ni 5.248350732225615 2.952112945419485 4.7487938058903545 0.7108161788301629 -0.42213785808730525 0.05301948961982482
Ni 0.7670277532542487 7.232043817981233 6.820332455487189 -0.3084922701449913 -0.08771061324410702 0.13453040181112313
Ni 5.087377751139957 4.714026232945425 7.154501856399971 -0.3748118193078319 -0.7801549744353016 -0.41773741502676437
Ni 8.221281398442741 7.256379139829816 9.054196248415096 0.2038370586267457 -0.11909195576886587 0.2272616081982731
Ni 4.6760343423108335 0.3694650638364597 10.407399379867948 -0.7814137865430673 -0.49407475343692325 -0.44551998445667146
Ni 8.03295929409657 7.319552015992755 4.538553718320632 0.44711124020319126 -0.0641978748341475 0.3699048689245178
Ni 7.241930885896793 6.207981087473192 7.105190667447493 0.38633833189019273 -0.7450149361990589 -1.4740406960587131
Ni 2.220056084250195 5.089311981896869 2.387432718604548 0.20041337765717743 0.7322722918214098 1.9345993200160614
Ni 2.2644624238600315 5.054351885518461 11.631327523950965 0.3485994225785222 -0.09784461635431536 -1.2299332199476947
Ni 1.0998755797568438 3.4278167581320713 3.8255116949551 -0.06950308909714481 -0.1489630322966854 -0.38930049984231013
Ni 3.6353642165597306 2.757187467233438 2.7410370902343337 -0.511703265151964 -0.5038254050657839 -0.533387949214249
Ni 1.1293748479052745 3.291925801931386 8.23169565669484 0.13634714330488776 0.08351868664994648 -0.19961684989781106
Ni 3.661840686874104 2.68270608845916 6.982973373234853 0.07005999004187934 0.00844118878881772 0.03479705307452718
Ni 4.103151177802167 6.727443497402602 6.029525359271693 0.42149842473109345 0.6363074089883106 -0.5304669189127121
Ni 0.7371569328720485 7.424585244304109 11.474796076468506 0.2540013381859626 0.8906237073115306 -0.9666507135701223
P 0.319468347518043 5.430159426953164 8.013199552540847 -0.28364898584906634 0.7192337134698967 0.027115368159553302
P 8.419373617216849 1.5961182241811915 7.857734181080219 0.30069745669092085 0.1868163556990331 -0.040651969193407404
P 1.7327198977297646 3.0639384724353413 10.473038175335397 0.16046794761249136 1.0214062120444474 -0.8712679284927383
P 4.009408459257902 6.053215637653901 3.845064518801943 -0.9712362760582757 -0.12650804572727892 -0.6063005782135752
P 6.9109705087560585 3.8600228698694625 10.174077172051676 -0.289212853090089 -0.05123077315051822 0.6714230217445211
P 6.2521355272635235 7.777209005922251 10.096377773083226 0.27667795384787186 -0.9122698248263967 -0.12260793934192431
P 2.2913887152806636 8.395146252433767 5.725126018813308 0.6067273813383487 -0.12331936358665214 -0.017616427530182565
P 7.0004489232129945 4.018584809825574 1.47115522193595 0.10399752332958863 -0.20480070809159567 0.7045748259061414
Ni 5.35878181381207 2.952958609099251 0.5031087137902772 -0.24096301694476568 -0.6708846327425478 -0.8720510865156658
Ni 1.4861639529673705 1.0099023620830239 7.041027285208572 -0.057649532192668454 0.9158711690244099 -0.6897583297185992
Ni 6.906679215402353 0.6616418651955885 9.112500260923891 -0.8160745711500461 -0.03313457777043971 -0.24638855883571115
Ni 2.8673756454225137 1.7155907100034422 9.165708699940994 -0.2392997703097298 -0.8950606600369618 0.20067408751773183
Ni 6.302200616390092 2.1362184264657404 2.561923723575485 0.49091409632075456 -0.3046710966266882 0.37662753236033203
Ni 4.105049422870578 6.778309268098311 10.50687731751701 0.0579791476179453 0.34019268657206575 0.18719919295974857
Ni 8.005421245971426 7.202391610656673 0.2976358303046816 0.02820011658329982 -0.38278532443161173 0.1355210478591666
Ni 7.687010877695303 3.7206323054620865 8.029724180700358 -0.12911565855345505 0.3729932780418544 -0.08611190129841943
Ni 3.0760476566158195 8.346313673138347 12.311609975789905 0.6462766043858805 -0.31917803199361156 0.5356278942883614
Ni 0.027986069946977183 4.703815293833357 10.121289765590033 0.5494396033604731 0.2289071142214961 0.1793935808724007
Ni 8.645255783935603 2.31374482426171 5.724033853167313 0.10904742704867026 0.8388046657577102 0.5804435079411552
Ni 3.6122614045422954 2.691936417559584 11.487778813237336 0.4126826262116764 0.3298457961201029 0.18634918625462746
Ni 1.09012345817316 3.099060504412003 12.58335410321835 -0.8941682301296795 1.0515343988883956 -0.1571054588981617
Ni 2.832199634913101 8.131632051965427 7.876379265934633 0.9967375056531739 0.2234859432059248 0.8091688451691483
Ni 5.629214262894664 7.529582486926961 3.6196159796296214 -1.5447331774782684 2.3921919193665513 -1.2680649938224098
Ni 2.9713382995009723 8.48254649337979 3.5944934708450855 0.8299238183283126 -0.7181787898428211 0.007449257189193622
Ni 3.3963202842718525 4.282404888646169 9.404416166041392 0.15022878638298645 0.07371455607533112 -0.12896190658441015
Ni 7.484987222452497 6.1888636904572065 11.208121432907593 -1.4685773589512965 0.14405942434748092 0.3018289991922028
Ni 0.5189109292531374 9.013875184092297 0.3323602204234108 -0.004162873128437992 -0.09271526554755 0.07808620278046552
Ni 4.697121955772231 0.3491673362376524 1.7972800221844059 -0.5982640810623439 -0.255095856801722 -0.7576948456595725
Ni 6.006587181779149 5.565573572781216 0.29743880866014044 -0.11331108742103066 0.8970434947949454 0.648145025053187
Ni 7.755788524842223 8.779005591670497 11.322004441663475 0.8511958403332114 0.3594854733634067 -0.04071598966212343
Ni 0.14313307601144626 4.935860009707853 5.765602721238871 -0.5958192190662771 -0.5514682037547277 0.4804625619701273
Ni 7.7276567128568185 8.859838444465145 2.4354664156152523 0.3772068019025697 -0.06272360428146617 0.8102196550311659
P 8.47865104259959 1.738900439729756 3.448627281792013 -0.5710854637650229 -0.13146461840160586 0.807774278814467
P 1.7249469890136182 3.090675838991345 1.464808246126643 0.4020320884763657 0.3808210016163893 1.7367277349441317
P 4.584891589760741 0.9281788634979844 8.123250085471408 0.9128107849315313 0.3540959269167192 0.3006208378167145
P 8.396252812355163 1.6355945244664352 12.364318213736848 -0.35705141000061735 -0.42419448350601785 -1.1653725624574898
P 6.111782345688755 7.653499205279046 1.4807274150771306 0.6994066514416406 -0.10051085033256885 -1.2868906111693448
P 1.7674280942886686 3.290621320723236 6.032184701651892 -0.17986126453743864 -0.5565049948476868 -0.13977442381888186
P 6.774233888875608 3.991766475470444 6.028432293983485 0.7312533636385923 0.24027447551817327 -0.7258149662318404
P 2.3019505148556125 8.36929053524603 10.251776571020129 0.713801486710732 0.08951218522922004 -0.644725972069309
