# total energy = -340864.5393165839 ev
CRYSTAL
PRIMVEC
9.33587053593508 0.00000000000000 0.00000000000000
0.00000000000000 9.33587053593508 0.00000000000000
0.00000000000000 0.00000000000000 13.66399021359923
PRIMCOORD
 96 1
Ni 2.1465312963986616 1.3110642673727868 11.489912257966727 -0.4942148785592134 0.11755109364430723 -0.2475481263614511
Ni 6.596716585569943 4.409536910085588 13.368983941808112 -1.5388389234810207 1.2525612417598557 -0.5904659251741637
Ni 4.509953530537061 4.290187144759107 3.4827594684539416 1.5359058089946258 -0.6507431247976664 -0.04331486073755121
Ni 4.204362489514556 5.001505771147972 12.817683065158954 -0.09862751726692691 -0.6236251855349518 -0.03365805437407752
Ni 7.948065133088519 9.217594113701487 13.471204252392647 0.5238890085848784 -0.7699926891903192 0.11668077522421196
Ni 8.264896561896776 3.7489400667864277 8.051191956674714 -2.344200736199253 0.5316683954199811 -0.061188655694178494
Ni 2.1370647239611578 6.367950420867182 11.430378346944321 -0.2389855815034207 -1.3979792370177602 2.3850419385853314
Ni 7.895261450932184 8.742416989516002 3.804041306612259 -0.34481964382111585 -0.2556481297607662 -1.9094878696604147
Ni 5.759597107509119 8.23565661626141 9.40849025430613 1.3722646058604755 -0.4195004204644582 -0.24265737392805303
Ni 0.3396137529889704 8.00769333640049 5.24284548590875 -0.3249560721279694 -1.3886839277587633 -0.36666862137540723
Ni 4.81186623867951 6.003786129871402 7.754614698382395 -0.4305600207127295 2.4948175020492775 -1.6738406085016075
Ni 4.983963670940802 8.115447950871566 6.024508027487068 -0.13495926181842563 -0.24207116240727986 0.8189161543638994
Ni 9.235481641108054 2.396293833302553 12.077244925860999 0.9330137422419674 0.2749702271281458 -0.2437482929993867
Ni 4.814723014977218 2.052659120995207 7.751171629432739 -1.2100580782903223 0.6987898437932482 0.45088947629870085
Ni 2.924517372270974 9.185852154838061 13.185012216170824 0.6737316152730397 0.03545628392508087 0.1414631243752144
Ni 4.033450712775516 1.1133865506156757 5.247737481921819 0.7493048218236644 1.6038652077537345 1.623864533693797
Ni 4.317354527198098 0.3042158673340983 1.6296629764201185 0.021923282435652565 0.3695935083316861 0.16084127179151012
Ni 8.833068289681846 4.356117060492494 13.308452959842585 -0.37193141243624334 0.948633193946779 0.5300262318308677
Ni 7.034372847204807 1.4803609385578937 8.357811810599202 1.8417531853176023 -1.8953650571057874 -0.3571043747257398
Ni 2.693081148675584 7.511762572640477 1.9576264969191863 -1.0118069983917863 0.2705836680246759 -1.0697938593192156
Ni 1.833779642891378 4.26955487149788 13.09000666611854 0.8703690708275527 -0.95940791596478 0.3112922014876316
Ni 6.52036783863315 5.699306057409117 9.483888609651071 -0.059897704796896836 -0.5221702261215587 -2.458493727917579
Ni 4.632841590689789 6.676211520782317 2.8136072336540625 0.8285570198877731 -2.713935140984178 -1.0970601512343365
Ni 6.488579200418454 6.976845214699974 4.317410542419622 -0.6441099357518649 0.054559837523751195 0.8517722816619717
P 1.0615911424467679 0.827286939509365 6.5415397251950544 -0.8538186226680393 0.49839600652009647 0.44638078979506995
P 3.726403275993395 8.177876915259722 8.778539338702581 -0.10301176237755164 -1.3244767969532352 0.9062184764259941
P 2.8949880146577343 1.2487099899466632 3.2764330014935727 1.6372334988015353 -0.7121945472349283 -0.5794515763415311
P 3.614195451411185 6.777178957578773 0.008034449940548307 -2.445177470424647 1.28659673407801 0.9823521834657791
P 0.42840908214832785 4.614814025229414 11.440871865109761 1.2212238650991547 1.1943193273988268 -1.8268595560352217
P 4.544991051600131 6.087892984989227 5.124815812636178 0.18560510899975133 -0.15595309046127334 0.1048282467610001
P 2.6800856172820873 2.1349268096730034 9.560515565521431 2.2960478306431105 -0.10425283387350433 -0.5220439849563396
P 1.192022585764686 1.7530990521567529 0.03532133151878976 0.7248860266596677 -0.6654323513787249 0.790840993394238
Ni 9.2650296704618 5.636578345172836 9.308333171047718 -0.467819162174504 -1.2134997569820198 0.03861154172461092
Ni 2.8928594362398337 4.116017149301439 10.584754824669176 -1.1727588276192318 -0.3589473414717496 1.1386284615944262
Ni 2.6096931555673137 7.159221440110863 6.9714630854985735 0.01909172652412841 0.13494666341293535 -0.7118343356820321
Ni 7.313608726500414 6.9799820671053014 7.574400660522321 -0.6084939863204681 -0.2751831144699003 -0.7023353950526614
Ni 8.881409425856791 0.948972539573384 1.9406417481661773 0.708824859431747 0.7084715898573863 0.23048500023157725
Ni 4.662380284173283 3.55025407604189 5.7942835998506395 -0.16318791764681573 0.12241304972229886 0.1129066528937604
Ni 9.014660301991402 6.531253463349254 0.9531438064028482 -1.2787155315577203 0.033175458310704155 1.7782592785290146
Ni 4.175019849306395 4.075415449567016 8.724812338978131 -0.33204588909521526 -0.7690444663444369 -0.2839999414305818
Ni 7.070418642255303 2.478710895904413 5.760177798638915 -0.2872444165098085 -1.0794419239319408 0.36550031209891887
Ni 4.240090864976418 7.78921530071758 11.447786010619835 -1.3529965016594827 1.7960538835082744 0.06223792289429927
Ni 1.2970324543811018 -0.00907073153873662 9.108839627526212 0.41798835469530593 0.5157118720907247 0.010039643624189163
Ni 2.9697589995216096 5.101091499146843 1.6518674102321103 0.4699711755205002 1.606201312086079 -0.40108849361617377
Ni 0.18653722278307408 3.044053855002534 6.132480167735061 -0.4547638716524426 0.20570547929405217 1.161652433293425
Ni 2.228276176342237 9.253266473941826 4.98312064185687 -1.7757359978865288 -0.34284683636546115 -0.01558499892245058
Ni 6.571379033700726 6.43613028133177 1.3617953863327443 0.01032246497193061 -0.712435973821773 0.7796469244506316
Ni 8.892621806031784 0.0576517995792098 10.825856474738478 0.11437989500517722 1.2795835359849703 -0.13948234649975977
Ni 2.4916224044656237 2.579977080548995 7.158072194482603 0.1038828521285953 -1.2315787259709177 0.4013983115471087
Ni 2.3734582946613942 6.8760551594383434 4.335980521941751 0.2549241071105481 -0.5715464625618415 -0.48761845628861833
Ni 4.561328824544541 0.98430880848458 10.06893959085528 -0.8467856270806579 -0.24559434506918992 -0.06724308941837451
Ni 6.9739324231807425 2.1227434989916003 12.899038639312941 0.5483024044322363 0.35446230911720245 0.12933805897690628
Ni 1.6159644539964995 2.3536475779825152 4.543248978210744 3.346844065813901 0.25432658273586517 0.21097238411994632
Ni 7.814058051463338 3.2894285328870696 1.4534110818958197 -0.07851274879492286 -0.2346638141996152 1.617578186464453
Ni 0.7874563826579181 2.6683877718538898 8.98645103643207 -1.0718754244385926 -0.0315993720728359 0.6502769837945253
Ni 0.24450644195091814 7.595243924451287 7.6668509828861 0.05063941942342246 -0.053027202929308674 -0.31188869742104997
P 8.077787050267137 8.769304295847375 8.763837210226663 -0.37682653574501557 -0.23809186604455773 0.03227634353520248
P 5.381587720926734 4.59846691641475 11.09715499714418 -0.07474633977395514 -0.5469728869875353 -0.7946418551975669
P 5.096778327089518 1.2532285511495742 13.271819938553115 0.6340744058927339 -3.350330995921236 2.1400736571359142
P 6.0777075505421685 4.438711504629178 7.312885196555734 1.15391238433669 -1.6784806783767803 0.5659874804168252
P 1.0230993493897371 4.468913044900702 7.694028634782369 -1.5022256431333612 0.10144107545632207 0.5077918459126997
P 8.432662150360237 6.086203192473263 5.698416348973917 -2.771479257947233 1.7778815834746218 1.081455354817544
P 2.5741608333807844 4.630825042714935 4.035003267998747 -1.8707626851760748 -0.5099495156856508 -0.09144436925492638
P 7.5237871735275625 2.115246795177679 3.6123357460565986 1.6173354743260275 0.8017285868410193 -0.7753768363203679
Ni 9.396833486707049 3.6358546704003465 3.6993339201920707 -1.9635849086151347 0.37592973496235904 -0.9585460821851169
Ni 6.463419030084062 0.1572123207283956 11.615580540281082 -0.9600180387449531 -0.38518750611520114 -0.45540793299434473
Ni 6.041652419621419 2.899926690022073 9.703167663001768 -0.6011910249011517 1.225747206890805 1.0276082270901012
Ni 0.9378068387496612 5.493627499844373 5.327903666205452 0.854140267673516 -1.7245430199524816 0.3467605695975705
Ni 1.6664808479406161 0.29537759896468496 1.7906385864478809 0.7306985195763868 0.042836635549552034 -0.7663445509147705
Ni 1.897963750887276 6.836237672805252 9.243033426556472 0.5327683133523793 0.9391761622989373 -1.0599863863104906
Ni 5.374529803014749 7.88002531067774 13.454370744737755 1.4000700581085177 1.302630647612421 0.9236783237736543
Ni 5.714019388929341 1.1010258583994474 3.799108232770072 -0.32518438608869155 -0.7352272606846757 0.32562867271496176
Ni 1.9090080853976972 3.2303698176605895 2.1116328798023756 -0.5922734106965477 -2.746089357119219 0.4490670783779815
Ni 9.12572915040263 1.046831131575275 4.686407079858846 0.1616884502831538 0.6313757760146481 -0.10828175252723932
Ni 1.2853719524339198 7.503939113367668 13.642524006661786 1.6995459836875118 0.846728034369845 -1.6531175170216432
Ni 8.267127834887471 5.702377558722667 3.540120922468254 1.2178454355452253 0.7568070437379805 -1.5286087611125805
Ni 4.016347398470282 6.151918383190807 9.933665631636636 0.916469464730041 -0.5785869143483906 0.009426949740854732
Ni 4.0945259759768495 2.5867829299641234 12.262474193221495 -0.8866364405290086 1.947264574188556 -2.294833241509719
Ni 6.314231823425961 6.702183911828802 11.406698845632206 0.3258575008963162 0.3112132686205802 1.1550048460699205
Ni 3.0305075072640544 0.10952376188419993 7.3141838161080575 0.07186490446110204 1.3857960646880068 -0.47290171890373395
Ni 7.838349985864112 9.173659508286404 6.205733140095645 -0.8457762119795369 0.02812092660593221 1.630416990100334
Ni 6.704041750009338 1.1464355313146544 1.7346299000333658 -1.5789841282413388 -0.7346405349432702 -1.6530897491075014
Ni 6.8182847943069085 4.744741331553619 5.2225819795225545 -0.676077489797397 0.03414193598903152 0.2818913797280113
Ni 3.9578394995887853 2.9650723926541276 0.9471716502013974 1.1160888857310134 0.03728716648623256 0.30704293929297444
Ni 9.119203377095122 7.212977381033101 11.039670309642514 -0.29523026292876253 -1.4981031363245556 1.1431338056639473
Ni 2.754875273886471 4.791327324120823 6.703936254675468 1.8230743779611764 1.3065726629793046 -0.654879258453227
Ni 3.9216910099654956 8.37344472533944 3.86569259300826 1.9404184978010004 3.212105147536397 -0.09578721960465438
Ni 7.630776246637816 4.260881848031962 10.829750466221402 1.57557973054548 -1.013695473663751 1.4556801912736543
P 5.813577109317451 0.6441974536110743 6.727916371009761 0.7331634361771115 -0.8609302940121559 -2.028762887974364
P 7.511407809570827 6.847057946429579 13.122089384246236 0.41799812488731886 0.9434030558960914 -0.5319409323550774
P 5.794503926388633 4.288796100091269 1.7288640665645272 -0.17525076234862075 0.04012694992787282 -0.4599508151700208
P 7.762925490082461 1.868453065014544 10.658061945077232 -1.803776706073829 0.3139028996376014 -0.6903134308911207
P 1.7895929689794385 8.442800905456025 11.186585165480805 -0.4637753311224335 0.48524070008506115 0.41262580483181194
P 0.5203767400199771 4.726340331283086 1.557230627054857 -0.17033327044234536 -0.845612175597847 0.41304309487488866
P 0.5116943806838048 7.623821023298624 2.862127618537885 0.12999523294493096 0.8259206107061905 0.16397621787606598
P 6.070136159766216 8.29854303829201 2.5116329087679374 -0.03842616518668221 1.0504905310049133 -0.16283361963119053
