# total energy = -340856.58398143435 ev
CRYSTAL
PRIMVEC
9.48592508082301 0.00000000000000 0.00000000000000
0.00000000000000 9.48592508082301 0.00000000000000
0.00000000000000 0.00000000000000 13.88361020778843
PRIMCOORD
 96 1
Ni 4.9735842045261185 7.795997812191188 8.03512564473486 -0.5712579847871452 -0.10966063515263694 -1.5543707005680327
Ni 4.304029688336767 5.453306393587774 6.473940678235667 0.4055956374579079 1.585413171696134 -0.3781367699160068
Ni 2.3562468051447625 6.674524352533388 5.1803081179478525 1.8848657002363602 -1.1862766596000085 -3.1354515634374
Ni 3.67720926337819 5.971920874335596 8.974657169514854 0.8035952077361128 -1.164953215531884 -0.26787706772679026
Ni 2.5709037974779947 7.216474208292909 7.215867109105614 1.2891925198296443 1.0136489366965318 1.7886861302892938
Ni 6.109400382483792 6.50063786499702 12.570261867603145 0.16019232535360153 0.5671457623909846 0.38144295147110435
Ni 7.470251154507544 7.285939635614322 0.8002373592172707 0.9649183042600479 -0.3186041617680126 -0.622573861452302
Ni 1.2938042555267215 5.985476260876945 8.904919496151638 -1.2089386199738985 -2.7967568015670996 1.608297018272843
Ni 8.286714188097786 6.612002622166676 8.785701341838816 0.1789814330356466 -0.19125870774110287 0.8941587170479827
Ni 3.829657560863159 8.987591227981705 1.8505739716036322 0.6720663117554748 0.4211032461752038 0.34606560041307494
Ni 2.7800684393511554 2.39552801974779 9.824667176165615 0.4492048895074264 -1.1883695375732952 -0.7687572741213211
Ni 8.679554791902467 1.526825998275665 7.673415948943753 0.3107622971260906 1.0188950155868193 -0.6289843929643361
Ni 4.830858979962691 2.853963793554871 3.196062288411348 -1.1567318560633564 0.13411439731962707 0.6813014572004976
Ni 4.834036764771194 5.1533899091386255 10.89381627461832 0.9466040793318923 -0.9853740010112386 -0.25136132945995415
Ni 5.5976252535178554 0.8986538290328737 8.143209220515676 0.24096096006223666 -0.3924128202190467 -0.15662723371016252
Ni 6.112378962871465 5.736575080010284 8.26042869047282 -0.9773932967986071 -1.6092961489613185 -1.0203402326737783
Ni 8.946033391426315 2.251028927246481 2.7625887257194246 0.9171726614446527 -0.6101263797175687 0.8680201109794019
Ni 0.9342080237813906 8.08110676802519 8.636369170651141 -0.9747741140082051 4.208057181173798 -0.14394321048459083
Ni -0.07684547681698319 3.2297487045664486 11.981125227511024 0.06679674590957528 0.28359447846204705 -0.37349335760672453
Ni 7.380495334035714 5.102668669224983 6.241890294186398 0.5070858209846105 -0.3697732284426599 0.9276002845358798
Ni 1.2791105580091917 0.39665204838992574 1.153483712900475 -1.5187148990376362 2.752743886321259 -0.4344331305148905
Ni 0.5078934885371621 8.089900220316183 4.883601670451532 0.7585430525924807 0.8082015961598727 0.024537323019731935
Ni 4.462065195529822 1.197531604716258 13.379051736621452 1.2277626946589373 -2.6687063510533653 -0.07876188869125145
Ni 7.965549232093268 9.136197725922065 8.356919517553717 0.09750574495765787 -1.7776319293576612 1.5374898656522942
P 9.090741174273258 4.8928115548413125 9.870594229684576 1.0929214464756143 -1.3561412179360515 -0.07801549744353016
P 6.809243456564346 3.3607303542256144 7.842017827773204 1.2763984533887696 -0.032596702989098704 -1.4194456344216522
P 6.448066869747085 6.467494043740565 10.164565885060624 -0.7416164520404712 1.2883630819498133 0.8181342818925522
P 1.8830129886473352 4.826201390885152 2.7768887573576917 0.6514398937543748 1.1116007680526725 1.4995848630764046
P 5.014705688540638 3.498797989711504 5.290488083109801 -0.4216768592904867 0.32785344828042245 0.028851891234685796
P 5.81690189122942 7.5584987129359344 3.323152811716937 0.10664910201982278 -1.4395385485167853 0.041363393438135214
P 4.121122086314168 1.5784958306694568 1.5850088666381694 -1.6172999931024015 -0.1299245276079956 -0.1579706351119344
P 8.49942656584671 4.790325623285865 4.350929049147882 -0.18872488557565562 2.1396267994064826 -1.009802566367248
Ni 1.1958431101015907 4.7432849221952065 0.7536273191126011 0.627088975713836 -0.7674125871679687 0.5525138714104226
Ni 7.691406005329806 2.946745624038381 9.863763415235015 1.689254886174149 -0.23427737739447396 0.6557038112370513
Ni 3.7859748771522335 1.5985775334742407 5.228151328276718 -0.18679475843247828 -0.5072105194879329 0.746738603758385
Ni 6.188550939027541 5.693651270283479 2.1492383139789832 0.04495162501002581 0.05065638870428695 0.06453391801732757
Ni 5.021355321826492 1.0031650055334431 10.648604169906964 -0.5717925171343765 1.8914184137532137 0.6637212822248892
Ni 2.6162844617283896 8.642132818560535 13.652892362383747 0.45609827419314997 -0.9499791664517122 -0.45311708007763896
Ni 6.059921798719148 2.1464276344602977 1.2458510084701588 2.0669337426171306 1.705243034072289 -0.7506662209475653
Ni 1.911508706751053 9.320338498168859 6.440814880236336 0.5043329408298217 -0.3908501037176172 -0.4306749490240389
Ni 1.55889791002955 2.0409156928931695 6.828209614612473 0.688156275338802 2.0334340681977885 0.20612508332997403
Ni 7.913888885624279 7.541044611301167 4.391330551469967 -1.052837433970535 -0.2592055080947213 -0.8071330456860423
Ni 9.271723133561151 6.0617525822058385 2.7704184080505856 0.7365464937167315 0.3584660309599569 -0.13171093008445703
Ni 7.655245659986473 5.067030049745735 11.416936569646856 -0.5791407299693317 -0.3607319441759981 -0.2515755023532893
Ni 7.306903529425647 9.109836340898685 12.13551055084046 -0.8290938662278494 -1.3234259870912175 0.7014954156498693
Ni 9.159646932031382 8.224960817639996 10.793173458251804 0.0089608087377136 0.33364511526153506 -0.29277537363036676
Ni 4.294553249460064 4.794859895340983 13.539782195050615 -0.05982828501154212 0.5539040668897299 -3.5795278734690097
Ni 2.5097859839819048 2.428377777335398 13.775692401901617 -0.7519420023361953 0.22928172395209542 0.527511178718498
Ni 5.452272427784411 2.9026740174105936 9.357955881561702 -2.070496520267725 1.21616753362217 0.450407908676592
Ni 6.942691446671904 3.70837052635113 3.35994491965205 0.16219007250992068 -0.6417638041171916 0.6526028037142244
Ni 0.43817763280098926 5.83418524621776 5.884678823936165 -1.291961083713717 -1.219734939258454 0.8001609852435831
Ni 4.548671688967552 5.738557638293798 4.194127660771502 -0.42918473763175763 -0.9006373827937909 -1.8714777089652286
Ni 4.228521726916795 2.9607278771957977 12.03163303411663 -0.06327613435082652 0.7152474751286391 -1.356248432937877
Ni 4.54424176208525 8.395906668487898 11.401845411880144 -0.4312524187940638 0.680646340115002 1.7493346250748647
Ni 3.503218430669005 6.6146776529607 12.087750816649848 -1.7070181236948407 -0.761029052239128 0.1965922041388743
Ni 2.1639386516438734 0.9420604723320755 3.5699338883904623 -0.9136412512526265 -0.2873511172910019 0.29694750273018533
P 1.3916705417038373 0.9510683065235837 8.646156747861333 0.07194512287973416 -0.6490904196855919 -0.07737426431510545
P 1.9118691718935104 2.5745558785265734 11.78121505387421 0.9631247026947348 -0.8683713236712335 -1.080721561975313
P 8.765867221671352 7.420725141118892 6.896682814199649 -0.2785281196827332 1.2423408495834283 -1.344113083126924
P 2.588101779143121 7.443244726597662 10.045555472500956 0.25055580283952333 1.0229388466388898 1.5048301706357439
P 0.8252640746210784 2.3955185338229885 4.874716204689965 1.7018293804050497 -2.3872697994745855 -2.2121373078713837
P 2.283812283360479 5.090963038019928 7.265223324440319 0.006250608895402138 -1.4015340442485538 -1.1335965555974736
P 2.8698337457477874 8.553230731320841 4.314956525115619 -0.3655730743183833 -0.17823941266329948 -0.4173782319151328
P 8.171972441698795 0.8845473102605572 10.68124428855646 0.16224098035251414 0.06992269313306669 -1.2443249698929926
Ni 7.360840497846997 2.156966496914768 12.31698293244059 -1.499890053021649 0.3860259428560965 0.5469255786893676
Ni 8.636308460732412 3.1597425795313496 5.565439510666352 -2.020996099544752 -0.7559246411330272 1.5945737551494796
Ni 8.789515632201502 4.931798705775494 13.417926005050496 -0.7787331543871104 1.880680201400103 -0.7185138045847368
Ni 8.310798951168804 0.6480575134041838 0.3145760326373933 1.0360548151955575 0.87807775232572 0.7941381760882711
Ni 8.336354032584056 4.153734695781739 1.526460790170807 -0.8303485645705571 -0.09124485164961059 0.45793609873283714
Ni 2.4829597886432517 2.8213701559369038 2.1958455083062125 -1.232826739445406 0.14611373577334835 0.4876827338676504
Ni 4.523666791190788 6.989447570018516 0.8041597891226926 -0.016275854341888097 -0.04863293051635496 -0.7846315221494163
Ni 2.46800048523128 3.7148399270657557 4.731492969074457 0.8094845766373543 0.8475759841924372 -0.2502963785305496
Ni 3.479124181673185 9.439348910728528 8.974517726420272 -1.2808932559353294 -0.24695111620740048 0.43934676576642406
Ni 2.343412348888328 0.06746674296573626 11.416228919656666 0.12177490191766768 0.49853201787732854 -0.7369347302940856
Ni 0.10341555218599564 0.6720255996001439 12.382153133011883 1.492747528439597 0.833523619864429 -1.033686314963381
Ni 5.971664754365956 8.700651488661013 9.838023358286133 2.866339337751928 -1.333157869667001 -0.9121680091412097
Ni 1.8137467657467539 8.049717842857014 2.140130877577059 -1.1248314078103336 -2.467030047523364 1.5582638649748517
Ni 2.4938116866161724 4.560206573526181 10.825133436093031 -0.2794963971332735 -0.10464107045085849 0.26742969577672654
Ni 6.100976881260057 1.5327357294270019 5.947960376879478 0.7649715818266438 0.8742254684591653 -0.5887797957209924
Ni 9.15855605067921 3.7421309327196823 7.880073460891877 0.13921469466066994 1.8380862779889764 0.557943012845794
Ni 6.6867232518281225 8.61257467687905 6.482909620135489 1.6631910992075614 0.926253026479366 0.010274642453130691
Ni 6.025298173193659 6.707516398993018 5.567966561033473 -0.701256817276502 0.7457736687419544 -0.3999201843396854
Ni 0.9280526071776947 6.222567465365734 11.760375425677786 -0.046010662402159466 0.08831199427353177 0.10449143224687167
Ni 3.961521401528865 4.680810621452502 1.6413201620373372 -1.0633213642209944 0.16139380186087043 3.9197267306886623
Ni 5.328395735801571 0.19895209523186214 3.5651719541401072 -1.1964343168593008 0.023623810066527057 1.5896814600541849
Ni 3.9317925132009517 3.5071266316872247 7.2980996426173705 -0.8818109941159071 -2.296965971582005 1.0544423165638097
Ni 8.595481040386739 0.7621257591422684 4.944689128988257 -0.2395489102060584 0.049285476498689314 -0.17214281284725835
Ni 6.673338611933199 9.403577488302055 1.544385393675729 -1.246133740966957 -1.6904735890725981 1.169253899789767
P 4.644479529462742 9.072006472790289 6.116007329108039 -0.4866373233222715 1.2107702738659987 0.6242263094540604
P 5.778891790549793 8.613200747915949 13.60314722413218 -1.54227648840766 -0.4196153487757676 -0.36193470623484764
P 6.234339498044401 4.0130394591258325 13.433836746720058 1.2063068387780063 -0.34068299594492296 -0.4931650971384604
P 0.24301990748972868 2.5608202594139957 0.6615692646914461 0.20724608430829466 -0.6969553616876707 -0.49974300746629424
P 2.2023566470899643 6.413310441274374 -0.06085315619412774 0.9052499418651379 1.1355138272248446 -0.15978069173747966
P 8.48119461837822 7.102092927036375 12.63468173152264 -0.25375759760627264 -0.5638246684375515 -0.2452009662855132
P 8.936945875466476 8.403694612749932 2.2467564667158837 0.2980366220293061 -0.5619392784893806 -0.04605205716305617
P 7.115060186240031 1.1932060230067725 3.196867643426996 1.0206767900775906 1.7461156039169348 0.9267603051330877
