# total energy = -340893.9286711781 ev
CRYSTAL
PRIMVEC
9.05200506536388 0.00000000000000 0.00000000000000
0.00000000000000 9.05200506536388 0.00000000000000
0.00000000000000 0.00000000000000 13.24852440385768
PRIMCOORD
 96 1
Ni 6.372448430741885 2.068573184884793 11.614358491788881 -0.030131786388373917 0.2276938106396853 -0.44303089948623053
Ni 4.613200353282156 0.37133315058563965 6.281668590380368 -0.9535455436467319 -0.5777939861334501 -0.5828084086289059
Ni 2.8085112118146487 1.453978268177191 4.738122545282028 -0.554942021235941 -0.4435428061256426 1.5414475647484616
Ni 3.5718396191022945 4.392277124562265 4.93997682072726 -0.7181695338714407 0.6356759460518988 -0.03406326023229617
Ni 5.107829050608266 4.421044395760815 2.856116610165906 0.5758096087135697 0.014268336993556074 -0.8980457108072147
Ni 7.222992904108206 6.205248850405693 2.4912130985772234 0.5461699314702658 0.2592690143428051 0.6023516208681562
Ni 5.112282636961219 4.667186509804545 11.483953500492294 -0.16948943438481134 0.014696168559594044 0.21173882997232568
Ni 5.572975368358013 7.741591310098179 12.447955801801543 -0.16485013584058705 0.41581011609706453 -0.09301119952141401
Ni 1.906994899518487 6.383537136600357 0.4188000532637256 0.10035761258415618 0.23459593707615728 -0.11169772018732377
Ni 2.8501232777994616 1.6293065488080019 0.3505877660252755 0.09920678680916463 -0.5924785847288184 -0.18127305728330073
Ni 0.7117926284598586 -0.1861399951429407 4.509705161802766 -0.08969833309809713 0.3676363846053153 0.24501558974758444
Ni 8.678953561332747 2.4624349649729345 1.5109543018792155 -0.05515479079527275 -0.1795892418229746 0.10429422863440103
Ni 6.623315691282042 0.579727499486175 4.730464549236095 0.8991710826609095 1.2427537687511307 1.847618642959444
Ni 0.6666276505979437 7.388345875468783 2.4062364984817206 -0.08149934222707254 -0.33331215740214853 0.1216887699617646
Ni 7.7828322438869115 3.8912305558454165 3.737249618093001 -0.8222845566155 -0.10425386231476884 0.18421671329265693
Ni 7.417122198672115 4.016202533871591 12.675644498895819 1.8345592386723244 -1.2656748963236784 -0.09616440043841502
Ni 7.988204128390596 9.10848929226843 6.888185498020134 -0.07961240961700482 -1.0339187426891612 -0.8339792193446088
Ni 6.9877856118416455 0.8230535348420924 0.4159396197524789 0.40490889580352846 -0.15688434402629112 -0.4138113404994809
Ni 1.8157325873020673 6.30186994945331 9.283863738123634 0.2964587360192249 -0.5580319730151745 -1.615211228894173
Ni 0.11384977975000768 4.933668478594387 1.3781641073224598 -0.34282421065764185 -0.6212669697154204 0.3830352356588887
Ni 6.27930330153072 2.0179091141175545 7.024605546494643 0.39692639181868417 0.27627120532775645 0.5213261329537087
Ni 3.3709122689467823 4.047413846361396 0.5539428638634342 0.261778153917904 0.7264536282571037 -0.4718665927710003
Ni 6.078946227676502 5.671298244304725 4.655848873814557 0.6305147135659334 0.559752555250707 0.48582691160583436
Ni 5.411922099269088 2.628702188816537 9.420389695054094 0.43360472107632425 0.8416984423657374 -0.0072307134204843216
P 0.2367669526905716 5.496359199879558 12.494312023492824 -0.0438859027496728 0.5500037033940592 -1.0457442745691794
P 3.8960371703848846 5.944496800643127 12.824464888721772 0.6750601042764761 0.648206988639374 -0.9972782086479922
P 2.366510870293565 8.43707494154154 1.5310524680976363 0.1503552846585217 0.3367345528201362 -1.9309516959611457
P 6.260176415425454 7.949751212074849 6.144280882594618 0.084047562570223 -0.9211709839707684 -0.7130093298267397
P 4.74391130234039 0.9315146561451219 12.596498295080677 -0.20467163871289915 1.0812530089987509 -1.0940067091199932
P 3.87702796034179 6.094524727907056 8.242516581950943 0.36634414815645294 0.050346056552719745 0.15773177962825094
P 4.579336803391101 1.162295518073075 3.484414451713145 0.7439746678600025 -1.4236815268798708 0.9892625374323671
P 0.2738367226755629 5.535681108654417 3.5115614140556404 -0.34893495154107 0.7437977759625061 -0.05800408731860979
Ni 1.6152487853808941 1.2056908290000259 2.555295861233931 -0.725402304174454 -1.4814660419885068 0.5196726565106856
Ni 1.857471381353834 6.4568764793475735 4.665083729093588 0.3183743051453936 0.7372900567509755 0.602549338701259
Ni 6.215550031848093 5.694742936691208 9.232048252348068 -1.0501871408318815 0.18128616990942326 -0.3110924267719998
Ni 8.618884457596568 2.3442248345192325 10.295070433972278 -0.641744777953798 -0.2641029453963387 -0.28309902688286726
Ni 2.283875118634797 5.441096710682847 6.854786315974416 0.00317891194861388 -0.5234598914672598 0.6422739109843906
Ni 0.44285666117350114 9.12867526293324 9.323476216252008 0.6036271451464701 0.5415681710321963 -0.7218305276627955
Ni 1.3147946426426074 1.0302991843357379 11.400540181622715 0.7327952542044154 0.7288313844606609 0.6503309769609122
Ni 4.175155737850993 7.075472382169007 1.440101544845732 0.27672500503572345 -0.4968368895630928 0.3849985300328467
Ni 5.454575145803879 7.758681495127399 8.23770725181004 -0.695044774928519 0.23926943129242664 -0.41545813207428445
Ni 5.157108164643793 2.7024398197741797 5.00939936100512 -0.05116212469611189 -0.5959624295123607 -0.5714546741789837
Ni 0.7286447457633012 7.536536245761881 6.87749417517161 -0.008535548274836914 -0.7150294455805621 0.1526574504291371
Ni 5.151532129697819 4.701538867953852 6.881734134211698 -1.095005839808469 -0.24564705268399634 1.0611719219781595
Ni 8.224751117364953 7.349576138985652 8.834698734817259 -0.7857504662452081 -1.1417361539854725 0.09017321585198664
Ni 4.756484536983179 0.29234535685418955 10.421354952691903 -0.2487858554232941 -0.8646239408136595 0.8312919023204327
Ni 8.055143703756636 7.277304932802762 4.969852962511657 -0.19910160082428938 0.04422708813917545 -0.891650348803832
Ni 7.234905342401878 6.046377114469332 6.921783824171064 -0.28795429809263956 0.8206688753889478 -0.4274849813318315
Ni 2.454251952649621 5.196484385447347 2.692033635076303 -0.08715319807874022 -0.0914281713050103 -0.5398892406678766
Ni 2.2996980229944786 5.073811616635908 11.382959377934288 -0.4322451217246362 0.042558699297817026 0.4121370381208515
Ni 1.0200975749459436 3.29187921519142 3.777856006346486 0.4903019166580524 0.003256045043452457 0.6455245567112043
Ni 3.4704662175439043 2.841686809342241 2.9717632128652256 -0.266134888224703 0.6502049929060092 -0.9453280408329461
Ni 1.3062223941136502 3.341276005289119 8.153870299116646 -1.0353986696687973 0.4855600310976928 -0.6706740593936386
Ni 3.665527868600404 2.6736453925612826 7.22873911674409 -0.14821844082117697 -0.005166117581971747 -0.3357958430559507
Ni 4.2051812377143 6.859156623883371 5.736942477786401 -0.30544268468539004 0.93052774259532 1.0544862824278678
Ni 0.5877222301100136 7.311394782813379 10.95723182541057 -1.1780319030927133 -0.7819611744061049 1.9466624218281827
P 0.13167679796851764 5.439304413735926 7.805394365807109 1.0466233347400233 1.3923107258780731 0.9912829102965057
P 8.602943877174717 1.6617851419673468 8.050385970042994 -0.6661473751678786 1.3120745666341405 1.1322076456697467
P 1.7742200933698615 3.2011600232619455 10.257696516626595 -0.13375881375242127 0.2013495163182016 1.8354275002098908
P 4.224335279833914 6.2331833371642595 3.6608715173403246 -0.771344061011891 0.16011519225876295 -0.6318246906266086
P 6.914926025347898 4.130167274082336 10.426138032018937 0.40941938207937234 -1.688247270845241 0.31115259058597383
P 6.483797141570508 7.593518615867253 10.273236998437065 -0.7511824984623514 1.9617028611010732 -0.413371681858901
P 2.404484030355843 8.45144047313125 5.846679931763752 0.8829849598193503 0.2715740569624033 -0.24843207162830117
P 6.898406116619971 3.8762675919400658 1.7350928026978245 0.4989091987110892 0.9271727100801581 -0.8780944644962684
Ni 5.3629869614152925 2.7271336888206386 0.77244287090307 -0.9075901599625402 0.3963370949741174 -1.087123608846915
Ni 1.4558520331671532 1.0775234932856548 7.11531840202077 0.368161660981166 0.04675808209114528 -0.7830623778900837
Ni 6.78941997903956 0.5807358928189372 9.089137011244084 0.9943692625313132 0.0783001185634845 0.16615137115051387
Ni 2.6360886247189965 1.4592736909749102 9.391732858313892 0.588672837829483 -0.3443866700487553 -0.6376952904747727
Ni 6.523490182541447 1.8363802102107813 2.654606310902406 0.1562071154536084 0.6917866730025377 0.6421633535484553
Ni 3.9449994642530273 6.811823690876065 10.53566366908438 0.583566369840853 0.004186013056889565 -0.20823467347380914
Ni 8.465181416390973 7.423377133976771 0.02814720887095393 -0.7800503305366372 -0.46010225314622044 0.8864461788950733
Ni 7.515073942422749 4.011187723222127 8.054718259531862 0.4145338204878022 -2.0165925711604173 0.1637856991318147
Ni 3.116713870646693 8.327409903602447 12.493609587921709 -0.08305717363249566 0.18498907268230724 0.3001202440312122
Ni -0.0458981902492915 4.634463512516076 9.957299401518439 0.7282138054813201 1.594346983850654 0.6188179939542956
Ni 8.539435011621213 2.3880093816518273 5.895805161717979 0.3147310519658515 0.5455811488463314 -0.4315226417363148
Ni 3.7600941625624094 2.7400961596690725 11.340961696545744 -0.6601245660125664 -0.8524963043121898 0.8759869312349623
Ni 1.0520783078422549 3.4062060355934616 12.730864443670052 -0.2622952027636386 -0.5078201280474739 -0.28676079200517063
Ni 2.8945867252907385 8.334787287500125 8.227094681403123 0.6079759090334691 -0.4367427524846736 -0.4507151555043657
Ni 5.543502040786433 8.17519139118117 3.4491740918946814 -0.707645237301349 -1.8625757784899084 -0.6561704664608248
Ni 3.0715715227967335 8.172855973947305 3.480771019788218 0.491348869865328 0.6825450997996115 1.1284286382432889
Ni 3.5868659470411215 4.139219278864761 9.322377302871422 -0.15253686569087277 1.0132265044471322 -0.5697562034306382
Ni 7.286393145604318 6.214382323231161 11.597652111762436 0.7010683554147797 -1.4385718137281418 -0.5881511609980581
Ni 0.7350490391468677 0.1897345462420421 0.3223246914931065 -0.06975454298631857 0.1828576281616012 0.6753457538376949
Ni 4.838694844417173 0.38891123867263283 1.404078186613589 -0.8673220564711127 -0.44248402584382496 0.5963290688231601
Ni 6.099412810489566 5.5356901606591995 0.45791919713145823 -1.653414993657404 0.9774550032744779 0.4117531724188715
Ni 7.936064580843821 0.031717319557142784 11.29384963245513 -0.1530837393332783 -0.6722509169624551 0.24316439547145863
Ni 9.237661400513652 4.978982814535213 5.620805256427874 -0.7312945012891727 -0.9517228886156964 0.44427608474724134
Ni 7.794292081941463 -0.28403652166440063 2.723445902072278 1.1495003713119234 -0.07366210557084088 0.0412399804863935
P 8.494917252101242 1.507873904651756 3.792283996769195 0.31481409859796106 0.476544972083276 -0.22569837747621127
P 1.7715950119829578 3.108259298179907 1.6795949613767702 -0.2945458352672282 1.273640173917342 -1.2435235570376195
P 4.580984268261503 0.9509221543986435 8.356824393142942 0.2322642036191871 0.13347213574993785 -0.6518857230425419
P 8.5340852767948 1.7632219075592135 12.556977242200606 0.2059636180514453 0.6148520673280121 -0.6141010480946004
P 6.549795308439178 7.966524576936685 1.1928071105931985 -0.376305630244539 -2.398221927610715 0.6344852681779073
P 1.8685781912218709 3.2880321131588888 5.942201212230303 0.3474537390098532 -0.4329861136557188 -0.24713186475963891
P 6.7955753422916105 3.9286062835920537 5.784875558710781 1.1412563861355765 -0.23926428908610406 0.5144723432566688
P 2.3019248161709553 8.36159027366089 10.397772669832728 0.8201592827423811 0.4818028780481057 -0.4143201618150993
