# total energy = -340861.55402259994 ev
CRYSTAL
PRIMVEC
9.37610705108449 0.00000000000000 0.00000000000000

0.00000000000000 9.37610705108449 0.00000000000000

0.00000000000000 0.00000000000000 13.72288042068999

PRIMCOORD
 96 1
Ni 9.368709023919898 7.728265383062236 9.797683723349229 0.7309669427464249 -0.9638063021427917 -0.060692175673734174
Ni 1.753603873490899 0.11314241803036977 4.39944556830626 0.5614605390807491 1.4100073718268877 2.1442750968117714
Ni 9.130199619849613 0.3761403377681913 0.8144517643212419 0.06325427997395558 0.04471534062950364 0.6484581854182315
Ni 2.733838332093466 9.041576658639126 2.495313926252345 0.5773358155501089 0.3774045197356726 -1.922866862070482
Ni -0.06932130780931092 1.8961582008548672 8.88231223378581 0.3858228257063549 -0.04396843516115008 -0.2128875988647882
Ni 8.899528641040854 4.635706581972581 1.7054247488421388 -0.2580356561563362 1.3037177100290127 -0.11212323776051657
Ni 7.538914906798402 5.493460957810381 7.513743810557853 1.3104722551440269 -0.5978339355034608 0.6543912630732148
Ni 1.4946076761234366 7.9579237423396 0.6673022070282364 0.37705767791921513 -2.546490247833221 1.4559720114824604
Ni 0.2148553619054727 2.8519866535294938 12.447832801615721 0.9178887136750709 -1.7195347681046127 0.10620070162849451
Ni 5.30074445921534 4.02115903969792 0.03268792103979234 -0.7341232289872196 -1.1436161446170048 -0.7822244553698207
Ni 7.4688847653171155 3.1846321695922977 7.732458378010748 -0.7811420209389193 -0.7182266123616211 0.217699932651767
Ni 6.2886673253710805 7.348167390625515 8.237186394495092 -1.2974681295748751 0.9151489461464046 -0.0804827280371001
Ni 1.9358847652485225 1.9678760415551433 10.362860437804388 1.0064997272462601 0.6031995706907483 0.326986729404753
Ni 3.8406971126540963 8.8853332153878 10.417751917291339 -1.1767376097613218 -1.0875730376795076 -0.3219103433231101
Ni 5.730760844107058 4.470546461180927 4.624555578188447 -1.4424780907610835 -2.680824474473138 2.822664779682113
Ni 1.3836133241545696 4.750535761611263 4.1898286372543945 -0.40657368510046105 0.17531709681018193 -0.08512074102974372
Ni 6.336372956627846 5.733742446060606 1.1475388950130145 -0.28081305906216797 0.5394891770159805 -1.340552362358859
Ni 1.8306848472648523 5.0133761627553115 6.470887272434685 -0.4366432507923319 -0.2902909166456162 0.3993581411886284
Ni 6.579692303472252 4.966083080196522 9.927982541551303 1.1070895104458804 -1.5882843225963421 0.26480485655936975
Ni 7.107576490851809 1.4318065129634883 9.639087814908768 -1.411409137270421 -1.094882169746411 -0.36662774083514277
Ni 1.5921191865539335 9.419049341179642 9.020405409547582 0.17443726530838993 -0.5954361246952455 -0.1269279068735169
Ni 8.567848863975584 9.116688649990925 4.84567230419637 0.08780060185475201 1.018484153301646 -0.13632811714149426
Ni 4.0285661640479296 5.8819130613811 6.282910395812972 0.435811756029972 -0.007865004570373552 1.7240190291282114
Ni 3.335981285108555 8.276401961069666 6.0029089064438335 1.0405321342406209 -0.12821345845415985 0.2076142662809908
P 7.472447685890537 8.549312300887019 9.660879762268628 -1.5995125872119935 0.6426104683882029 0.5556452179505528
P 1.398746360484841 2.0149253453378577 1.0506837120565693 -0.6085693196430939 0.6890865004625553 -0.46402292835686537
P 1.739745987681642 6.182145376332536 2.604588700239197 0.14239489216086443 0.6247706119933046 -1.2361390916480903
P 2.4761266613537902 4.2536583593272494 10.220567703819363 -0.5188182789301903 0.014599752191045824 0.03069614353227617
P 3.93230167581813 7.755306074993155 8.309107696712324 0.5744399820595526 0.223134473403777 -0.7111298534158398
P 5.158930844286372 5.459828862818632 12.072497871419259 -0.32545409481031046 -1.2702154645065091 0.3205607712737511
P 6.434531418425623 6.560199377492925 6.051968447518499 -2.6539109379117454 -0.33824944680276586 -1.1491429879725048
P 8.232090480464423 2.9184632505441304 10.628946847112958 1.2004886894343325 0.31259729345230036 -0.32089475757440217
Ni 3.9022981341472085 1.4785932857565822 12.15681157395726 -0.8946166305210077 -2.1789294536608472 -0.12814943798544381
Ni 1.3280880198498195 7.272267806304854 4.9879378474717555 -0.4631173858234605 -0.8349004456072977 -1.1480533544527518
Ni 2.290986057030657 6.9120565363318915 9.400598100662702 -0.22466453689505825 -0.43618353754709394 1.3886366194605957
Ni 4.16007543763429 1.2055704326579637 5.633599062459163 2.1271618341702525 -0.4994591576772882 -2.9347419946960422
Ni 5.053280873177639 6.78921078540301 4.382730782763525 -1.012979935653965 0.6705107943428967 -1.1163963896691032
Ni 8.490299084863024 4.284833914344692 4.175584455846124 -0.5271645940123567 0.4921736797594686 0.9118039409335716
Ni 5.085365910551981 3.1924237143199647 11.435152325528083 1.270510884259741 1.5342471903452803 -0.8046727570710077
Ni 4.048255988269472 7.1191184782883425 1.9899408336220745 -0.4584251225541137 -0.47126521174157543 0.9442648896757544
Ni 8.109169720681363 7.676509273679896 6.477638069310643 0.651724000653697 0.2325385403264963 1.0499760532623401
Ni 5.434663392242146 0.5936116334630974 1.9679566760733838 -1.2727138054483307 -1.6016556016969257 1.5963293043880056
Ni 2.0300302533478125 3.2838501314553277 8.300736708586138 -0.7182980890295049 0.4068999580916282 -0.34057758071531025
Ni 4.172826942844431 5.404294182407109 9.386820849371686 -0.6200678072009966 0.831380348269181 0.1464297243518704
Ni 5.980465319663306 8.730871232423185 5.439886821324919 0.5024223540706703 0.6952856872947316 0.3658453541431635
Ni 3.6804782001313727 3.3250299923986684 6.457342548591618 0.6545936088920081 0.8089595573718197 -0.07185641982066979
Ni 2.9417722519797276 1.0345314929201639 7.3501391858797005 -2.168071170790105 0.33019803725319913 2.8929178595714045
Ni 1.5935818592103907 7.219649095099475 7.2437456895039345 -0.611641016589882 0.6752714489563338 0.9433868579461754
Ni 0.36681673719395225 2.715658061062242 2.8944847950850003 -0.553244321818544 -1.7092254157588047 0.29239922123787065
Ni 9.60975935292544 3.2178610919928436 6.323708649210686 -0.3179392744905041 -0.2259367187392625 -0.09540978166057762
Ni 2.676531567502005 3.49997876866046 12.19766420877425 0.7920578965204746 -0.13500734144754167 -0.029941010533806503
Ni 9.569067049534253 4.889874084352379 11.158334024408093 1.2207176148866976 0.8964056041006304 -1.0928617968822727
Ni 5.04474861601497 0.380100805268753 7.804037452330795 0.6434021110515629 -0.9283896132063946 1.1405421336773711
Ni 6.772052510009951 5.661462038953999 3.302301371972268 1.4748477653410408 1.2338891192716492 -1.7071721327742015
Ni 1.7002725781708352 0.42652753556179596 13.220032078378887 1.4633549342100927 1.691135133915997 -0.9430562140796338
Ni 0.10380381568529529 7.802767927473845 12.446665476322588 -0.2312571025109114 -1.0385421003937858 0.1307483090608716
P 4.379148172365881 8.873406807573609 3.86539190267062 -0.8390810593475484 0.8153142959452538 0.4992483272180628
P 3.9791353291450853 -0.12372054169072422 0.0556987622800351 -0.29157981066036887 0.6085276677718809 0.840322130843501
P 9.049340075046478 5.85114067895486 13.32407967284026 -1.7382595982076254 -0.3311282623769523 -0.1726763167532252
P 6.748809141321758 3.740391522405495 1.8826003504623194 0.35471710544048585 -0.5038410887950678 0.38941208571950997
P 9.120401588272703 5.850137435530239 5.89663917467746 1.4085536700994967 -1.3921078658386477 -1.2483101797929854
P 0.31414364456929417 8.958035547299154 3.028818152031136 -0.7661656021347449 -0.6247916950392272 -2.1497811142316654
P 5.573579790178515 4.507966503308631 8.085480049310817 1.3284298680637119 0.39925786816533815 -1.9174989128903492
P 6.177513579587087 2.3679451414165724 5.941279756630405 -2.1542864583011863 0.10615313622001073 1.0978479372429544
Ni 7.6099576678110825 4.171861203846898 12.211867135312724 -1.6543737580262474 0.857259272918472 1.345641089735676
Ni 8.717041474934243 6.823602345043304 3.52417287457535 1.3841821832336678 0.5441338748768434 0.42436649030750784
Ni 4.180215314980895 7.463671649951793 12.485926985820342 1.6016221773558288 1.66125660118901 0.7387663841861858
Ni 4.426056834547013 3.0351301471101566 8.956745395007305 -1.4678805899945881 -0.19004848948308561 -0.6539608604040157
Ni 7.269539359234154 1.6022172535475532 12.232232039221861 2.8923331907125287 1.50940159205651 -0.6070847646777673
Ni 1.3300382500584296 4.646085932169366 -0.12530885417792867 -1.0584190418233708 -0.418686152093279 0.577265881544122
Ni 8.021474994041322 2.6274851529768197 0.5475027531896308 -0.3102385634121367 -0.24723676576861936 1.0795293414394247
Ni 5.701272988308605 6.91460683737392 10.567098296401063 -1.3687681626714425 2.668022437612463 -1.7767762662255853
Ni 2.6017196115669154 6.144415922681351 11.954631770797075 -2.2812490750673806 -2.199069933164464 -1.7873280735995023
Ni 7.786509758330913 2.126097843335396 4.796709337021457 1.9545294832810856 -0.2664673318634572 -0.7822236840388722
Ni 2.155698212415115 3.9126118515965875 2.0350614722417553 0.49842865953024484 0.7882228390451005 -1.1024952062069788
Ni 5.5308622477245395 2.0408502805628888 3.684167698146219 0.23018803781644873 0.9552974933408322 0.7063679132508222
Ni 6.073270024494176 9.348269111156583 11.563585298482499 -1.1308770997837814 -2.4723373186688904 -0.7734899037103002
Ni 3.2604754972723256 5.629977072413076 0.37509865230580397 1.5450743628677712 -0.18705443985176817 0.9288485551206842
Ni 7.883683728917612 7.503792010829878 1.343984271271345 1.6876934552243 -0.06183760213208704 -0.307691885730883
Ni 5.695741085313028 1.5091125132999732 0.029011549574427174 0.2744117835215145 0.6005269089545916 -0.8224462790043449
Ni 6.928061550591973 6.6345519041961785 12.356067907025883 2.2336648975305144 0.2940650389760677 2.184853789565082
Ni 7.304315339252108 0.8451819542670066 7.104842418117046 1.040826268442272 -0.44352737950667487 -0.17985046590416123
Ni 7.686138535334908 0.8727955263217042 2.7570638861787913 0.25351668524006016 -0.1789590644381434 -0.10789660127367869
Ni 5.725210188897937 8.000378753803954 0.635931628989933 0.2873981684788534 0.564355344130041 -1.3789756993320639
Ni 0.3739725818824672 0.45751556844379515 11.210824282950695 -0.7602111843235231 0.2761501063688599 -0.48001956089543774
Ni 2.8450202061977765 2.7086447331966634 4.0322903536578325 0.2902058131309776 -0.027673554655868467 0.2162737417282017
Ni 3.6199460548102875 2.091274982783582 0.9134690774993479 -0.9691909634934727 0.24817958929786293 0.3474822782549435
Ni 4.661706526051789 4.004938374982078 2.3684589520676864 -0.7705436765977827 0.4499397107909219 0.5193430410854087
P 0.07915778142398727 5.465098234824588 8.84865013525239 0.3882232076177314 0.4162019522188445 0.4803867144268694
P 6.604764012981017 8.120280407206376 2.960396012861276 -0.05312541907006979 -0.054700733976989664 0.07063386026747835
P 7.680006561505913 8.693619960217381 13.214117630227006 -1.483160398971794 1.3392819802868676 -0.7817935384799891
P 0.24609186161693417 -0.4182174921296278 7.355820168972954 -0.11251327411008365 0.9230293773357459 0.7490369128742584
P 3.4861208828512034 5.014491919461199 4.373468126883305 1.271974870399777 -0.9471391258997559 0.18270773284729824
P 4.754905027367091 1.3129174790924596 9.975394700666099 1.1255824270437453 -0.5613204139584591 1.299905021151142
P 1.7956650884708227 1.7453528995313956 5.801635772808517 -0.40325644780177 1.6475017134967627 -0.6105544683939227
P 1.912819542589001 8.10009364932591 11.319564618851533 0.07296765060697756 0.9174768229486329 -0.8770513679437347
