# total energy = -340889.9039277732 ev
CRYSTAL
PRIMVEC
9.10647337190116 0.00000000000000 0.00000000000000
0.00000000000000 9.10647337190116 0.00000000000000
0.00000000000000 0.00000000000000 13.32824427621170
PRIMCOORD
 96 1
Ni 6.636980032055607 1.963501394846055 11.680166923886883 -2.0650815198997403 0.017798975854633862 1.0082449920721408
Ni 4.289704523586272 0.3857119711886898 6.0094256222575115 0.5959421177973866 -0.25742527626584694 0.12324351604339417
Ni 2.6985304051467716 1.6376717722410912 4.683225295819783 0.7218971192346729 -0.0076582878762061655 -0.5756807964451892
Ni 3.351446343702688 4.373484079985535 4.65051757487204 0.09416742461304428 -0.8214582040594627 0.227979203090588
Ni 5.294339788969228 4.627773246604344 2.609350709949164 -0.5192309409875767 -0.06228728807499596 0.628829869664343
Ni 7.249563399384095 6.3280064919392345 2.9246432320422158 0.005640486115228996 -1.5929691296665212 -0.4534204702506708
Ni 5.108403812603992 4.193549269671073 11.857245944104957 0.018114450212523645 0.5810325476754058 0.3477987810540978
Ni 5.887417090014322 8.054338890387198 12.712093379766902 -1.1200599545636196 0.8960150535304311 -0.8987504501837231
Ni 1.9743107789162642 6.673633587980285 -0.04533748907493214 -0.17322627571942426 -0.5397421735670511 1.1173834361727206
Ni 2.4656960901449905 1.5569610974186265 0.25508962564136334 1.161687914517051 0.9251621074080325 0.7542007164633849
Ni 0.5885768818306902 9.152005889267425 4.691075986642806 1.5061110942306966 -1.112939284358438 0.9401835205175292
Ni 8.694287210648271 2.6758097537102317 1.7198768193684604 0.7447069180403367 -0.5053282148635555 -0.13241695501254613
Ni 6.73930947501849 0.7371735848150673 4.851348099329302 0.21811876535674046 -0.45744990312503797 1.1877283044448705
Ni 0.9264379772524699 7.565694627688491 2.3760792842183434 -0.17763134676565537 0.17510883745411776 -0.5174594509094508
Ni 7.496330618874014 3.7324429829018624 3.932751706426333 0.3275559716446617 0.02159598100322087 -0.6025102579332074
Ni 7.659955735111185 3.9265656789630703 12.734897810759842 0.3213354446562466 0.9614773968992989 -0.35694625188132073
Ni 7.9874609488441335 8.911649627136754 7.031222036992035 -0.31703244640551853 0.4629003847166479 -0.2551033130008897
Ni 7.327296257364978 0.7389192957891694 0.6758369324099324 0.07653814156705528 -0.4222075349829761 -0.7332950766589694
Ni 1.828151878893635 6.357210952523195 9.244150652243686 1.9106587500400642 1.8858355203487973 0.1960129345966366
Ni 0.016681238196975194 5.0790718613907275 1.3258888850432866 0.5913776383551557 0.4800776678268829 -0.0626680684531824
Ni 6.442046859850971 1.9100737146944806 7.222229408461483 0.5014656465843557 0.9344689866312551 -0.8662180247736566
Ni 3.2037211302343334 4.330619909119085 0.3202364265679606 0.8635733880619578 -0.3295074389440777 -0.3016145691885515
Ni 5.678296032062942 5.619213231854417 4.959066753322303 1.3578833974381388 0.0075700990377740585 -0.982713937680572
Ni 4.875050428611477 2.9957110620525955 9.604159601917493 0.5302758859478287 0.3158530813854367 0.069373505497816
P 0.11603468561298062 5.6035136715030776 12.454684335319573 0.3624916071795822 0.22448558811503275 0.0966379976407239
P 4.003005417703877 6.0725608031831735 12.564296225157726 0.9710424148799148 0.5513437623617214 0.4556388180582282
P 2.58523676806381 8.611090468554394 1.50745102217607 0.11766525062466833 -0.9084851609729838 -1.447937828324074
P 6.4334685617935685 7.79549648700756 5.94397011187853 -0.25500766796328983 0.03957570541009313 -0.4886818645561261
P 4.539176365712123 1.1887590535173826 12.86548828364984 1.5377019816631001 0.9293956858734057 -0.6953509933150283
P 3.9064403724802035 6.067980247001779 8.064721180849242 -0.7758465768679347 1.0489416984605548 2.3056275039117455
P 4.729875027729187 1.0718319334992796 3.8001086344045505 0.25975880949503005 0.6070611105286836 0.22259736995338436
P 0.15922760017356205 5.855143747853562 3.438980499134932 -0.2232252333453704 -1.1788677687304472 0.7243121564340688
Ni 1.548073179261487 1.125815108535675 2.424367270714293 -0.7668937385500212 0.6333187586736319 1.2217134031410635
Ni 1.87285555741146 6.467736221655572 4.513263895306242 0.21769453333512834 0.25850488248327097 1.2634177248583855
Ni 5.864068091904788 5.618448288078598 9.361572253774014 -0.15096360766648195 -0.03594916440109938 -0.04992002475889468
Ni 8.524405947101721 2.3709432331521274 10.482731222398066 1.5620109907221098 1.1393866799166894 -1.0170484492963838
Ni 2.1404766012659784 5.205633630394746 6.675131602874598 -0.2233887555064282 0.08224419081289706 0.7210170306225647
Ni 0.28448805411133554 0.15453048113109027 9.422615677731754 1.391696746443158 0.121545559515681 0.07718965910812513
Ni 1.4726442590815845 1.0122664901941072 11.38642578203019 -0.7310679871006636 0.32994092693707044 -0.19824825168505855
Ni 4.368175005922408 6.760245257644785 1.5954177351005927 -0.38767710530627425 1.2363604636302772 -0.5840417668153749
Ni 5.524542333123249 8.06872711855142 8.166282037446898 0.6857312108370771 -0.2405894356554308 0.08699893188906306
Ni 5.35066332770069 2.963801978832702 5.087097396505365 -0.3961401484719629 -0.40367039541073707 -0.42825528383895284
Ni 0.9265381484612082 7.901395667590934 7.502668724445089 -1.6018216949611446 -2.0188014058862778 -0.16947914997216618
Ni 5.0882420802270385 4.76693837496234 7.02946266630765 0.31567927481173375 -1.7859764446676145 0.16322237042917698
Ni 8.121207725456742 7.405020008872338 8.983690028519247 -0.8476029807756306 -1.1560703112199575 0.7265179058361358
Ni 4.792318116667204 0.6796243147475903 10.712390110082843 -0.3158291701260367 -1.240299393673367 0.014873831788038902
Ni 8.52676452374383 7.161822527002909 5.12740264831223 -0.5928531944594176 0.04577103558752762 -0.2420526504645186
Ni 7.475276452091938 6.006274782419017 6.9312466174345 -0.22115652374179978 -0.17387419371606833 1.0094392694905583
Ni 2.4897462867156923 5.492651462850399 2.349155995251558 -1.1894018354925517 -1.25434147358873 -0.33221043969753755
Ni 2.7154957653176224 4.958128786549573 11.110371233047264 0.11565773327633629 0.10035195615720136 0.8422710270397559
Ni 1.189496677872637 3.3699415914251776 3.833856314628467 -0.6463563085838804 0.13938850123437285 -1.0703415042925695
Ni 3.7076187360818196 2.762038951486822 2.346811078319731 0.09350973642438734 -0.522022644800101 0.8141840389955527
Ni 0.9757039990046458 2.92015465124339 8.119952853405458 -0.012915936730719692 0.48404179468095343 0.010402169169930472
Ni 3.866909170922681 2.5661404930888914 7.117269105298192 -0.9572062803277709 0.5153457470005576 -0.4149081731080854
Ni 4.289149028701449 7.083506854716641 6.254744912457486 -0.5104963893280563 -0.1672623448265055 -1.6723755939203069
Ni 0.672498499216892 7.3828366393735765 11.30873572447486 0.14565376541779432 0.712395864612457 -0.4954253539275468
P 0.2544284956636909 5.636169485551747 8.199122712908057 -1.7186546794925046 -0.42494396007753266 -1.6947773586542747
P 8.373329551377395 1.6617401817588364 8.328807091682652 -0.04049744589341413 0.197303371273286 -1.6991595468823706
P 1.7369232271536539 3.121289331916275 10.170197051134725 -0.11047876017855812 -0.9293396358244898 0.9456288599028165
P 3.940434838136557 6.221661094153299 3.7561261885896413 0.9920329010886526 0.24505955561164247 -0.002319392161796006
P 6.765982335963431 3.879312187859181 10.479385504026206 0.22207646445290785 0.4566706017568522 -0.007908199103483156
P 6.160174184935056 7.653963675533934 10.313182345135056 0.029700612388226272 1.437994343958117 -0.2855042938902502
P 2.232005766632174 8.128656820797458 5.871478029409363 1.1747933415507574 0.7898207796598398 -0.1871284876228132
P 7.110389164552578 4.16439034145472 1.5926448139132476 -0.06819542602931482 0.43380886666733026 1.1809182235015725
Ni 5.6260339805221395 2.9566807165387643 0.7462818796314309 -1.2181459975047795 -0.9661673461758007 -1.2235000627278412
Ni 1.7512203905826589 0.9045815301531358 6.930260386352105 0.1185597374144797 0.5110712879949199 -0.3516778043935298
Ni 6.8847034312653 0.6577432801697478 9.408594440450454 -0.9801554329247764 -0.7440086064217315 0.42553505669431235
Ni 2.834289712407666 1.2954687102441844 9.202272712459632 -0.5190717897018932 0.7925476916726996 0.18321655416291668
Ni 6.626717036396697 1.7252669410459305 2.6969568065222287 -0.944668038651444 0.5276608169224848 0.1610528735816839
Ni 3.9091632080631795 6.958720848049346 10.495272657732095 1.5178918889157085 0.03120213663441723 -0.5490570232100738
Ni 8.167395759158596 7.382272038015233 0.036027030546387846 1.1554542749025132 0.46675266858320263 0.9712540166700886
Ni 7.742414852849809 3.844088348277403 8.464821380202153 -0.1712768653025373 0.716566965271011 -0.4082893822399872
Ni 3.2639513461065865 8.53268373153291 12.377620803142532 0.10437856081809122 -0.488989368494216 0.7279356121192689
Ni 0.4108576765240471 4.889875767504738 10.332241283568534 -1.625967696079729 -0.7412446705233492 0.3601722150177862
Ni 8.7267153628589 2.135832299769932 5.976637764342778 -0.6673354819387087 0.4649940340208831 -0.10700571402829313
Ni 3.275753335790657 2.558099476969266 11.592733850310731 1.492379603577217 0.38207364307656777 -0.2771811187365355
Ni 1.1556661287396734 3.4481661989762293 12.403903907020743 -0.7344245622777223 0.5568757479235442 0.5067189245634951
Ni 3.1167543081024887 8.24826124403093 8.097108353929023 1.0206060847406553 -0.2879226735237557 0.436497469243087
Ni 5.580574464702018 7.879549237612473 3.7119024212264082 -0.16620896386132664 0.26322619921834023 0.5568477228990861
Ni 3.2449006034992762 8.429580238320684 3.6750904126624535 -0.7007999322447415 0.30638396555273684 0.08768104555775222
Ni 2.9352987167099087 4.2319057361443 8.791443266003501 1.0492191204916574 -0.17916269580851726 -0.7045812536640447
Ni 7.370661284275117 6.344097630652006 11.400113722380597 0.07815279435234282 -1.605113735448855 -0.2119182929729834
Ni 0.8452856384642046 9.048938821949287 0.14220942245628546 -1.2371629049269144 -0.5921975631532898 0.1272022435808261
Ni 4.637262192013913 0.33379869758376757 1.5537000692505203 0.32633084098830895 0.054185227793151845 0.19696887075200273
Ni 6.35191098493359 5.932967670569661 0.47715644635113424 -0.507138528599417 -1.150922962691063 -0.23684256701848885
Ni 8.00906150403751 0.010322187736800622 11.47303289845793 0.22943367614892746 -0.508600200746608 0.7901169707440199
Ni 9.146177746213562 4.752641211533335 5.472537084135758 -0.12377444884619973 -0.1645410892406005 0.4550868022095001
Ni 7.964020885999384 8.593861020651415 2.950580289926605 -0.03246429117629248 0.5248169197157865 -0.10569368008508893
P 8.680700352153957 1.4193258566122702 3.636425236736841 -1.4169007565126115 2.627990361391242 -0.7523850034108849
P 1.752313167405258 3.325920898421477 1.579370307460725 -0.31032598091962044 0.0060500628488218385 0.17569299209236192
P 4.888965120152572 1.16580163376928 8.410522210534555 -0.8222174508229905 -1.2631577863287795 0.004505344069521273
P 8.67457169547388 1.9993171552067401 12.724847906581338 -0.025740342188897602 -2.745596476643201 0.2987292772209565
P 6.399073411302262 7.934233611110036 1.5859142193333895 0.3767224060669835 -0.15059028348746323 -0.7079234306634001
P 1.648153323264521 2.9576642156791038 6.0064396095897585 1.1730838150588183 1.5720352077273314 -0.02866317226264741
P 7.0297786609388515 4.003205760121353 6.0991644549293484 0.0755616365863989 -0.5885486535467928 -0.06962238828382848
P 2.4401160060226506 8.479993675736589 10.2784092759926 -1.1400022020135012 0.4968440886519443 -0.29258845443054127
