# total energy = -340857.80893426057 ev
CRYSTAL
PRIMVEC
9.34844425360997 0.00000000000000 0.00000000000000

0.00000000000000 9.34844425360997 0.00000000000000

0.00000000000000 0.00000000000000 13.68239312038883

PRIMCOORD
 96 1
Ni 7.3119976822058685 7.409343029927709 12.012374775721291 -0.817997756314688 1.3401564124720209 1.1077675103495115
Ni 2.3747945862985405 3.786895754461352 0.9351257915250565 -0.03768183082148994 -2.898216646076499 1.9162455000992222
Ni 5.597156502459069 5.157013060469282 6.011290703458585 1.2411494003784882 -2.156944207639008 -1.0520331929016848
Ni 7.596639106140814 6.919073231029776 2.730827272784851 -0.3869065456888369 0.07362945256069256 -1.2246858555058262
Ni 5.918060540800335 4.162880825048568 3.11000764154275 -0.25089621689807756 -0.5132603252264386 0.29896401893958185
Ni 5.644955096802849 7.742839422382228 1.5745014030700455 -1.108002252068137 -1.3278963641577453 -1.280683968138001
Ni 4.613746932344891 6.720932959737699 13.293511721728642 -1.8591464410933851 1.2285957320831937 -0.7062105617373515
Ni 3.447220040500625 8.82490312238295 12.52005979100941 -1.205784647725949 0.028655201842847425 -0.4690417217276954
Ni -0.045233381300959795 2.9155085892017594 1.9644773549979417 1.1689006302154064 -0.028476253062821925 0.970698915497567
Ni 4.461872110575083 8.923407677164956 9.255919678462739 -0.8287606512581468 -1.1088286046241744 -1.2511067687015163
Ni 5.525341755392982 9.125642566943748 13.33320428025089 1.4605855989950718 1.0305521402097737 -0.12915859597624854
Ni 1.6200573056901646 5.3203490746242785 7.093321683905191 0.6821771749372316 2.6570420273415594 -2.955545304594639
Ni 3.562925732304448 1.455197495157691 0.4328591343988098 -0.6366380528548519 -0.27460590181019157 0.29016004749470675
Ni 8.072951678096587 7.35717871222024 7.453127402403461 1.3054544902144616 -0.2554617247815729 0.06143702425955871
Ni 2.596390103670911 6.604002621765474 2.231146395278297 1.95141973400751 0.2581019906178974 -1.0189017004550387
Ni 2.70886123383911 3.3596157714617925 6.514447332456831 -1.0387853267528433 -1.3242595387361065 -3.4711653883025058
Ni 7.200994257750944 2.3832175343728106 7.471174573610319 -0.6579337290088346 0.46006702903291097 -0.6964547679021683
Ni 9.190015952559094 6.318912472516917 12.561284559508763 0.9567331973460943 0.578059838200327 1.7906648512822194
Ni 1.9388485956798371 5.633278890204886 -0.06135290334809016 0.19778416756444647 2.8845630598488063 0.9780826095561478
Ni 8.491388033040364 2.3893968558790184 13.596002129856934 0.9455190737978297 -2.3140157279754408 0.1752631036437949
Ni 7.750748206034651 7.61900993271321 4.804285048948847 1.1305567403298853 1.5045915722623766 2.8706225385083144
Ni 2.6450487548657806 5.109018148800797 11.495111344676348 -0.9000851098347467 -0.6734472512634014 -0.18546806920125478
Ni 6.965376074328179 1.8995757822946981 3.268983541400478 -0.0702934462089241 0.43788972160492323 0.9219525993317994
Ni 7.210529670665212 1.9218811697588594 11.889068798918153 -1.4406916882846221 -0.4322839453823716 -1.1626124832138494
P 1.2615164316696397 8.88091899903226 10.961758306605185 0.646079657883726 0.52670745187028 -1.0420138609924698
P 5.483152227469361 2.9056085869701804 5.720909334887012 2.006878686306763 -0.4230256600088972 -2.4377968616898595
P 8.830717854571848 0.9089940859179443 8.007333079735966 1.1470927903116954 -0.7468522465181138 -2.1605406667410145
P 3.3907647869817357 1.375184162674139 8.41483549453805 -0.27572638856788 -0.5779343683660563 -0.7628918164794797
P 7.57375411514657 5.6196675556919695 4.454248454465684 -1.565429786595672 -2.504773841931041 0.3520210466655615
P 3.5566996685780725 8.554667650703777 1.671700915064961 0.45688760286366475 -0.6895924935646962 -1.0642053094878448
P 6.07169287004846 8.675019519192299 5.786981332783262 0.33562023671003494 -1.0977003559214966 -0.6629340104369035
P 2.5610716821119834 7.790161246080293 5.650349149010233 -1.4897143980402279 0.37991083109729407 0.5166073873218006
Ni 2.2876857847934886 0.4681485757812331 2.7716425794355333 -1.2220126795490374 1.3784907892758453 0.602637013319059
Ni 6.939864170560495 5.90200926239465 10.352152815085184 -0.1863067630524662 -0.7650754543943598 -0.2545628671163874
Ni 7.981682818996584 0.6127549823149198 5.616594722138126 -0.43587166273363 0.005610404208241951 0.7320023259894749
Ni 6.545060682133649 5.73502735506655 0.16550765770400166 0.7962917320961641 0.028292676297106113 0.5797858197524982
Ni 4.296432696512526 7.757273419970101 7.015140646452223 0.008575400373836846 0.37440069991234226 -0.21137141933057793
Ni 2.8407490822650883 1.245315578159417 10.609395819246464 0.17535592046791734 -0.7332235999910857 -0.1961972826933008
Ni 0.19894143294575603 3.0532018213726015 6.791379094597269 -0.26678152066976635 -2.5126133925801177 -1.2970338702509339
Ni 7.700668591346674 4.129170335863418 12.36209632764052 -0.6367804919699871 1.5514085326159153 -0.11439763561699008
Ni 1.2462784678948773 1.858947444524688 8.760986875680848 0.18107276834703653 0.8461837318306007 0.48442051817661086
Ni 4.728779536178295 6.166645016097698 3.3401597897390713 1.1931276210835708 1.2539838331389952 -0.6144070093707935
Ni 5.642000988488232 2.6865558463749486 -0.2346655769757415 -0.49400970452694276 0.4088712228853862 0.7895037626400533
Ni 0.7001732173174836 8.960792104855308 13.168386537716566 0.5092154657331036 -0.3800699823829777 0.004543396396308304
Ni 8.636373051557412 0.1936324515790766 11.395983248677302 0.9257017819615864 0.05699621487938571 0.3746488113674064
Ni 4.297255359587482 1.5536459592754952 4.389968553290676 -0.005640229004912867 0.4981309257841679 0.07903853939140582
Ni 1.1625257577978867 6.527205154029479 3.9035727496002655 -0.9574322802956478 0.8426605491686908 2.314256640341653
Ni 9.13295305017802 5.080496046054295 10.754032140801057 0.6582286345414341 0.057261809835946545 -0.8766428196514063
Ni 0.9208236069980572 3.81065015075072 12.712817228226942 -1.9256230846593803 -0.4558650751364213 -0.4411215982786596
Ni 0.3085668967501282 6.635815376811803 1.625837448636137 0.35893757127973663 0.42425156199619835 -1.035863782230674
Ni 6.5444623817154985 3.619539909371908 10.326868078507514 -0.024917846287602248 -0.2074294039636944 -0.8527588139449572
Ni 1.8063530983916747 8.92941872667856 8.610534887092953 0.26246952355797376 -1.1426604655719548 0.5905898523465377
Ni 4.994200559180166 0.799087233948161 2.1690147665422086 0.5850288133189925 0.36293872201932975 -0.292677928820554
Ni 0.971892287064788 4.3787644431164106 5.179770912624669 2.1646678015355105 -1.642911780133235 -4.40975071109498
Ni 7.021111497656481 -0.18715211017498753 8.272962573039786 -0.13853952297051625 2.569212629131401 -1.4047468947588968
Ni 9.271487642311886 2.1340534555453647 4.331107010277539 2.6359456116825766 -1.2742150725842054 -0.9304953466954878
P -0.09769591437309973 9.118425568149812 3.616324979468754 -0.35537967872514925 0.11817407194028678 1.5679859773586222
P 4.367060191186347 2.9572867855879017 2.090095202010587 -0.3515176246665817 -0.4149613949435241 -0.5731739708629355
P 7.411904503592914 1.086055485603068 1.4197809149364107 -0.8088009203067684 -0.663728738424057 -0.7341533108942065
P 0.6621287894783594 6.392185576852246 8.462368593071274 -0.9406136660764123 0.20461815976714437 0.6388378887196481
P 1.0702005245220882 3.3444899890154334 10.59292199117046 0.8543048182758385 -0.4554961218327768 -1.0434472510048869
P 1.1634512537572128 4.817926298482671 2.5325149901225563 -0.08392954893511997 -0.8511706435222309 -0.06615499856051833
P 7.275155464269465 4.429825644427914 8.29869977430868 -0.7446403264684595 0.5393171702144905 0.5264536839882611
P 4.212530411310998 5.245056706377692 8.084912077393168 -0.6029959393203744 0.622112091324535 -0.37103435454327066
Ni 8.070661309308354 4.832388341402645 2.5054241341575967 1.9905830344705329 -1.1103342426354235 0.8722835142414461
Ni 7.628339679858739 3.3246058485559735 5.115600388244853 -1.5756265246230154 1.898843502572691 0.7340113859997036
Ni 3.7015818542107506 8.459603323326135 3.984792031364152 1.4690535272567666 -0.6496331795629393 0.360002007988509
Ni 8.218030181053969 2.0153749585388576 9.65667719089458 0.1597917474810732 0.40138802713446353 1.571094441080617
Ni 0.39221957849595934 8.261098462716749 6.298005612280182 1.6010652764110942 -0.04049538901088509 -0.6715441207034176
Ni 4.378138097366159 7.255542428686979 10.770410614747918 1.4995619802582691 -0.8270462396702014 1.573040509063394
Ni 6.606321035885807 8.767541069792802 3.1919794730513407 0.008974178474152288 3.2831812375476166 2.3298344401752518
Ni 4.5776432414871415 3.019229575754512 7.483652876706363 0.8116967537973245 1.3772715721567634 4.01090807609019
Ni 2.637644787191172 6.498785884167347 9.58810074484173 -0.936384201376097 0.1614277404225994 -2.0631187397464146
Ni 8.802317281597782 5.4960156864595895 6.125114553478446 -1.8692385352220646 1.0147105451918268 1.5771015665066452
Ni 3.7058914869102386 5.951948650422122 5.326349840849445 -2.5170135785303427 0.7014697046182564 0.9067146993361223
Ni 9.100495252493374 7.699658959391046 9.710763548695358 -1.1271168614104008 0.8722585745407816 1.2042522702418228
Ni 2.9656910367741047 2.9136295519510065 12.309966599175976 1.5473158506037805 -0.6198040120166487 -0.31541856495117937
Ni 2.1028763946933204 0.6736600951938008 6.42276153275293 0.9082681598661712 0.5044694664076861 -0.04171100658554106
Ni 2.329697692280471 4.028076262084107 8.525417304167057 1.9780242239689159 -1.3639666275177413 4.890493266199371
Ni 4.246652232033625 5.045747879581417 1.2461457199896004 1.041651849667361 0.19397147868657563 0.19691976268162217
Ni 0.006707508594105455 4.110594977568662 8.617895851925008 -0.6672871451992766 1.0764969823710042 1.51863493772932
Ni 0.16689870617620084 0.4528806969855634 1.6138658312067136 -0.2878805074319106 0.1660886362333785 -0.48069036171021734
Ni 6.137805066254053 6.416547622003798 7.731413754084366 -0.7546336902357456 -1.3346100287324951 0.7112386110795622
Ni 6.581800067185683 9.400888804624927 10.665671582639908 -1.1906969001548915 -1.2321158294213101 0.40400309615980745
Ni 5.316777969003445 0.9040281924472979 6.879863052219663 -1.1798409312769937 -0.04116439005345168 0.016554561924571488
Ni 3.3452659098702218 4.2887015332967415 3.7006217690085 -1.010882172584672 -1.3009907980161528 -0.6652809134025252
Ni 5.300399495056584 1.5860289694078733 9.583694823168697 0.2874488192111308 2.856406652019248 -0.5603562502729769
Ni 4.249849399893115 4.392936684271342 10.160257304407548 1.0799350615182757 -0.7652765146615723 -1.1443887611169712
P 5.249385035965249 5.371541154152252 11.795015973184945 0.9716024011484429 -0.25574994544595314 -0.13469058153807126
P 4.912429719218297 1.262086686755689 11.688909263714821 -0.44775298755224824 0.2002771091896293 1.2885998805509677
P 2.1378021816028365 7.079268167989485 11.98145199254696 0.08870665860878917 0.6826721122957792 0.2683799755051378
P 6.369094920089263 7.645802573313497 9.399475319887049 -1.2018310623948398 -0.5195016781504601 2.0612672883599723
P 1.4496912616219026 1.7194406142113283 13.59161023084995 -0.5579247580133488 0.2689864987408851 0.7841121593108367
P 7.910887052330158 7.563769976918688 0.6941677768703012 -0.4184670941039374 0.26635086089025095 -2.0521190462018013
P 7.316213830465021 3.8721816093798522 0.8947844509868778 -0.9917361957838404 -0.9265394473715334 -0.9327540608226775
P 2.204260270237674 2.152095952530206 4.691760632649657 -0.8988615218402907 0.37651620359344834 -0.299122141784001
