# total energy = -340870.6630862751 ev
CRYSTAL
PRIMVEC
9.25742876785347 0.00000000000000 0.00000000000000

0.00000000000000 9.25742876785347 0.00000000000000

0.00000000000000 0.00000000000000 13.54918275699441

PRIMCOORD
 96 1
Ni 8.245860234195687 3.1716691419245544 12.851019996949518 -0.3225914285505348 -0.04564196620883107 0.21983112006215688
Ni 5.92304176213182 2.625554906353834 12.523319980349408 -0.667275832345367 0.14092087871849923 -0.8475407600791275
Ni 7.925025526740874 2.589747172030747 8.87025713858308 0.780199711630308 -0.447710564350087 0.7011789128507151
Ni 0.03537726388719669 7.797208208282016 3.106380200071658 1.173222911739844 -0.08221436601622614 0.17720505786151416
Ni 2.3154588162244534 6.864207511276328 7.707899941849314 -2.2278225798171247 2.469974217753353 -0.12167977110070011
Ni 7.935366074630968 5.980826632257132 2.6091794406754194 0.8566900306785633 -1.4678111702092334 1.4246634311771658
Ni 3.8846763026184936 5.224513219969761 10.615026023190408 0.23059170101277063 0.8994752441648896 0.2934245771785914
Ni 7.356730491935893 6.032242391417015 7.245411762957543 -1.5299750453324876 -0.7970669196992918 -1.89315467971803
Ni 0.3859440551903722 3.8915360573065514 1.9266662502142224 0.14396635041304237 -0.43707288213058276 -0.8465511424723485
Ni 5.643856226527979 0.9961548757937163 5.758985313171112 -0.44281466971036637 0.21467888643725608 -3.307659939415271
Ni 2.13145816281037 8.909951141486527 3.9470121247068954 1.9058237905452662 -0.6995190086497888 0.1887403121946233
Ni 0.7246557832634172 0.5966125835435762 2.408218252087259 1.0523262986620716 0.6332169429884449 0.12767866899661234
Ni 8.49121912522441 1.3749410870909626 5.450009371917919 -0.3945321805548947 1.644555229273929 0.7628216253631765
Ni 7.773796171026823 7.436103685856821 4.817100261814375 0.03798650654610232 -0.5617464457522842 0.06246006620743437
Ni 9.221287727065569 1.2024566750155345 0.4233709137981303 0.039387757769003134 0.9938380726181916 -1.4996835934377977
Ni 4.649201054188333 8.374908790675478 1.2482207739364706 1.3270851811103594 0.7399208095056031 1.103287620201287
Ni 4.313721094484519 8.431777175356638 6.044777875658714 0.012438225763352772 -2.3094749026822936 -0.42146757149315806
Ni 4.089172903238191 1.9611214742000285 0.5527758812839811 1.1800610177075999 1.5416241995356417 -1.4042925808302975
Ni 8.582747323066283 0.7060983416336188 11.231066246664291 -0.11849623116639593 0.3305181395967791 -0.26990463967978034
Ni 3.0231614702567775 1.1742770619649976 5.622599318680857 1.675656578664424 -0.7427929888470756 0.27906779423628714
Ni 9.032556527571058 0.3059413561158848 7.441793301553556 -1.5937815982654873 0.7426914302722049 1.866278681262792
Ni 2.8459187398147345 3.646427116853508 2.8006027004442733 -0.5315611804181555 0.20132097707311133 0.8075140831745448
Ni 4.362192991308636 3.1833427595515995 9.191467697644285 -0.4766478162097275 -0.13416401961063992 1.1036830558674928
Ni 5.964783508270083 1.865594067147305 7.782501857003407 -0.36451506536751416 -1.6850210505984593 1.6399735234405177
P 4.0205290692139695 0.7038839646816845 7.5765814638452165 1.0159138214713084 1.8186016869018033 0.07174971903947644
P 5.913886165119014 4.13596920546239 10.58645111793315 -0.5791538425954542 -0.281278942954993 0.15948064399855758
P 9.211511882327933 2.8902247937108805 10.909910306432586 -0.23493789379660832 0.09500174758888155 -0.1789868323522853
P 4.789265950855422 4.092811072728619 2.086966960339647 1.8014475437200201 -0.4086835323546123 -1.383627082061146
P 8.23499201286805 5.891409128165432 10.36764530972731 -0.8866708933113696 0.46853778550808334 -1.5108213552221723
P 5.91077566906613 6.731020884154754 5.821745125495294 -1.358695094706157 -0.10895435311423171 -0.7255586272466601
P 0.21395584129480896 2.58626637882871 7.2944603975914655 0.5804648480973938 -0.590714293739544 -0.3261902016453866
P 6.884194299901857 1.6205591861240918 0.5378899358880339 0.39705237587358716 -0.4474591104609133 0.12925861188922252
Ni 3.476108943100624 3.05585870852698 12.05545323536619 1.7180011050689057 0.0034704750471037005 -0.26665553661486335
Ni 3.2531067424520095 8.957728731155981 13.041034276065846 -0.5075743305852548 0.8069273574331393 -0.5958521291867416
Ni 1.188589046779758 8.472537634049646 9.634837434725291 -0.8182396971221649 0.8789336725681121 0.5887245170030247
Ni 1.9768405881815698 0.2269060583435593 7.674148282446899 0.6090100067249382 -0.9779185731744579 -0.8038096377397641
Ni 6.846303644114784 4.828702597240208 4.604621906144685 -0.25138729760188316 0.6030833568278582 0.5873446059363626
Ni 1.9099464081870954 3.883815361746713 10.66899220396508 -1.1703365913309844 -0.1367366654338226 -1.1241721769597801
Ni 2.2176540817044397 7.111167937475137 11.71628974477118 -0.7325273452550094 -0.287977180910775 0.5646350801539889
Ni 1.0371745424911305 1.8690841177780713 9.226180278148753 -1.3098850151819892 0.5104025440626694 0.21735309083530951
Ni 6.466110303650758 1.752060961217021 10.38203413120052 -1.3223042147819486 -0.5004911984862284 0.08299803825978609
Ni 5.344489496295305 3.055479153949098 3.8991160399497113 -0.5870931520471889 -0.8811322228813276 0.6165006586750286
Ni 1.100199117276957 5.970680490370343 9.625122689017264 0.25195242607673385 0.2689024236675111 0.7203925096646884
Ni 8.12968876107769 2.0233776824013625 2.978124079491054 0.5892150834861982 2.207474612288392 -0.6209913474565305
Ni 7.642442514793554 9.235451593020668 1.7676939811113843 0.44093750729231157 -1.823671645225543 -0.3691183684674804
Ni 4.525651410373462 8.108331873000296 11.09768799076803 0.31818250084956173 0.20065788956781572 0.3906166475505724
Ni 4.1104742467432125 6.053997348929749 1.7174539154000625 -1.045642715994309 0.5090424304903491 -0.6509868653773563
Ni 1.6931837145017075 4.864343697846176 6.560378700396361 1.5607244107002025 -0.8032959313281391 -0.29109721459699545
Ni 5.879217094529572 1.1663341881156675 2.524619309437732 -1.5543817563116262 0.8698486795477083 -0.08638366690256735
Ni 8.916477628740347 4.5779373678338535 8.212281688710503 0.5290044754345727 0.4889862831704224 0.4333761500052859
Ni 1.4520832406882438 2.0212299589362757 4.47809970196499 -2.122725395665454 1.2367846956518893 -1.4463537716664057
Ni 0.6364704429355232 8.578340786991362 5.575949283830572 -0.13032767658368521 -1.1348026600904326 0.3144047789746844
Ni 6.867938255054044 8.156711195537124 10.673287650895254 -0.28287765490068056 -0.25863318053101914 -0.9440843982338322
Ni 4.739377667435797 8.20274838860556 8.547163618518432 0.5556735000853269 -0.25550491931468255 0.7422466294253024
Ni 0.060369544226399854 5.17881855176429 12.076210242061958 0.9462973467247511 0.06278556786765316 -0.14303355418612787
Ni 8.522185224322323 7.361960939167678 8.509062819099217 0.7306776936407803 1.0711503733471102 1.6571947724148106
P 7.9055293818379715 0.22834836573950992 3.8646469298208124 -0.035689740092125624 -3.3531211570718638 0.6991773090396539
P 7.311711616027627 0.13182856232705667 8.9287483505204 0.02090332581157045 0.3278863584008869 -0.16904617619980564
P 2.715203846163755 4.79730139899204 8.497396607415153 0.2188600143981392 -1.8366122645466112 1.4632839717628412
P 5.501967616401311 7.429114327166559 13.0220926511438 -0.4204910665125017 -0.001151082885307695 -1.5570148230590992
P 8.602456388829946 4.026648229603722 3.6775737358116323 -0.782117497478311 -0.13158288914702498 0.14422783160454516
P 4.38654002886544 1.1161774392629051 11.481441738321163 0.10013829748449851 0.2120900426641573 0.6447583679691411
P 3.000554829300992 7.43303947694758 9.749260179556416 0.33918969922884806 -0.16905337528865724 -0.7654469788011655
P 6.516174478216232 2.8871050402292675 5.864532961079914 0.9050128861536672 1.457155233157284 0.2874300501580534
Ni 1.523689451905689 3.5886885338718395 13.263403268589409 -0.37160025434906974 -0.12619051448686008 -0.5481795057011268
Ni 6.98192497499204 3.6041854695638884 1.5130647009536191 -0.4948874791462058 0.9440093220215225 -0.09059513388075366
Ni 5.762480918259116 7.040950340567016 3.3743559152277673 0.3609898258230751 0.927790289059499 0.6781096897360773
Ni 6.8766772677740535 5.629285033708813 12.429572776841237 0.9950853147617313 0.5320347776204644 -0.8019661567731221
Ni 5.066396337281464 4.675575468636749 13.396212192618847 -1.4956495325777404 -0.07362765278847966 0.5921785369898962
Ni 2.659205659783105 6.878880535811513 5.246406113170552 -0.4284763987108233 -0.3927123537373366 -0.6833161736376813
Ni 2.387277948302662 7.979903564245335 1.611323049481345 -1.3867304035768182 -0.06614419992724092 -0.21925879249845467
Ni 3.224584604538506 0.8613713422164195 2.1254195420505586 -0.342214602098101 -1.162507839315185 3.073874156945235
Ni 4.2700352883132044 5.983927870881288 7.57840980601916 2.3356037385588615 0.3310781258653072 0.1457165003349297
Ni 3.026558946600255 0.9987654706952445 9.750940402870699 1.899067188547723 -0.6728409851379702 0.12312164575354927
Ni 4.4409829672196475 5.277299078581509 4.017983276313544 -1.5747919445368619 0.3059221954249699 -0.16859854713942576
Ni 1.5627558011413216 1.4719496827402978 11.686238279631675 0.9207920033647949 0.9808115784515368 0.2430841770528265
Ni 9.030288457532496 4.017992533742272 5.700276551658663 -1.4823646425433763 -1.3147647118717938 1.2636588943349139
Ni 9.080787731248225 7.466838349236513 0.7225210201985506 -0.6974086471750054 2.6726797338788164 -0.7181872744832535
Ni 1.3105464128532707 5.835522030929528 0.8401107313978048 3.1067565094955527 -0.6113540814770826 -0.006780256146627033
Ni 8.951155956758518 7.569049619831446 11.563983750095966 0.9315646685002666 0.16364788800236976 0.504105398200048
Ni 7.28919754935913 8.797047540709803 12.979168731356866 -0.3081680540363531 0.35144820488122697 0.08163638202556908
Ni 6.874760980027187 8.607186934910375 6.689136573614068 0.1073399574392603 -0.4974745231470916 1.6862430959310186
Ni 0.6331349913645282 5.704066542980243 4.3961816408865095 0.2228107715157711 1.0981253592740572 -0.5063186038012828
Ni 6.060764529330519 6.058302053288651 9.316038435847945 0.7991171173601013 -0.04178351169468933 1.2315280752386404
Ni 6.642056994070765 6.990765819428066 1.1619304292693666 -0.1336197170713957 -0.1797342520412711 -0.8646177701660723
Ni 4.861214686935834 4.440010937203121 6.128755714629358 -1.028845956151944 -1.1395625433729213 -1.8874051788287622
Ni 2.69912369246179 2.6166955470603503 7.565376272111849 -0.6648515391745905 0.9960715899344007 -0.6777998718051422
Ni 6.034436402025746 4.109178206721178 7.934807851678619 2.0035627345596527 0.7312279097172955 1.0795784495098053
P 0.9753256611538649 9.013014095524513 12.743968016872282 0.03612271386448618 -1.815472911464835 0.024588230862325394
P 8.524684730079105 5.416975163241988 0.6030103925380658 -2.1778184799848557 -1.4857032199983058 -1.292013277107891
P 2.212192198754434 6.2626227627625015 2.911204904439012 0.2294951255144822 0.15469762078761745 1.0966346336611437
P 0.1795487559383929 6.449826486516758 6.655806127218813 0.41566767698192936 0.6570878360687715 -0.7766862991604108
P 3.172437508509047 3.308947552544269 5.035025688548103 0.2187900803921522 0.39493275842742304 0.49837800879796745
P 4.765409557021246 9.035518904764281 3.673549531543213 -1.4576483707436187 -0.17407268288011957 0.5806419971052065
P 2.9109429192059864 5.366716582673209 12.848324233703686 0.6077401388735791 -1.1775364515135334 -0.024681561907080075
P 1.8827017954381697 2.350340807674658 1.3752280673815562 -0.3864514604292893 -1.1615292774519996 -0.3384695332333719
