# total energy = -340861.7059079731 ev
CRYSTAL
PRIMVEC
9.29899881545526 0.00000000000000 0.00000000000000

0.00000000000000 9.29899881545526 0.00000000000000

0.00000000000000 0.00000000000000 13.61002472362321

PRIMCOORD
 96 1
Ni 2.2522175029664804 1.1852038886894831 4.749232078547919 0.3347463187455138 -1.3316103226742229 1.2720355484343835
Ni 0.8331233373235973 2.456711784996769 1.042357319028791 -0.28483272174452234 -0.4978121089921685 -0.24878379854076507
Ni 3.225906365551605 4.952832726796064 6.965665174433823 -1.5454330317587708 0.5783668279177846 2.8521689597888167
Ni 2.483065147521158 1.7411259323717498 10.951646592442993 -2.024325678138617 2.345200895328993 -0.5270285826551246
Ni 7.440686858685627 5.259169643394846 3.4149457116201667 -0.2564721683239583 -1.978566726735947 -0.8576274548911682
Ni 0.5082414274706213 8.396605334614398 9.258709001615927 -0.3830861435014822 -0.4485351171339114 0.40071979742284536
Ni 6.439119597777243 6.288113156692715 1.619959978351712 0.9984226066650805 0.4644723571894582 -1.4471536418598818
Ni 1.6246745707299284 7.299286283334231 1.5257927373709506 0.8597609562944031 0.5285244504743608 0.17959515536024553
Ni 3.0953298247726817 8.956060997830635 11.498606261107263 0.4712492709019755 -1.2385680128045573 -0.3070665934420583
Ni 5.477091679654216 4.1412998048250165 0.7046809167632154 0.34391384417739485 0.38624654350733484 -0.0018663637847774305
Ni 5.2212111304010005 4.193253310973133 6.206388905970911 1.1558183431101514 -1.8613002542115944 1.451420644666352
Ni 7.291261247392612 2.9719600080432995 1.717054544146403 0.4727230272340246 -0.28937586103051455 1.34452908761842
Ni 4.622216124399408 1.566713911374065 1.7195717831144173 0.649340845133501 -0.0348243067680368 -0.9967513896102446
Ni 6.634045210069495 5.945993692813112 12.813661368671328 -1.0859565851220072 -1.6241792367207382 -0.31891320836799913
Ni 1.9242325172227532 8.163246960390847 7.257872262396115 0.8311594905076266 -0.7067304387965634 0.9166885227193825
Ni 5.832099555834032 3.8531145338323074 11.31971584230021 -0.39433729093526926 -0.49566832317628823 1.277145101746807
Ni 4.0108255530326025 2.429651698565586 3.8893908579480074 -0.9253564828070255 0.6689331654431317 -0.08253883923518042
Ni 5.611610995913146 9.25371264957487 13.361587203308172 -0.5293364048526948 0.9676822401584302 1.121298969177043
Ni 5.799887824082273 8.194789164230908 7.819844234680488 0.43668207445006724 -0.8046295625378982 -1.6140058957321624
Ni 1.2350186251196706 4.323978635732434 10.352465606465927 0.1856519030772867 -2.457179637091846 1.941596577269501
Ni 8.73025341061125 4.211116687617223 4.9163899506023165 -0.4541853734411533 2.3965216570901564 -0.24328292332719392
Ni 4.853993668831445 6.832457946901847 3.1507751049602852 -0.43331264375720213 1.1330807923033195 0.7271421696836962
Ni 3.2390365518199316 4.389062328148877 9.592100425246628 2.916177601430294 -1.1253795670043198 -1.4724558680700963
Ni 6.7065123075121775 1.750015775199314 10.356507881232812 0.5587811924763731 -1.9550272488531106 -0.3417770003400501
P 7.296998729635924 8.0246825796654 6.013725740080277 -0.3284211478584344 -0.37494911621664456 0.8160552878763364
P 5.59259454342113 5.700221155226803 7.9946235661297305 0.3209868030675762 -0.03327444578241367 -0.6843150472158408
P 8.511141102508857 7.919510903535958 2.1999785175560147 0.06672809745516894 0.15601222583398291 -0.8435200689555085
P 5.1450430314464235 8.920548121514246 2.4222441161425348 -0.7759517349872314 -1.420067584276367 -0.30580392467955075
P 5.226855622656577 4.665316983715054 3.0500474203447476 -0.15873939495715886 -0.47504910426403985 -0.621158212051698
P 2.8928906214713592 4.266101667365533 11.885307914807147 -0.3672795154865287 0.18402696587935402 0.26496889294105974
P 4.483093803747543 2.43278546115229 9.81010615249496 -0.14865270014511817 0.4559774323445695 -2.1967037469251327
P 2.6323791708288904 2.6861738787341793 7.228215895507343 -0.5973819355677066 0.824552269603754 -0.7202050762442307
Ni 9.080825664376057 5.983078099922238 0.9470249135016975 -0.979742513757074 1.7316104683222242 -0.3976681550807151
Ni 0.7961970131936226 1.5327539678528694 9.313421520700171 -0.24386784929638647 0.10376740959665355 -0.9815134896145677
Ni 8.520216925311894 6.97927053953948 11.268011549319226 -1.2972403298347852 2.7113336988055887 0.07779386835102732
Ni 0.3317213234509606 6.699398573450371 3.6246353442652666 0.6278880745763638 -0.7168119914022816 -0.3652560572985967
Ni 4.128244010546879 7.457611036453584 6.149022452636681 -0.1681185221792137 0.7635618459633109 -0.10227616976310773
Ni 0.29902697366285225 0.12915286406668516 1.013425344144482 0.2274549551560018 -1.4933586796610345 1.0358434705157
Ni 3.866895650014786 7.017145361544363 8.630933594410035 -0.570241884817805 -0.47475548428302106 0.25460194788443896
Ni 3.871768325372154 2.5778405430217126 12.967577466472116 -2.299249368299543 2.2657844037728787 2.9461538360774098
Ni 5.986109573522433 7.978819917713993 11.355401679993786 -0.22387752221738863 0.983031726031307 0.3314658482220292
Ni 7.90423264855093 0.17065987499253646 7.583804959110508 -0.4226003995460206 0.21012623406956715 1.8359432635040447
Ni 2.0443383853826007 6.995887850347907 10.709892152226757 -0.07886061905264483 -0.9043269158302361 -0.9441425051652772
Ni 8.973096763583873 6.495694706315839 6.1637892626891615 0.20239209865010305 -0.2007987860210542 -0.720041811193489
Ni 5.763426449890978 8.927726948567468 4.505856822845445 -1.7874417163592313 1.2168421910916913 1.4446650711100733
Ni 8.42343294607624 3.2841645928682235 9.993541921902548 0.30663824765538805 -0.18069584462359203 -0.16255645471040392
Ni 4.888771924244717 0.020322961819707858 9.498572025481613 -1.1713686321399246 0.5515497077249405 0.6281757810201117
Ni 6.20278554394614 2.7848362557221003 3.859789355151999 1.457480991927819 0.40363002909110485 -0.33502811165199076
Ni 8.08325697294032 0.6347477964863392 5.118226578783109 -0.6224545622656182 -0.26018304151664223 -0.11979181004936788
Ni 3.3535630207156175 3.5840480043181246 1.5081264995008612 0.7702721681039508 0.10929116762836016 1.7920321639433912
Ni 2.7174092156147096 5.554533741440776 2.8595890470633343 -0.8750016845035574 -0.22645865268100357 0.48175994062531224
Ni 7.046632486655456 0.46118291427692937 2.476942686728618 1.6323867122321951 0.5086601074502658 -0.10780558422176917
Ni 8.165069564150475 1.5485622657679934 13.686785279119452 -2.63774049879947 0.8638752355730929 -0.6807288725264792
Ni 7.931116054005414 4.657608113731738 7.335163680402543 -1.4355294273573922 0.1942432442907235 0.20984212717024506
Ni 6.384394989994593 6.114296271616541 10.142326832180062 0.637192125586109 -0.7503967693362625 -2.272433019437648
Ni 3.0159349732436644 9.275435110710005 0.29657017818686654 0.6435985433330851 -0.09314129734137508 0.9720371746930163
P 4.0674936515589355 7.259123907631042 12.524598272194389 -0.2125476990268662 1.443795009800294 1.1630410861108356
P 0.45991081124470057 0.6149065228031039 6.716901148942046 1.3995756349706023 0.8977389782000732 0.6630239990475484
P 7.175683991635508 7.786953676018256 13.433461954528978 0.8637559363864092 1.3198791502802236 -0.09138291988937165
P 0.2760073021987997 4.4372218427973635 2.1836197189134934 0.6229060479807401 -1.1114665564676536 0.5661828842570831
P 2.6527160811467585 0.6741736914866583 2.4587324574302727 -0.7001319596434393 0.7759008271446379 0.15372754356486426
P 5.992051633738764 2.3243405374545403 13.15724635475765 1.3389042852324746 -0.34129568982825736 0.19741881380522774
P 1.8840515435220178 5.861131030005217 8.71467572786571 -0.5297038154944426 0.3513175928406337 -0.5530478895370217
P 7.734144661982969 8.77026700233406 10.013071679126869 -0.9421079912337518 -0.22059113815663298 -0.9951472783479184
Ni 1.7252246444688901 2.7348634363127613 3.169053216949678 -1.270712715857902 0.5800300745528204 -0.7718400268117029
Ni 8.743067430921274 9.433741265831811 11.894032235456539 -1.109358251875399 -1.4408822070288732 -0.8471846622912893
Ni 4.603115980918429 1.389354107765148 11.47804152531944 3.6321385576861895 -3.059171303517422 0.4716776166886458
Ni 0.7166068826903604 3.7132110972834607 7.680912543503483 0.869743778538728 -0.17690166768848245 0.776806883898675
Ni 1.741916347267506 4.364717549359586 0.2880727531075487 -0.22059653747327168 1.758249153955675 -0.798663060541818
Ni 0.8571463707553216 8.487503047626362 5.327848328737163 0.49896087788463095 -2.290118866753185 0.0664668733739823
Ni 4.0230537364198895 5.4909099918317885 4.937159264363157 -0.7117240353564129 0.8333151033980487 -2.4364367481175395
Ni 0.4644329143483034 0.040599428645547705 3.4442887022502684 -0.015968864624430562 1.504698530153886 -2.750339904865457
Ni 7.31864679878087 7.384260534127409 3.9272954367489654 0.9693786540242466 1.646503354139235 -1.1728261905220576
Ni 7.891548814223736 6.984487277851471 8.217869279186989 -1.3259325555631554 1.1173186443730565 -0.42712451266861917
Ni 2.3196352440750974 3.8967640340755967 5.107692672972373 0.311202984207935 -1.5627627812864697 0.27776295938193457
Ni 6.2500058597184935 6.1024028521851035 5.458722437476841 0.48769584649377296 0.20676991600282454 1.3343642312702761
Ni 9.096420085319387 5.6169951162030625 9.469733040585039 -0.17340522449944976 0.7179311926083893 -1.3416191130604767
Ni 0.6002950060301426 5.641888535919996 12.281169082299028 0.6339661624496437 -1.1949500190042905 0.21721836502965816
Ni 8.196769850969684 4.0667311336595 -0.10545529559203703 0.3124494550205264 -0.11989542550676771 -1.1768337690195538
Ni 2.952822668567226 8.278173286233798 3.7597553758449727 0.008702669980320496 -0.5561165011600164 0.09494775442249453
Ni 3.6868856317553926 0.7371530204806347 6.819370536027879 -1.364119608155838 -1.5317647902430587 1.118485153877332
Ni 6.038992979547909 3.6330816248513296 8.949720940466792 0.2542314519188976 1.9687970489436935 -0.6975526289520374
Ni 4.34479909398653 5.837716151093287 11.080738083117772 -0.9017678968538082 -0.49359215737354994 0.2750699859308037
Ni 4.052029416598435 6.315061655138615 0.8744425084742219 -0.5211836938385734 0.020549542016577514 -0.37909219185074067
Ni 0.4440169625408595 2.475886320467937 5.533155343260264 0.8373303952050288 -2.5673038421444625 1.2129055750414466
Ni 1.2269098981890894 7.943111762423361 12.75931616003864 -0.09492204339088169 -1.1278578533414834 0.24926768015571912
Ni 7.05123549104839 2.7713527075003768 6.035978244145507 0.9308393602984679 -0.7156637367304514 0.04433456025131719
Ni 5.712198265647203 1.605323354282062 7.767445306491116 -0.20905871203700124 -0.35789164651372557 0.32807841980703495
P 7.775069555585593 4.933732583315085 11.272108688178875 1.2579466744414851 -1.0007098600373603 0.5361413435896701
P 1.544154540349306 5.811186107592199 5.132775792264288 0.4819280907720603 0.7974093906403751 0.43652549426754494
P 9.39914899039401 2.1852461137989967 11.926137958622277 -1.1513474518229914 2.533956634142584 -1.6251416006340076
P 7.76481275993831 2.3870994801775822 8.032268702864904 0.5896244031094748 0.7541606072540689 1.067097543433975
P 1.2965686980021442 0.7600620338592814 12.876567235574992 2.354390532248061 0.23346002369950117 -0.21001464819236734
P 5.043302685864441 1.679399178512578 5.635053771821398 1.7372234436336274 0.6963023014847041 -1.174312288149281
P 2.7000200879080736 -0.31797833316345375 9.125725879954395 0.032919890656472335 0.5885661370482895 1.0654389247846294
P 8.554167569834316 2.2466474027010928 3.6462211101184296 -0.572275370308066 -0.13096453883673576 -0.42290276127778775
