# total energy = -340861.9869397986 ev
CRYSTAL
PRIMVEC
9.35235421623848 0.00000000000000 0.00000000000000

0.00000000000000 9.35235421623848 0.00000000000000

0.00000000000000 0.00000000000000 13.68811574591662

PRIMCOORD
 96 1
Ni 1.5902368858265894 7.565035079707567 1.9277109729782573 1.1969410812923902 1.4680253431025683 0.8240671024372195
Ni 1.0466219500156062 4.809027252325752 0.3269293078768702 -0.268934305346711 1.1877915535826384 0.9272716975518676
Ni 2.34963868834037 2.6768214450140007 11.377821513683639 -1.259223741381696 -0.4230657692182133 0.9608348782192937
Ni 3.4624472484914466 4.583261423772657 13.38230970260737 -0.08722338919504333 -1.1236067913746133 0.2999713771581737
Ni 4.5034764907409075 3.1366392878740426 1.5828803240726597 2.2204481417299244 -0.05051446380978398 0.9294923593522703
Ni 7.419465687767678 5.619708012501363 3.675176830631112 0.5746269012593781 0.002984793659936795 0.5217089702144241
Ni 3.1889937662601326 7.011272839672055 7.724026035050791 0.059934728682419364 2.159579845489642 2.1780781614041453
Ni 8.279554934780325 1.2287590465802916 9.050773436729765 -0.3833967327633655 0.15961845512800252 -1.9427988251077186
Ni 2.983747002655071 1.9712424404837763 0.4679553261833248 -1.9274393119325128 -0.5589416293136374 -0.7892849617610278
Ni 8.622197132820908 8.837825009503598 10.596244344306468 -0.3132207859689122 -1.2638560979473847 1.952666719040734
Ni 2.4182475581939533 6.861223670106775 4.066807594808563 0.2935179082233461 -1.9835898909821512 0.5896043485048169
Ni 6.727868452652817 3.260726322391128 3.1257082563739242 -0.1865708153471303 -0.791756563229972 0.7019119343619976
Ni 3.818538131762327 8.719461615710394 3.902372634129764 0.44517648507432367 -1.600253579143076 -1.0762756103888176
Ni 8.572620303609643 4.292319039329484 8.564941085638434 0.8666358290373655 -0.183283145734794 0.11285985881622498
Ni 3.2394403644049294 5.3696073585176505 2.14465379065078 0.007869632556063866 0.04822103978991695 -0.20170407144414293
Ni 5.605455024816404 8.829697813769853 13.152951634835254 0.7791157345375098 -2.1560047265438738 0.2327930795394636
Ni 4.428564134207756 0.33496485054020153 1.5399539538789626 -0.27272591117865935 -0.5566507763969317 0.029451215381581537
Ni 0.4681853940947749 7.483136514643795 6.210681399125402 -1.0765345204771588 -0.6156321400271462 -0.09996860467585364
Ni 8.7032072242429 8.783300784960742 2.2404434072949124 -0.6026241578032525 -1.058569451358306 1.188922581863288
Ni 2.449989448090772 1.0281042888501082 4.639436338818397 -2.8450745148358805 -0.1699594320426944 -1.1658243052829276
Ni 6.293984687778597 5.251328135911562 11.845586051842835 -0.6557302935996127 -1.5520273971468368 0.7390826298750238
Ni 1.1531359111337167 0.7698904676638345 12.962851008733992 1.1301047403941311 0.07886190460422547 -2.209824343467491
Ni 8.817960609344246 3.429470847850262 1.7800709698353177 0.53636914332976 0.17789102818494523 -0.1566665715885302
Ni 8.034242686108094 5.744384245328261 13.469557814230066 1.6121225626665203 -0.47100733009449847 -0.9428248147951183
P 2.294861950236167 8.676712005009641 9.34164567851701 2.9100851153793106 -1.527158401819299 -0.7527683548922326
P 1.7616468322110594 5.663944647507831 11.450259237315585 0.9050259987797898 -1.8180717825402624 2.2566819272509777
P 1.0376530424107007 2.9231156908692504 8.938093468537708 -0.373054470297093 -1.2439791565177996 0.5570968627954147
P 6.372731509502584 1.0419177158912398 2.9751119740923917 0.06363634590372265 -0.8909882897398009 0.4744047858118217
P 5.4932454800367845 3.8724825103494953 13.678013370535067 2.3116140605124835 0.8024510668293406 -1.3999810979391374
P 8.430492577987382 0.5151800383324071 12.754353366835431 -1.5046013424543894 0.03793791269635402 0.1355264471758053
P 7.095668483286932 8.796450194859071 9.145714794854852 -1.519702459761886 -1.0842653134625133 -1.9786554297950114
P 8.099278956686312 6.608962622320422 11.49419846746091 -0.10948168637261145 0.27234513080047285 -1.2314167464717567
Ni 0.2097779791781347 1.1264068830473564 1.187205601971996 -0.3816488968343234 1.9747746066833665 1.2178600908332446
Ni 0.48755973089803045 8.459999255248567 8.433261810043495 -1.6569703151088304 0.08924016251475599 -0.7040513493025036
Ni 0.9887028209257426 2.9094893109105984 4.4971617812363895 -0.8860250321972547 0.3774027199634597 -1.0172713639404674
Ni 8.92504506406392 2.2401787356732035 10.896438077449092 -0.3282681672203379 0.23002220166254578 2.100453214530815
Ni 2.6707891766040275 3.1045981226452564 2.7771273134646073 -3.139196632302129 -0.07470520212337457 0.7287863901553385
Ni 0.9805195110672522 8.548874676488834 4.238908680162796 -1.3674029068928 1.4349565855730577 -0.8127732746909551
Ni 6.682864924608182 1.5907232082410367 0.8848065837269365 2.0851566933830603 -0.20251705426374156 1.2313038750429763
Ni 4.292562200536708 1.6634751709715472 3.6445291661668002 2.7183096159027893 0.15271787135342732 -0.5183958466807911
Ni 2.6183224699684495 5.4859038820494535 6.3027066932346285 -1.323231097471592 -1.578067015743708 -1.9214298725136392
Ni 3.9717951587921343 4.391145365357676 11.140072513791479 -0.04868383835894841 1.5901422017406872 0.40762809450690446
Ni 1.2033954621960334 7.838834599041467 11.84329940125952 0.051076764071157195 0.38065593679343473 -0.6515208835039553
Ni 2.326304564801018 4.693432155353247 8.951589850774036 0.25934691876859206 -0.604896498777197 -0.4775096499893905
Ni 5.860811701817799 1.0177979946054723 10.119637155323042 0.3295452341605486 0.07034923914752401 1.0442679471339693
Ni 8.066816935521947 6.5934377144746 7.9909440922202615 -0.18167749181057097 0.9045670568655002 1.0007538259014184
Ni 0.6401779921411693 6.05695862486022 9.791916638287283 -1.317194661469525 2.772699760617896 -1.8661964059616312
Ni 8.538343925745224 1.1600285961230965 4.290608493760207 -0.46299114465824137 0.1561307536897182 -0.11912075212427227
Ni 5.232398971164608 1.5791356414814146 12.931792775923638 -1.306491159009092 2.855693685112624 -0.7501967375103145
Ni 7.636748931130314 7.884436677750037 0.23528933075755185 0.5777415356289598 1.5007596001107961 -0.25742579048647923
Ni 6.1736198902028585 8.831895616988989 4.660639060852892 1.2250663787736966 -0.4798244141654962 -1.0108554331117947
Ni 5.013432304059655 6.329757442302855 3.7455888343598 -0.33910151039041597 -0.10984344058740438 0.5069490382964301
Ni 3.9182342267240493 2.615731867876105 9.82750608667071 1.2703843859842057 -0.7258553325514725 -2.443742794860649
Ni 7.896220643946264 3.3965505613338203 12.907030547909553 -0.5423366737671047 -0.8207586068892768 0.8149057476529256
Ni 3.122807156124663 6.853788548578205 10.38911588705166 1.0951071412730238 0.7914503448434628 -0.4109533022253955
Ni 4.541344172588938 9.481416610900023 8.325454418350036 -0.8055538741243804 -1.0387179638500175 1.2749915457389138
P 3.9746569791540747 1.0445083179835848 11.369828056613867 -0.7129800192507011 -0.07722025523574443 -0.519051477986919
P 0.4788003160255024 7.265778452448167 0.11417821532271942 -1.3502225384587714 -0.049836978126785135 0.134258121986343
P 0.8397076616702369 5.789677696350739 7.482471562265579 -0.7470707902868231 -0.48103514664414576 0.7346348785163155
P 3.9673901999997354 7.237936494221053 5.690779357195793 0.6980061715496882 0.47570165024637434 -0.4024455218647004
P 1.1875058125393763 5.162116029922831 2.990223507885933 1.780184777686502 -1.86856542041444 -0.18674565036209773
P 4.786983753655509 1.9844292597986009 7.312533676420225 0.6496789451992102 1.6836362544357908 0.27259581335869826
P 8.004988522408256 3.8254682261682027 5.017310725314872 1.1313828357756064 -0.8925188674517145 -0.3378941203458761
P 1.0184526593941514 3.0103450977836954 13.068290384363257 -0.7712952100518266 -1.455225363124423 -0.1931358701591577
Ni 0.8764727009670501 3.319374935102663 6.669958675917077 1.3147037767268712 0.861621920762542 1.3680811639067472
Ni 2.583307256128235 6.722827533779987 -0.022648595982064104 0.822774351767725 0.05873196662356982 -1.0255490305682273
Ni 6.385815452922045 3.0935904018413214 8.92685474458691 -0.7067301816862473 -0.506730751638037 -1.3651017695634489
Ni 3.2111494931798625 8.924661617544835 12.846255209870222 0.560692293456157 0.5227294410591384 -0.5039981831982223
Ni 7.436543086398082 0.14733231069226033 6.567790753760384 -0.6107493580135481 -0.510145947967173 1.3312511395625912
Ni 6.04711059596766 4.584056373873196 5.49261606660424 -0.7933115664219176 -1.0141685566454277 -2.687455092415778
Ni 8.140064573021029 2.4680020821335744 7.036484915919505 -0.7409093986711175 -0.3333923758207807 -1.1468408222018895
Ni 2.6548434128226264 1.6388971843337041 7.908062594738059 -0.5695186334985353 0.7969100824064533 0.6592593897987936
Ni 6.230650545650944 8.053209260271544 2.1574113369113133 -0.4085205244141868 0.11310385650623102 0.2812696869836124
Ni 4.629125368396699 4.831164274537233 7.03202290776695 -2.1065742398268883 -0.9326368185185229 0.07679885142760967
Ni 6.9932602056292525 5.0123193739189 1.56574213514045 -1.571044304568972 -0.9751605508133464 -0.5045625403421246
Ni 3.3209367782413692 2.7507892137806293 5.703399423850704 0.973672396303594 1.9894805454349735 0.6665019302938199
Ni 5.3457495031473545 6.2893178630707265 0.3761685171042598 0.8214453485436563 -0.6300424019152052 1.0825583580737357
Ni 9.073018011013673 6.197589973822642 2.002489590847436 -1.8846070472583352 0.35210666440083227 -0.4475910080530872
Ni 7.069304197011407 6.351155628538541 5.916742520420903 2.0550164223542544 2.5769799317816457 -0.472493941942354
Ni 4.454582383380693 0.40145354171387637 5.952016794470352 -0.25166754784646334 -0.49506385682306986 -0.031218077474017204
Ni 5.743795047018449 7.75856334359527 7.096397966908603 -0.5921587394955544 0.0345373716552373 0.49659212054213825
Ni 1.1871971848532845 0.8215912164966579 10.137062461526858 0.8571615709983431 0.9426222118660088 -0.0625816793869632
Ni 6.135480990085231 2.3533235158652217 5.424490713458868 -0.031140173048230243 -2.186866963340369 0.2806935027651682
Ni 8.973724067279282 4.5408017360497475 11.053755896639537 -0.5225129541729582 0.3314694477664549 1.1125587610905678
Ni 0.5091477699224342 5.305122876832747 4.955097930446685 -1.0293162109201432 -0.08962659931989726 0.8710265019058934
Ni 4.583270776126781 5.39265155907916 9.147274767522733 1.639128401831403 0.5126545733216397 1.1262298308197574
Ni 6.0781323545969315 6.978801466153565 10.388910135260932 0.18062411084539215 1.6890993344328908 -0.7367670943679697
Ni 2.062886158544744 9.220205360217012 6.582217695232051 0.5416733291514929 -0.994624830185545 0.24620523918031145
P 3.9995997076027536 7.387854730828596 1.6782041934814171 0.1267888101924913 0.9136278815161878 1.5320869494691678
P 0.09684736789555544 0.5673773971692144 6.311781282441135 0.30188710612364783 0.46335418442461496 -0.580327036967949
P 6.736453913738639 3.11016277334903 10.976582140879204 0.8911950064339684 -0.040454508470620654 1.0147151731775168
P 8.157170028713805 7.612554391011555 4.138903022279569 0.048788482257612745 0.16112563580114833 0.14417409554847427
P 4.484921420158913 3.8568734313165574 3.766873857110587 0.36497580705401655 1.324246940330616 0.7334259458098787
P 4.519151036252713 6.988097706152811 12.348268539359356 -0.27906059514743553 0.9011140653198931 -2.952001553107438
P 6.503346487198215 4.996074334805531 7.923269522543666 1.2256890999593602 1.4625275532127908 0.24287746035865915
P 2.07342626164248 0.5904543309701572 2.23199823152095 0.6412727234133859 0.44703102178455917 0.7170768150278941
