# total energy = -381171.1759403147 ev
CRYSTAL
PRIMVEC
9.23484697549827 0.00000000000000 0.00000000000000

0.00000000000000 9.23484697549827 0.00000000000000

0.00000000000000 0.00000000000000 13.51613202127583

PRIMCOORD
 96 1
Ni 0.6536821911063542 0.943866022640715 1.5242549258578806 1.0915119677225977 -1.0716887623490834 0.17799438653202893
Ni 7.53527511520679 4.823582302677789 11.69479248812769 -1.0220281618991625 -1.2136072290941615 0.18840426901144328
Ni 2.814439721917796 4.302487582555413 11.83765834398941 -0.6209067581625243 -0.9368122900524511 -0.5012825840392722
Ni 4.100853929886443 7.029639529213197 0.6963379500913305 -0.34884084916536695 -0.7982491129328511 1.265298743931182
Ni 1.0060165439589417 3.355961923935553 9.302626310466861 0.5624534991216378 0.22444702156761348 -0.9635106252792437
Ni 0.7528773782813323 9.224550295238785 6.377897579493018 0.8448251609201773 0.1462831714716771 -0.7240193077839983
Ni 0.15340743388322745 7.9226030743641545 9.764702969424224 -1.0502943558337072 -2.4365989847270164 1.4370013839172284
Ni 5.491058584971815 2.8020557918899 9.791519118577845 -0.8940445600676216 0.5001641541641129 1.688341887441576
Ni 2.0039803012032484 5.279885335197092 4.852047795532366 -0.4605133725417101 0.7745484268818016 0.7476762850813059
Ni 5.0455787933120915 0.34185926573055697 10.571588504291794 0.7301485606101877 0.7929557257443957 0.30218098321498277
Ni 2.033624160554141 4.844767042039455 7.562167913591754 -0.023591414166694854 0.4896056619219762 -0.6800061354278418
Ni 2.6212097801551546 3.191673993140418 0.8601964604939988 -2.10474978502364 -1.2273268926730991 0.9594146008329992
Ni 8.934252875084482 1.8007674896716612 7.440319646358289 0.8875874915883682 0.4286592041455908 -0.08942322505983955
Ni 8.645100575976755 1.7571974808188537 4.764828358141262 -0.4241664584815598 -0.6316987065717056 1.24005745286589
Ni 7.117315168053501 3.6010824718329815 3.2830952859846856 -0.38953781266409687 -0.5106601685994302 0.015155110473883576
Ni 3.034266023471893 3.658707918047801 3.4260424085013224 -0.14950193551929092 -0.0870812071902242 -1.0920704113292288
Ni 3.1564338164167403 0.2262676074410899 11.9472473516315 -1.8053000846968907 -2.0593392180993244 -0.0613650333710427
Ni 9.145379950623456 2.894358089152259 11.23767771254392 0.894845201592046 -0.12589638028520897 0.2727984162878076
Ni 1.882006440048547 5.940213845797165 13.430143091044236 0.11585930776418112 1.4061939116180686 0.5876433681237041
Ni 5.370691587221181 8.47589047165077 12.796803421239487 -0.7946745082077152 0.9881456502191047 -1.029766925304317
Ni 2.2962355089533117 1.9584432699075311 7.629329262973467 0.23507056271973062 0.31055532332160707 -0.08550434962140757
Ni 7.672966686210469 3.4771046488467716 9.378479497985976 1.4388186396316252 1.3742142733876785 0.42619171644170467
Ni 6.475871919874791 6.920040363239242 0.5978981734132071 -0.062430755631395704 -0.8623960799244051 0.44190244230874215
Ni 5.2395105834581175 5.804886395663836 8.198940176082088 -0.5590092493267792 0.7481115728465116 0.602977170267297
P 5.7682702267148365 5.177877213580281 6.15107034031465 -0.11993862003987732 0.41330766139018493 -1.351932836281659
Ni 1.0488477650397643 0.5364568883560856 9.078894592053109 0.174863297102215 1.629822036828812 -1.192000449457663
P 7.353727255088658 2.0355080693727023 10.737242268980387 -1.4883730535209851 -3.24203638787819 1.5186740184973715
Ni 0.7079045961464685 4.014027896983922 13.025253223062078 -0.6294209662811224 -0.45004949689590884 1.2229601310639713
P 3.564023030220791 3.522327695339395 8.82123589218038 -0.66607024207304 0.18929001405050624 -0.43459845244816114
P 3.149803196163176 5.641078676920492 2.3298023313734437 0.38678287562677904 -0.582410658969855 -0.6179515321889422
P 0.6704185045959564 6.869645802342725 6.046239125924142 0.14855165579087964 -0.04720365426899612 -1.0916649483606942
Ni 4.424258277072819 5.982851135087841 4.424803133054658 -0.8399120398892761 0.4732873843779269 0.8054980811857805
Ni 5.419008307508991 7.1862255974853895 10.465581693859116 0.2971670749401592 1.6556302561411682 -0.2168139305023879
Ni 0.5449640295504914 9.106492009275604 3.7631614271898814 0.016859494759499993 0.4314578499366505 -0.4671928414444147
Ni 6.130488636471866 3.7725366440163697 7.78521071240813 -1.2959280387812648 0.14464229343414445 -0.8726550386482519
Ni 3.292841743666596 9.030313755136813 7.277355992644438 -0.2984251157169764 0.16725206041386034 -1.2411458008340626
Ni 2.1779925260471336 1.6880469453610703 4.740634905578188 -0.17849420898658294 -0.07388733420776952 1.0886585574342025
Ni 2.712413130606686 1.2526146674003402 2.4557194722611144 0.2807415823942842 -0.11081891712679624 0.28383899037268534
Ni 6.3248082901981855 1.8351303559161072 12.734507912821009 0.8258907859095195 -0.8391759330541999 -0.16955319774321123
Ni 0.6827368672090891 2.855636375053102 3.275891181723118 0.15664754542513668 0.19525908714974757 -1.594590467320028
Ni 2.403415144974016 7.414298617544268 3.089869038160904 0.4939387420796913 1.1535010078308845 0.24326184028127137
Ni 2.9774440089591065 1.8214443124400876 10.18766266282442 -0.7486363350017301 1.2526568867974557 0.7306578961464384
Ni 5.622839853799616 7.882163678695133 5.586636482518212 -1.0063500890422734 0.5188486179474935 -0.10347070429184117
Ni 7.362869753766971 6.0143881381044455 9.717260789161502 0.16276959916247452 0.6103145844689747 -0.7235439108094764
Ni 0.3876668780477636 0.41563830657982564 11.393639505148787 -0.12821654377795338 0.45777977566063094 0.479914145665825
Ni 5.690799093975073 8.190007308434076 8.020662375339706 -0.6223242073353412 1.0845761598347128 0.9170932143569689
Ni 0.2663782425515782 6.032802423321168 11.413927540852205 1.2189024160548299 0.17696106017150814 -0.4153961684880976
Ni 7.838224275956334 5.720886225989157 2.2097391600940384 0.27127118101000375 0.26637400081870255 0.682829978029882
Ni 7.771382452286003 1.4483195481991311 2.1458349413020623 -0.9533344560771904 -0.04319633288181593 0.23681325644245022
Ni 0.18439681046384762 6.745252411234773 3.7509566531966914 -0.4054423997094953 0.30063806420789513 1.1001997253045825
Ni 4.004479065031018 1.8833824322738688 13.016657427335034 0.2871318021913442 1.3415422370759542 0.6389898409164801
Ni 2.6593774034253226 8.73998863044106 0.6759686477329927 -0.8468036248027868 0.6521189220992704 0.682578009920076
Ni 6.965854439949454 6.14447942990383 4.366116602902325 -0.37763000548291736 -1.0347602647538503 1.0956437305027842
Ni 3.2709366862272446 6.857151054149031 11.523354015184458 -0.8063982244025467 0.4772252859797522 0.808250704230253
Ni 7.262191450139734 8.917962604712216 10.160927780325716 -0.041616904209838 1.1675016929853506 -0.4170702137564107
Ni 8.66682093647311 1.6916670054437961 13.359831735299723 0.1291593673071969 1.5985823620882404 -0.7596617395779561
P 6.8519703048979865 0.684982782035923 5.972846101685736 0.8827515036523056 0.689342325227103 2.6391309513890935
Ni 1.4896454891945345 7.551316044706011 7.944890454475508 -0.23600053073316773 -0.9954257288202855 -0.2614770777377174
P 1.1558334692703227 8.205845071296002 12.747659258647053 0.13868993250545147 -1.7484169983566016 0.37222451819662994
Ni 7.603529870491041 7.458515065697561 11.927946521088396 -0.27360882800424496 -0.3858336243396323 -0.3255309707948329
P 0.10526802266069357 5.602523190070031 8.969116270044447 -0.4099516004337585 0.02825333841873844 0.07850015038943255
P 8.441804650820819 3.6052012136617972 1.5987690605402742 1.6161774494621846 -0.3240037355170291 -1.0587918517817572
P 7.76370829430451 8.339916582216956 2.4829003978771524 0.6118850142798882 -0.42418137087989527 -1.1190268853134147
Ni 8.057311789738446 7.984485785115037 5.46446407214979 1.317754133517421 0.41268828263863117 -0.032283799734370205
Ni 6.584695358688162 4.25922232365855 0.5773358627494383 0.7656773496444167 -0.7731320061502491 0.16117165854773532
Ni 4.781138945177258 0.6215901737760466 1.3615341486240689 0.7963087013770286 0.17338619833605623 -0.027274005224604644
Ni 6.813516401366175 1.602827775862616 8.09177069839325 -1.040458343579892 -1.702857821669564 -0.18134556239244898
Ni 5.077235849341643 3.7043742372036155 4.461432230789667 0.538474362598221 -0.10147218580457364 0.3509612379424794
Ni 4.470986603650862 1.2584695604933203 8.493712803165192 0.07887835966445769 -0.09318243499195565 -0.14243834380429016
Ni 3.4878447760820013 3.5986906464211805 6.222259930023112 0.3643381734700177 0.24675031305050407 -0.029582341642807118
Ni 4.796745836860439 1.5099806226184178 6.237154814991042 0.270159950223696 -0.09001509300756756 -0.7750839876702975
Ni 5.41661648209719 5.448984621357277 2.455583720008012 -0.36907285994152567 -2.4342315129361047 -1.1700910509790818
Ni 1.0108463690182927 5.123003751816105 2.1732725956688657 0.17028827613702285 -0.6464074735367901 -0.30807677987412746
Ni 0.2817496456324383 7.569536398132588 1.4581066392085005 0.5579227011308198 0.6807237303201567 -0.8496580635324466
Ni 1.0229624884788444 3.288399782187537 6.177412741809485 -0.24695522997245856 -0.2186286151136235 -1.7620471875455266
Ni 3.0001155587118924 8.642699515717803 9.750943047171006 -0.23626895390320604 0.3803674590187385 0.08692488411801805
Ni 7.469550708041586 8.976336073546168 0.200780352792327 0.7644769015784124 0.5562059755500292 1.0690245852533589
Ni 6.959519334804684 3.0890748413060205 5.758196855443823 0.5742700321405916 -0.20409416894287433 -0.1606936904700523
Ni 8.902171016086038 4.574241429632896 4.550773836055797 -0.2698637591395159 -0.22337564288030562 0.7002880256053294
Ni 4.243042871452081 4.535741351865335 0.32848166614934105 -0.6448951506573216 1.8431194695375097 2.249038808883424
Ni 8.139714330856208 8.725074352294117 7.888852478485741 0.27871915264761676 0.5451762000984289 -0.006155478078434561
Ni 8.440844226717239 5.83596165632295 13.537622859597311 1.3733611813587638 -0.07380942978198256 -0.007688884003825468
Ni 5.211021080000951 3.7872754600674674 12.12538940012078 2.008854064865579 -1.9878008437397054 -0.6046890107520813
Ni 4.74347923850033 5.062441624207646 10.519524283030593 -1.0732409373275515 0.07357905893873135 -2.6116206617839666
Ni 2.0750424500210425 5.706803084085696 9.671508585927192 1.3176145226157632 0.28421205744138794 1.818239161356062
Ni 8.555300922291995 4.242377962457295 7.453687087607641 0.13468312533890353 1.1406447206935064 -0.9615565868766666
Ni 6.785331647864952 0.11261526705308307 4.02583372558024 -0.12044615580391514 0.9632820542082056 -1.47185525837162
Ni 5.693264798164073 7.547557461916037 2.925201555147912 -0.311922893093095 2.07455526371813 -0.3315057003210291
P 5.136329636253282 6.109211548638703 12.513059972107405 0.6726360682160158 0.25056865835532977 -0.7137544355228804
Ni 7.212609555792399 6.664724544088423 7.170159733898863 0.5493719833473314 -1.7689318304805017 -0.2916679994988009
P 5.091088120066359 3.162658103395713 2.021229148709665 -0.31586645112187534 -0.883894101897181 0.40154229332414065
Ni 3.5180427262618825 6.867290916319523 6.5168303139536325 -0.17889890062416933 -1.2305461709413452 -0.7551527959640092
P 1.8612926778915213 2.0839171381320107 12.229517842643187 -0.3725644180345519 0.9547696458618201 0.045232903695870484
P 3.538146988507021 7.0170893719366045 8.656974742441982 0.8529079379283119 -0.6159938942419391 -0.058908087190117905
P 3.6162091514643717 0.12138375442182846 4.873174355356988 -0.12468179115181752 -1.4633845018964473 0.7442924562107376
Ni 4.853438563513127 1.3912481928133003 3.7275740202133703 0.09960453646821554 0.9344350480695262 -0.6913246457644545
