# total energy = -381161.1716361243 ev
CRYSTAL
PRIMVEC
9.37642451697378 0.00000000000000 0.00000000000000

0.00000000000000 9.37642451697378 0.00000000000000

0.00000000000000 0.00000000000000 13.72334506411522

PRIMCOORD
 96 1
Ni 5.339320417566569 9.12628940801092 8.566276842123646 -0.32620562826435434 0.4682256535843033 1.4766195125294828
Ni 7.934892809913379 7.5182607735230365 12.14845347461668 0.03508475951827506 0.03998116837862792 0.651932002899445
Ni 7.728639605059475 9.11679109021681 5.310179428551455 -1.1518701570956809 1.079815505221276 2.5124275018215565
Ni 6.947620968358526 2.929082427508355 5.320513185748777 -1.276405138256989 -1.2611489834288667 0.8236786087495492
Ni 7.364121734808969 5.26699068068231 12.19588130390213 0.5350697077920462 -1.6616875180788413 -0.0953907554971841
Ni 2.390735027558958 4.802041929984919 10.103716941715787 -0.09741292813353546 -0.5728947490596198 0.3218429804202844
Ni 8.148215838673263 4.122485580401491 4.019787480564066 0.49430435294922614 -0.15900653257561648 -1.3521446951821487
Ni 9.110799555102854 2.406946865136464 1.972291465998012 0.17591179297138734 -0.4623059456657587 0.4388996509266764
Ni 0.3148303227139408 9.070865364100776 4.42284151695673 2.240660097901425 0.08432292771879671 1.0603553396141352
Ni 0.7453863491578381 5.994291782691802 8.031944427050298 -1.109039949304032 1.1746488455530932 0.36735947679484476
Ni 4.409301022656165 6.946111364049689 10.095112197155418 1.3167781427573968 -0.1335554394923635 0.01613624344023027
Ni 2.246422481488747 2.067801598983548 0.7645039406192475 -2.303815390403671 -1.4980311454360393 0.1426525166976253
Ni 5.872398267071455 8.842136870251336 13.266110121618478 -0.41086794160044077 -0.023871664411275015 -0.2144264041068178
Ni 1.6936822702718708 4.011946914582394 7.796973109916241 -0.19637751702490694 0.18511634228879087 1.2004213265315067
Ni -0.05219292810377642 7.275898958772674 0.4144698329517229 1.3241577230509196 -1.1354724324639476 -0.05148325548095649
Ni 7.134455598531682 5.804841130144948 9.661646666257905 -0.9075711337991467 0.8247592434082376 0.4993629984190561
Ni 6.742286653083915 4.275415060383633 7.249562458259257 -1.398237118664837 -0.5075259938458226 -0.1500683495457222
Ni 6.266283098162185 5.480585625746271 4.8388650234113975 0.343204476815196 -0.661099785441642 0.5530054663348606
Ni 5.455644337165492 8.786553427128457 6.3968629332341225 0.8491896085364601 0.011639898231773502 -1.555610743622721
Ni 3.2146976874553825 6.19655063080307 8.144256174700457 0.045899847855908046 -0.2960702423315546 0.3667969194231554
Ni 3.8891532622313134 7.27140765154328 13.09843808974327 0.5529455596312025 -0.5375783331465128 -1.4279426161490698
Ni 3.9339256881610942 4.826139340380633 1.0639025442556524 -0.28088504995068403 0.5153997401669446 -0.2073108761079591
Ni 7.811977264046678 5.984399655077996 2.794319769565784 -1.7652284134869858 0.6048749015106422 0.46228203440635873
Ni 6.73759844094467 1.5754736893929708 1.0801950190819534 0.2554509261482955 -0.6252213263774781 -1.6438258073070722
P 5.853176597300554 6.674420094156217 12.52214055016912 -0.6495444765038748 -0.03156980438648112 -1.3588149081134728
Ni 5.740246943290443 6.733397802867907 7.714701550369503 0.5117176633296672 0.11340647534831437 0.7480748060713052
P 8.109500582827385 0.3670401283814185 9.252677043787944 0.7658287876206166 0.22559913289418565 0.49835975396552235
Ni 2.617353825945738 8.661659455738995 8.496864110832426 1.3642216809513408 -1.1148583557580218 0.7529707007110258
P 8.683750311339113 5.288040753187517 1.0998104986725508 0.8437082737069148 -0.9092240960215374 -1.2917705649694657
P 7.878540499999666 5.981427328581716 7.703736759818239 0.8312242823072911 1.1816833838023715 -1.382751364324412
P 1.1042146051561565 2.8459510498552794 9.441386958816796 -0.7898462335811365 0.2826953636865454 0.8491726392555956
Ni 1.9072865917601094 5.238486350875707 5.6636518710019015 0.7090925112708368 1.789888892348143 0.16828435833311664
Ni 7.800884954125227 8.870397413026698 0.5944427958378801 2.26499996019837 1.9932806359073543 0.6874589921614612
Ni 2.869270217035879 5.543801478231838 3.4067240437515363 0.3502251311074033 0.4586678346925391 -1.0464757534185656
Ni 3.383885887136423 3.156235682079009 2.5344962398815944 0.25076534774716813 0.7275795143314309 1.4710042232252343
Ni 3.8919005545449106 2.954839465001362 13.445090121173543 1.5797323192612729 1.019803900554334 -1.6385637875771846
Ni 4.293380289301216 6.354646520562658 5.986040529326732 -0.8445469675581262 0.3396337287448022 -0.11512525781163398
Ni 0.7214061440656045 1.576242556183807 12.292507231376806 0.9421190469773452 0.09010276762536741 1.2648225756257119
Ni 6.870790547820595 8.204043068827382 10.239220337176356 -0.12289153202061417 -0.835559162237219 -1.420423167843573
Ni 4.048805638421131 0.9876562749502704 2.367180512128968 0.7349194996362698 -0.5716475069160801 -1.8897333127413067
Ni 2.5645739336821283 8.497243856015706 0.6997559804065754 0.35391672102637756 1.5972235340675007 -0.30302944725820713
Ni 8.309565347657486 3.2065870804544905 8.703111689831763 0.810293702802211 0.6148572095343346 1.4472163767770172
Ni 6.984329669408808 1.6723696578868672 7.6336658035426685 0.10403351877384664 -1.317994274552685 -1.562991352357508
Ni 2.1966055392971398 6.136494633299352 0.548363296363678 -1.4532798093622776 -0.0798065279056819 0.3104617351665363
Ni 7.807242169786041 1.2998536977268118 3.532924151042992 -0.5840854755691167 0.9696481056355495 -0.4022997403154555
Ni 1.02629651940192 3.6090232104872015 4.160040034921692 0.06553613402959681 -0.11438735120434493 -0.6287067138229172
Ni 4.10822403907391 2.791933469586909 10.897612221878381 -1.2708860082109725 -1.5722167276105183 0.005649227865977368
Ni 1.2033796683254474 0.5951722816467465 9.546301645353655 -1.8464503336829552 1.211944496679758 1.2924405944532966
Ni 4.448231936260448 2.0542339130525757 4.669052353873411 0.6799570273574612 -1.129584863334919 0.17195640786806515
Ni 1.3042606171377011 6.188336883135114 11.937608634793602 -1.332922356617427 -0.6978454776021078 0.9199494528588414
Ni 0.3859083069570202 6.538058755874164 3.624760600996216 1.4162718646793608 -0.21167043862823542 0.9047359783431966
Ni 6.014629246951842 2.9161804677011554 12.131559970994129 1.1175968377351075 -0.5354664290098327 0.6556575313801483
Ni 5.72562909784028 2.6501150523747756 2.6054185754816506 0.027298687814952986 1.9022959798976657 1.6482483618547998
Ni 4.653416228746604 4.240956701160188 9.320785514462026 1.3225662101940836 1.2637758795287524 -0.46696452748369255
Ni 5.143550055056014 7.514200781810452 4.178017453190837 -0.36674832557340703 0.8310713016691946 -1.0621517693929254
Ni 8.018474255931823 8.362720296892237 3.1506876518334272 -0.482829262430091 -1.4489564993965756 -1.3859256482873359
P 2.5166885348918893 7.368913087615277 10.823313435895644 -0.22901715743679912 1.768154071774213 -0.4385440673594705
Ni 0.6391345845188661 9.04521146727483 6.890917042534369 0.21295059089223972 1.1404418606540812 -0.317493188092021
P 1.3154185620291021 1.4451976504676565 5.038484408088271 -0.44106477689879525 -0.016592871361674647 1.352757646175799
Ni 3.2009237201902834 -0.2018941052068346 6.235928799845435 -0.05261685486476745 0.599142369902239 3.2884005769650275
P 0.7201431397152922 0.33634546586335967 0.4651212769041159 -0.9970943747719601 0.2951646997981497 -0.001571972472810196
P 3.900808157609474 7.360118001642055 2.0546867943452267 0.44735729477572633 -1.0443828754452789 0.6800459875268418
P 6.872150129340975 3.8659559885663337 10.387734458965758 -0.3864792283434312 0.152141430024667 0.18372794658169647
Ni 2.381208580492014 2.9859316879088285 5.985477943870022 1.029647369007317 -1.0219636272098143 -2.6224424349898188
Ni 2.9708450212447413 0.16187927695595858 11.92857820057099 -0.561980159029645 -0.21028358558303786 0.01987874120179802
Ni 6.078810871138093 4.223225882849568 0.39481122180944467 0.2970963696032238 0.02011451136168794 0.6334277734476703
Ni 8.03802410055247 6.900757599814643 5.471072305673317 0.18058888673208254 -0.24465383553279152 0.051608982425543376
Ni 9.023495668645852 4.872271347830796 6.125647985693997 -0.5565042235167382 -0.7864526345185552 0.03642661825815016
Ni 6.620711935889037 1.8069588519802862 9.959291878554232 -1.0993774865136035 -0.17227830998385815 -0.014078589580253173
Ni 6.579736961792044 6.9029891887929224 0.7693993717350461 0.71142604450002 -2.0871780946884635 0.3749833118886897
Ni 5.959524001467167 8.640393725475384 2.1154535248092525 -1.4458853166704195 0.9955771667964854 0.5519711115330752
Ni 2.5630080708276206 7.616056878747668 4.717880083303638 -1.490550263677962 -3.3335126388123175 0.05558185103036233
Ni 9.403147087681837 2.523130138371211 6.772401852581563 -0.12462085600689506 -0.8296142575076939 -1.285506586337625
Ni 8.25279109865124 3.292784548846632 13.866478817600363 -0.30453174283534645 0.8802642184540777 -0.6891219816861809
Ni 0.4898140902415144 8.86312130778659 11.464551152380173 0.6895297586475608 -0.8776074975575207 1.0189832044252518
Ni 7.638128981499229 0.5063897330810258 11.65795396776041 0.8548144109224052 0.7377518268787424 0.9170795875102141
Ni 1.052325473199003 8.514637123052301 2.4019970507598503 -0.297536542464436 -0.2909455195104796 -0.6718642230469977
Ni -0.14534770331055616 4.920503674319338 10.233182857583438 0.6723774152379904 -1.1365062730451008 0.24744451090405126
Ni 1.388601553522702 4.169602112400893 1.829472584315364 -0.7807674112083199 0.7110910297581045 -0.892367686585831
Ni 4.4302292016457505 4.93916275863353 11.911273071922613 -0.0463230514362557 0.6919016013138471 0.3940881510389406
Ni 3.923414716544909 4.141294687504138 7.058959443168579 1.307369190738671 1.1062011943036563 1.7400210609834226
Ni 3.1275250709382783 0.17556791876012343 4.197723884096936 0.08887815118964693 1.5106154098589533 -2.299960535433955
Ni 4.200347407610057 4.2595313976558735 4.934283267439005 0.6339137119451534 0.3199701888776038 -2.26148474795626
Ni 2.176371215704162 1.6310946382129625 7.6961062257404045 0.19699149645982203 -0.8302534337535895 1.3675944540783156
Ni 5.55395614572544 5.367515325371982 2.557990746196202 -0.47485292909283383 0.22699524191076392 0.5602014698626675
Ni 8.562813190995174 2.9874975507633366 11.550856449651517 -0.6318262332885054 0.3386942476496683 -0.9131208599727821
Ni 4.541668004195582 1.9143001571204186 7.299653192039797 0.48811853585348836 -0.6841972906910538 0.524578064232103
Ni 5.21700496285369 0.11481056472037596 11.207224564481344 -0.7490669947812455 1.1421776123982652 -1.162411937167269
P 5.946593912387131 0.31862214869216143 4.356544571453251 -1.015097239107284 0.3386428255864426 -0.8350984205507166
Ni 7.96719459155277 8.381463769024933 7.615111735180396 -1.3935754515231096 -1.178069698309184 0.4332967029176021
P 4.39215154265081 0.8759558701630691 0.04945126164474648 -0.8618414929725158 -0.005529414458661445 0.07062151897230419
Ni 9.262247560048996 7.148154554402552 10.038983046139531 -0.03405734669502521 0.9072062942605601 -0.44626586148376046
P 1.8741221790870968 7.35494221544033 6.826320980395009 1.1280249750469669 -0.4776415475815645 -0.9899958160539659
P 3.7895943892423265 1.077754335842263 9.531645356563951 0.19620473889246856 -0.15015088195719947 -0.43606886634610065
P 1.7780044538083146 4.160563239396431 12.905117786896685 0.8568412115444468 -0.31432481766636833 0.7722028094677604
Ni 1.632294820520609 1.4346022910329648 2.9907146019332855 -0.264197561992674 0.3142060327003169 -1.0338310680713616
