# total energy = -340892.0456759322 ev
CRYSTAL
PRIMVEC
9.09462391575742 0.00000000000000 0.00000000000000

0.00000000000000 9.09462391575742 0.00000000000000

0.00000000000000 0.00000000000000 13.31090139938757

PRIMCOORD
 96 1
Ni 6.630535417582311 1.9281238775292782 11.367456507099678 -0.09729774271190986 -0.13979036465848185 1.3206039442613902
Ni 4.550358527141139 0.6762070959525294 6.183765668309529 -0.778308408144866 -1.7126593811410182 -0.21103666169897847
Ni 2.641360643161338 1.611667352780054 4.810785803930179 -0.333502933256716 -0.11903282039615627 0.9167653987039049
Ni 3.1449026711470345 4.270662471211215 4.582823605207506 -0.36272197802283335 -0.49729146060200813 0.29437202869352525
Ni 5.062722340073575 4.108450763675085 2.6779137545612715 -0.2061024576221547 1.2968564641328053 0.7102831891448284
Ni 7.57813154021698 6.2404215358396415 2.4822565685286113 0.028534359994266987 -1.5933936187984494 0.0866384632258508
Ni 5.4167487551475215 4.51509867122515 11.674525561310732 -1.046650845543849 0.13660013985595829 0.1753518067028593
Ni 5.837775262698407 7.817774873563976 12.445612318558995 -0.30063292200157254 0.2914096036310917 0.3569755624573594
Ni 1.821498509781264 6.600232131559078 0.2747831402307193 0.398053820554908 -0.2572062182765054 -0.7180119252476538
Ni 2.8467627184418656 1.4607056947069317 0.44875328669225034 -0.2867245394505965 1.3664806521888466 0.5208008565778579
Ni 0.6003943131525084 9.111630602669997 4.823378219844876 -0.9204004243533309 0.21331620176177457 -0.14985803330712902
Ni 8.629179006943568 2.280222232388061 1.3676285878199048 0.6565656450167144 0.7549813033831514 0.5943089530693377
Ni 6.843586071357898 0.5265596109977614 4.891250486730466 -1.2452850198134164 -0.6326045062154265 0.297328797329004
Ni 0.6521781907898693 7.443240082144773 2.3101335401317016 0.1775948371007651 -0.3831486213083014 0.8798628692506006
Ni 7.4593830391349405 3.838149453982256 4.07059348324282 0.9875021030978348 -0.9495893872124612 -1.3916874904717773
Ni 7.7049833509768995 3.9481125486121806 12.66316572050688 0.612006627459417 -0.940483311146135 0.05403481825821661
Ni 8.19451965853169 9.018528940299097 7.1262969950299295 -1.424216059227102 -0.11815607421815781 -0.8555852276501589
Ni 6.997794510076368 0.7959851084324764 0.3982899484098035 -0.9941844002140168 -0.9207632070093885 -0.03933582148514516
Ni 1.800071576446709 6.620631372420456 9.341816436876668 0.6916411485636089 -0.4059864451384234 -1.1844794584902696
Ni 0.24877524496041936 4.784208585218987 1.160297542861848 -0.8694236761951477 -0.277219942394271 0.307218031418258
Ni 6.348065501437175 1.864152294729932 6.998778548355993 1.2773099094594453 0.9921601706951365 1.243933905102161
Ni 3.348058374384423 4.512888677676637 0.43798434282066867 0.45736711360324456 0.18490756871209443 -0.49430795249365195
Ni 6.323519112188464 5.652726955160975 4.659654076394682 -1.7825270526664334 0.5884486376338188 1.3203985131188034
Ni 5.157652021799417 2.9007484044664484 9.726648161199682 0.25531825722517315 -0.6643753708691204 -1.2801090694711372
P 0.31418741614694423 5.491961292786218 12.34212004866062 -0.07716934739315097 0.43178515136908213 0.2674852316050103
P 3.9225111830193233 6.436656230474484 12.613622758138463 0.5444259521959657 -1.5780505606834758 -0.04265151612193945
P 2.319210884003187 8.464066114461035 1.340740332979662 0.8919467969983285 0.45952066961113763 0.7045192900778575
P 6.235092086376971 7.748582976785837 5.9784318027064245 1.305955598220596 0.2836664693505631 -0.9686590022494027
P 4.900637957268636 1.248755490393773 12.718059959434742 0.30004722470143164 -0.4024357516726876 0.5908089103358792
P 3.8415963163480433 6.22816198315077 8.33794823983019 0.6061278000811368 0.48769918892788267 -0.3202039021549647
P 4.709960077687872 0.8829870067170063 3.8662845817257954 0.802043804088593 -0.3388408005298616 -0.10858591403121945
P 0.17114808474094004 5.417931056222857 3.656291540423501 0.18351531635025814 1.5742628115062693 -0.3332262825565616
Ni 1.3582820430881892 0.9131365936004454 2.57756276767383 -0.6107125912383418 0.6345927402900491 0.2948345701522406
Ni 1.6302658581574585 6.717734669200186 4.743379181775799 0.49645122408889986 -0.25691079852327364 0.06682939891972361
Ni 5.841467679902917 5.498855017517794 9.339433645478683 -0.17163013487689796 0.6479529636470389 -0.24812739590368882
Ni 8.67801713597861 2.446644750677119 10.251643496928537 0.9716368539308039 -0.023618667860204487 0.1044325539844782
Ni 2.6413060754193993 5.386909294930766 6.773052717590437 -1.6735467314102725 -0.479460088847542 0.5716361940621704
Ni 0.5902183387433261 9.245412516656119 9.273132020098558 0.13243495273467515 -0.23287458350967638 0.6506364240164729
Ni 1.596251965682401 1.4033549979294684 11.667164372923216 -0.25167243294246977 -2.4782282302320287 -1.8838084626164397
Ni 3.955179071193229 6.808371688560192 1.6026855024569613 1.223549685018854 -0.43410274375866525 -0.5955803635825936
Ni 5.4859315573020035 7.896925383245907 8.039970171426104 -0.40645155770030006 0.13412211062911095 0.7881395353026749
Ni 5.106167357280352 2.8602045722060727 5.028512003727538 -0.024355031805596762 -0.10180514366396014 -0.4173460931256167
Ni 0.8650760548880281 7.606715942369147 6.9855213154520115 0.4968901113985314 -1.230987115133506 0.03758592867357398
Ni 4.901074499204144 4.3751778862709365 7.28557568643686 1.374507379148065 1.0323434277822414 -0.16243715552372026
Ni 8.481664211236232 7.193338013313322 8.9407990108323 -1.0240652469338494 0.8525736945173447 1.8325460648970373
Ni 4.631809976608149 0.5768810731511679 10.669405944049128 -0.10012184242426628 -0.27635990838682084 -0.6291435442500197
Ni 8.197766439177038 7.163116578902997 4.7272198544630495 0.013611420135847525 0.42274849508811063 0.5215385060748308
Ni 7.239184011165398 6.262039456270981 7.217316898045872 -0.058455573033731584 -0.8894001193170746 -1.2318985712041817
Ni 2.1859564581891386 5.299437204603199 2.426071802503903 0.25821074828161983 -0.05750914996006225 1.5111661401561007
Ni 2.494837161432555 5.2652232304077 11.229142742145555 -0.6677710268142306 0.6403833788298972 2.4734891728851465
Ni 0.8360823946713214 3.4064549528823758 3.6989262266624907 0.7063342317994094 -1.4286897787277397 -0.2509702646691226
Ni 3.408310256108288 2.287234187227171 2.775535444889418 1.3541198166306485 0.7070106890411436 -0.5748852971270874
Ni 1.1517431398506077 3.4820676539619555 8.289563023053237 -0.003272500103684686 0.6835676275268551 0.7258687022879111
Ni 3.4268905722383796 2.7409922453175555 7.118270989653128 0.5438034881206183 -0.6985823557681323 0.10321796485108675
Ni 4.185327617442908 6.994656864914898 5.767360139038478 -0.2356279778850974 0.6157547816479395 0.32293698481541155
Ni 0.9701507893026207 7.49204183268519 11.355223328819411 -0.12650521751380148 0.14983052250330325 0.6311847430497646
P 0.269073535499211 5.517753645475861 7.985568861100423 1.029447080071053 1.5296053206978948 -0.9230525172641975
P 8.505237475753706 1.7490234538631537 8.163615217884766 -0.5170599014781869 0.3283435005429636 -0.18972427337444744
P 1.7642296646167086 3.226090376528007 10.46416484360732 0.5211883218242638 0.5207900579445804 -0.5570971199057309
P 4.199260580884563 5.97315783044806 3.8436025903266526 -0.3800021052595197 0.24548635873641594 -1.2582271817963815
P 7.005834157388653 3.882185621726702 10.28875410875861 0.2040568879470357 0.5485931961997778 0.6354255206039895
P 6.404115667031769 7.50728442193337 10.158640056493129 0.7631458414718147 1.1758212685946396 0.0485236586320003
P 2.4322388668053296 8.772846776844231 5.837788904633891 0.5248336318863348 -1.0187320076463937 0.4164732036023602
P 7.073070710080659 3.924693892696867 1.729178985044818 -0.22897884799969598 0.3628219939358074 -0.6788751071471921
Ni 5.260266660514945 3.129378148565504 0.47273126196243453 0.5170539879409161 -0.9663663495604842 -0.09682311706833648
Ni 1.3408476495388082 1.3603374280345426 7.262600848155981 0.16828512966406503 -1.4646248020614518 -1.600318885163373
Ni 7.06123860470364 0.5056101454051692 9.39825494290139 -0.8995909438071475 -0.25135875835679294 -0.7224781885491235
Ni 2.8021808732780333 1.6523930775135585 9.189246849341089 0.3222008779803354 -0.017242589130531595 0.9693226039753307
Ni 6.4186034025164656 1.9457310689281315 2.727590407897437 -0.31114050640111574 -0.2571116016801701 -0.2084871558042474
Ni 4.180807589485662 7.28427515525399 10.50063701285671 -0.38468048457179554 -0.905220631289099 -0.47479379372012426
Ni 8.408006854242785 7.116161036964836 0.1854239154944421 -0.8360026775325409 0.16044120813961402 0.06346176799907136
Ni 7.8349546176509755 4.0381311335635495 8.139256177883379 -1.0957923402655063 -1.2893491000121666 -0.1636100927858989
Ni 3.3721045593320302 8.55491231016514 12.723916897069483 0.0028793784303240734 -0.6555364324212517 -1.449463520939981
Ni 0.07208671548798068 4.990929380929697 10.20066267456004 -0.014891058179219518 -0.6011663423108033 -0.020813594311241572
Ni 8.418356535963806 2.2849423420657495 5.730196778391197 0.8428713796279163 0.4308994063300192 1.6976299976117213
Ni 3.660576927090412 2.79311353349257 11.613015893135183 0.08532642928264661 0.4066212505089449 0.289876711926333
Ni 1.38349233986382 3.374878419547242 12.64884350717273 -1.1653954452756252 1.6617682507181057 1.4046561348173034
Ni 2.910952572208966 8.412335895103247 8.162138251002963 1.0325210910106863 0.2601033373186424 -0.658520197639924
Ni 5.768356000328858 7.634845613338492 3.4338397741742597 -1.3099750037926343 1.054600696518545 0.9955146889896662
Ni 3.0969467206066663 8.11544190583901 3.3841631208380942 0.28192557540005636 0.9271179455828227 1.2028885571250767
Ni 3.4554931636378594 4.388610645411487 9.423505256021109 -0.17705182011310155 -0.39424113167703717 -1.459994502378292
Ni 7.272897781059792 6.05674651647433 11.504065939580583 0.8665622954869526 -0.09175315874459682 -0.5125694698070011
Ni 0.5935860778833031 0.15055876624514256 0.27581628947809006 -0.45459803549853967 -1.0894247461762658 0.2046047900307057
Ni 4.715389568010762 0.25640017743397236 1.4590741192229677 0.41126054905316917 -0.4403317553875126 0.7903601971030775
Ni 6.126365860564321 5.528676288487235 0.48468068798462116 -0.4050683041995281 0.868820238283194 0.2716817861848611
Ni 8.03233523486653 8.732930473616149 11.424719895490039 -0.0008813741636888046 0.2080557246937836 0.43525794040903104
Ni 9.283791828486262 4.686641462632779 5.81040772119147 -0.6832644944641394 1.0615329048620041 0.7050309396069535
Ni 7.82602369722036 8.839755923084605 2.735789211123711 0.4049742018238251 0.22417834128725908 -0.6873916292586355
P 8.379931751015379 1.6133953312747762 3.761900129246726 0.9013241244481702 -0.18959674665764767 -1.6391250593972932
P 1.8885986431184227 3.1156725507152605 1.5914509138541704 -1.221357819573858 0.8222696442171645 -0.3801957093275646
P 4.9184270411406175 1.0607696194153138 8.43583640263147 -0.40367836583053707 0.1324300676386687 -0.04819121499324604
P 8.624968196190638 1.6110489183714165 12.490430623937891 -0.6246196882377372 0.8646128850700657 -0.7913282174433016
P 6.371793374556807 7.675798703663408 1.3876476734124439 0.18176259532520955 0.6928446819534068 -1.4303494258183496
P 1.6632156796647135 3.2176596603984944 6.1434064569093785 0.3726968298473582 -0.16803110467172996 -2.002487756327919
P 6.725837978878067 3.9196099980729215 6.1398531874468105 0.072954537980855 0.6376510675003986 0.11012523349388131
P 2.478466838850976 8.833953553191801 10.341664810267002 -0.06141234166921036 -0.3887415420150466 0.5272846645299887
