# total energy = -340890.17944589205 ev
CRYSTAL
PRIMVEC
9.07804885761799 0.00000000000000 0.00000000000000
0.00000000000000 9.07804885761799 0.00000000000000
0.00000000000000 0.00000000000000 13.28664212636351
PRIMCOORD
 96 1
Ni 6.2753555376485135 2.2037326506058115 11.44706636024049 -0.4859865771121501 -0.10477451070492924 1.039079203844178
Ni 4.56280887172814 0.6026235723359461 6.113104479824492 0.34736966393647917 -0.5319211348607354 -0.475395174749549
Ni 2.634195567082682 1.6652772659858541 4.669430554507271 0.8726226427484197 -0.5375420805919388 0.3371076198888388
Ni 3.1435558054014803 4.25810416483316 4.848933536209834 1.3006496126266502 -0.2828298323818806 0.5395822509504191
Ni 5.0863671783199536 4.556308988810315 2.8363264931441434 0.3835612833656878 0.2073211605206042 0.966798037781264
Ni 7.304279741101244 6.089664050100866 2.8152663278074637 0.852118609257797 -1.1580893985325151 -1.8259784389818488
Ni 5.336140612120295 4.7951706079916265 11.57213373031114 0.2552822617809152 0.5357276530910192 0.7369864094676275
Ni 5.444296485141203 8.13096317410242 12.050904575501582 -0.16868442198501274 0.5810166068358058 1.1893527274221711
Ni 1.942775060723401 6.314300366862859 0.330362903932608 0.14944562836005876 0.5968435465657335 0.42984165448946615
Ni 2.6047463768795747 1.2934585445496973 0.12544592470427454 0.05616831966145166 0.44388527706672587 1.1282059807095215
Ni 0.6364901410695202 0.03425964824522468 4.837427109396505 0.14692903258579212 0.618185245466303 -0.2754361110209708
Ni 8.501792388222874 2.285226294395361 1.3076257474569013 1.4413568326724466 0.34663278577045464 -0.14633459353490283
Ni 6.866027858781504 0.7102284077966423 4.871135720081517 -0.4979247233106327 0.054800235669331426 -1.3811307980018537
Ni 1.0308396717427588 7.155835487648339 2.577475918380766 -0.346953402334667 0.27174606376389326 0.2091949805045494
Ni 7.33369261910928 3.662057638829566 3.8899566063187465 1.504428307211635 0.24117359029367497 0.5377976482461706
Ni 7.691821643003425 4.204280413688207 12.954967480590689 -0.32011057111021 -0.47739806411219077 -0.4998998447591326
Ni 7.9218775548798614 8.834094363372309 6.867280629511476 1.0663148996316796 -0.12481600273683664 0.6885627667486012
Ni 6.842769897838112 0.6136361532963007 0.11566432715684892 -1.0148879513099553 -0.5152912396135383 0.9055001102027309
Ni 1.8001226023844252 6.592306532331408 9.283124612994191 0.6681114408727848 1.2337541363556817 -0.6389877840339511
Ni 0.5095563241721849 4.714503066639956 1.3760306605328751 -1.2927434704056961 -0.5080605261930541 0.1564068901692403
Ni 6.571154678702173 1.7678501390144965 7.1809517251745225 -1.0313872345165591 0.927996234422718 -0.863511681586087
Ni 3.298835829576622 4.35029175007131 0.6323714303435183 0.5381141510453249 -0.9353747862749763 -0.5251419071553729
Ni 6.065107928183663 5.6826497335915125 4.819875609908623 -0.08351200178172714 -0.2484073890379528 1.0217170584166468
Ni 5.467844943645169 2.969320815398937 9.227213818437496 0.24028861658556036 0.6601669892147276 -0.8515156855664754
P 0.1996753138697408 5.495823489947874 12.28144071615784 0.3466703238766094 0.2528800800973258 0.3388325729997455
P 3.971201511572055 6.120783601277269 12.818048717853529 -0.22370757229842764 0.5989827043959233 -1.5128738668758268
P 2.3808272259702465 8.376896593273935 1.2970543596666675 -0.6690002712356413 0.36008685439283145 -0.38418708987514477
P 6.309026020528702 7.900598608567874 5.800881332939927 -0.365248601099429 -1.2189733785020813 -0.2542885304090782
P 4.656076744769672 1.2089419105204329 12.573467927948432 -0.2108363727627143 -1.1621658825947339 -0.08220151050041972
P 4.073511121186429 6.479230356878292 8.205311485706746 -0.1912841616623996 -1.0967187087345176 0.8209753508857732
P 4.689665525210948 0.9034537680167815 3.483996251271348 0.6384468239288166 0.63858540638921 1.0504087699243845
P 0.15322929295847051 5.547341416705777 3.929205550166816 -0.5167230869640584 0.04697919696301586 -1.4994928175832305
Ni 1.4448077736083331 0.926042676765978 2.608141567118774 0.5848547496349734 0.49372379785540776 -1.0067213563387631
Ni 1.8793013437381574 6.468109747137599 4.874709747881445 0.05196970819907179 0.26559084279577483 -0.06668156048794967
Ni 5.958313762477941 5.900423045484963 9.443294982040609 0.8260260259358032 0.29550794207018144 -0.4889873116116869
Ni 8.287868169007018 2.3918116649794205 10.31600139888047 2.101139184854246 -0.4109124216851311 -0.7697008689815131
Ni 2.4803589526616387 5.29437250973913 7.323224721075 -0.1260532175780474 -0.6739252193410845 -1.1300486903452152
Ni 0.594422463079014 8.817290895102904 8.989702105107972 -0.6285858719743368 1.0872249103114697 0.16025120361599499
Ni 1.2849433348053954 1.1904680812777308 11.501103445531488 0.045712928656082556 -0.5596854494581974 -1.488779030710152
Ni 4.0022575164070835 6.895549673374754 1.7871464394755712 0.10797964790578825 -0.6418159975113656 -1.1269955053411882
Ni 5.595046562981157 8.048480022997168 8.010264161098887 0.4599197048217692 0.31713143387722803 -0.10623643996243638
Ni 5.243553592736356 2.7095796840514272 4.741471226114793 -0.5965116171476114 0.011941745742908466 0.2824691066083522
Ni 0.996842379106927 7.60764997482734 6.841065948084374 -0.47878028917169796 -0.8529035670529376 0.6171539759883112
Ni 5.400558446177401 4.785084895810476 7.219283786097034 -0.5183459672794621 0.001270639182307489 0.4143101345127703
Ni 8.330988900654603 6.936682312342166 9.483021431253869 -0.31787216869799445 -0.030543162894179656 0.037572301826819164
Ni 4.389917432943248 0.40730844528943366 10.330497227153073 0.8806288008823479 -0.024207193373822825 0.4549664745815519
Ni 8.193220432552764 7.512875145690335 4.490061020121597 -0.6813667632207943 -1.0688986011984558 0.7914418602030305
Ni 7.54033624321327 6.220487810895252 6.868822082192267 0.053208465702179325 0.4566387200776522 0.5381671157704473
Ni 2.4172665137246474 4.987834036993031 2.726591947442495 -0.8187824569995124 0.07085754624251021 -0.030056195955432106
Ni 2.1574890701820655 5.531627314288522 11.257931568795172 0.546586193072078 -1.937039039805806 1.1271608272744587
Ni 0.8969838426598904 3.319542858816231 3.990377073984517 -0.22527440256491524 0.23830243939346704 -1.5553963136190696
Ni 3.768697477706233 2.767824444946353 2.5469564262279207 -0.7534005891595928 -1.6517190940122197 -0.07801729721574305
Ni 1.0703291838831779 3.2757866637548925 8.27135973732257 0.5094916022126259 0.027375563799475436 -0.7265094211957036
Ni 3.753464511873676 2.907780722801259 6.916428277736077 -0.31381882456422727 -0.33261153179069813 0.5716919870007703
Ni 4.123921525994646 6.725390727269004 5.947313890785861 0.3104946452870007 1.1947836686297553 0.25631533103111986
Ni 0.7894634330527356 7.526819028597849 11.703366003300083 -0.05987996418508397 -0.05298863638188938 -0.7819197796452082
P 0.3812135941060694 5.63721409950811 7.990918839174466 -0.9924306507477036 -0.06285678742522077 -0.5467689985068453
P 8.591138544196669 1.643417324552721 8.018435312794885 -0.2121412076170669 -0.9106767693076638 1.4659910862813592
P 2.0512486654511863 3.397350814806008 10.32519564667261 -0.3635028220529159 0.034793453530101374 0.5928243981040113
P 3.8606762678227216 6.086577513519775 3.804404166925063 1.2576931636697823 0.6366653065483616 1.053384564723257
P 6.919452175780668 4.033840048070651 10.366264739298648 0.8615944099587163 1.4657985106545788 -0.09864602920968818
P 6.5538973079943705 8.085282432702284 10.145984978140376 -0.5714143078593514 -2.3346128354005016 0.5635655012388939
P 2.591955406165586 8.689372109914249 5.699623869177755 -0.3431309432647833 -0.4702431982349644 0.19733422451122143
P 6.959250341579196 3.7673266923422783 1.813333886756368 -0.07834999796481346 1.6450136569675864 -1.350573751150603
Ni 5.51432455333688 2.8817993472274934 0.42281193697527447 -0.7853632581091184 -0.1693138280388955 0.16058518991664603
Ni 1.360636105432249 1.0489140668396724 6.994606618115585 0.6939757102340564 1.1452878758924727 -0.12699655532792323
Ni 6.672520171244683 0.8920553699837905 9.396419569422614 0.823908208261852 0.002222975793247784 -0.7491359003459679
Ni 2.5684704940029968 1.5362418807987468 9.291774177860257 0.15050980795851499 1.1251687365450944 -1.0131511711245067
Ni 6.522223995843125 1.7444378512420504 2.4641137843914596 -1.1142379485652036 -0.773775553271519 0.7691406256026688
Ni 3.9680877408446618 6.897946278249483 10.46748225964624 0.4963517223965581 0.2280115989904202 -0.4434456184261459
Ni 8.66627755384868 6.883639273391253 0.6349713835106485 -0.5250812291207667 0.19935228338251473 0.3363010648271434
Ni 7.780269072149195 3.884932814130584 8.190338152068952 -0.9946317721640805 0.25692185426686726 -0.7783965969832981
Ni 3.026476210441714 8.151851764317387 12.28983791126816 -0.02089124162671241 0.6734850464798723 0.7814456682222671
Ni 0.07853419989121034 4.6639201789051485 10.007870636380478 0.2014654730707756 0.51265123088753 1.6080023698505599
Ni 8.559755729605996 2.2037961969471866 5.840714903128649 0.33168850575579645 0.42809381856042406 -0.5765395449010587
Ni 3.7562696289429613 3.068226156725343 11.781424513435855 -0.5999705222304894 -0.5224785013905969 -0.4042064704198651
Ni 1.2766732323778274 3.2988176734790864 12.569282947466423 -0.880339294666387 1.0235476838674824 0.09771169032087687
Ni 3.1200436590925875 8.588850875907154 7.844167641816777 0.23988701027176754 -0.48461077981054607 0.8113938778449252
Ni 5.691391894555013 7.677560028389035 3.47521414689327 0.07764782969146627 1.3688262696028877 0.024771550517725078
Ni 3.307287492979549 8.260879130020015 3.638852330569028 -0.8451786876048542 0.7465018051572304 0.30381569060492836
Ni 3.900846633620734 4.429052901181718 9.549521769698334 -2.1004259608373053 1.5509038250653548 -0.2891436904150504
Ni 7.262311921647184 6.714551537040117 11.944491687844112 0.5851434845199858 -1.092098436353687 -0.39148182376434515
Ni 0.3375472717275339 9.181810865329659 0.24974347623940818 0.4094132114317852 -0.3633218163903614 0.5534813775300146
Ni 4.429534037766418 0.22301770066667403 1.4015281761073108 0.9291894833998707 0.27145270089319057 -0.3056470873867123
Ni 5.526543606978491 5.23379469031085 0.717162221445574 1.7394286788150624 1.553539462915989 -0.7342646396610903
Ni 8.176698383795163 -0.08255123647101158 11.303557841902698 -0.8133011221699671 0.183299086574394 -0.7509349012279196
Ni 0.0911526876786086 4.6474072081963165 5.89772777280577 -0.7018767102486879 0.8431076640084384 0.957362346289661
Ni 8.001038140136057 8.85909530967914 2.3956480483887406 0.19624201988830717 -0.9881276524969758 -0.21827328865673376
P 8.660322353856929 1.5532723002873507 3.4955689478406824 -1.270612957055244 -0.23375312945988777 1.1535894537796327
P 1.8195677828452936 2.972243947102205 1.5375300559189136 -0.29215290955501944 -0.5087652655695625 0.11726210164897868
P 4.685689339850602 1.2735049933578257 8.313638026044492 -0.8537057512392588 -1.2858122905035017 -1.3137861500086083
P 8.35086982745633 1.7414330170998713 12.450832567142703 1.1563096809242732 1.402008155671495 -0.55332428312686
P 6.65678791272989 7.630753608941678 0.9353013787043719 -0.6300092346844247 -0.7260489366195173 0.21566824693371892
P 1.6773964610910173 3.2508311076919014 6.047853280890491 1.3220121374628264 -1.5713114421874295 1.0132586432366484
P 6.831349712488078 3.7297163362968173 6.039111119926991 -0.028420974344854282 0.4353579563220051 -0.08337804730702415
P 2.3870910796201064 8.672151051401519 10.159671044462879 -0.8035178175309581 -1.17170364688184 1.1757806451646913
