# total energy = -340860.17187545955 ev
CRYSTAL
PRIMVEC
9.40830085358623 0.00000000000000 0.00000000000000

0.00000000000000 9.40830085358623 0.00000000000000

0.00000000000000 0.00000000000000 13.76999930484446

PRIMCOORD
 96 1
Ni 4.1478375980165705 1.237266828861032 8.060186366458447 -0.8840712509049936 0.50533721372462 -1.3216208155616787
Ni 2.383442488842357 1.4031163563358795 6.133433150256738 -0.04389130206631151 0.6163826450399256 -0.7893808639089437
Ni 2.456977768326326 7.626340448294141 12.021002937585793 -0.8877227316146518 -0.7589778261370541 -0.43067674879625184
Ni 6.735506073521992 8.795961594006537 13.42291314975204 -0.12921284625295165 -0.09655212279513695 1.9717445616077913
Ni 4.468830006593088 7.844152021392065 13.527317064341807 -0.05016299400763619 -0.6656940896805438 1.044449467017156
Ni 3.7329597552063616 0.2571382706725132 11.814328911040214 -1.7063632637196613 1.4396352219956496 -0.1308292988104521
Ni 1.6204292894884795 4.057339152090739 1.7890392124342327 -0.25931195176559857 -0.042975475120261473 -0.24066888274311457
Ni 2.4312366571865947 3.8531790235336594 5.0585056118214915 0.0041500176126315624 -0.3256312438181231 0.924259135977789
Ni 1.394818234981624 9.00178699181498 13.48462972170175 -0.7313176412176244 1.0200286149706306 0.5712803533846483
Ni 6.239368736225725 8.452398671678479 2.6826716158807073 -0.03331378366078134 1.9652684669651443 0.48639409696321395
Ni 7.411332548851056 9.20561782984213 11.39395850219076 -0.8052823656305486 -0.09246689698216978 -2.189917320130919
Ni 2.5623131047007526 5.9161277437448225 -0.14060799711052566 -2.652227893782368 1.6366503726045554 2.4532522770129814
Ni 0.1595525517124858 5.326914086088407 8.732520480510075 -0.0508780177967898 -1.0032261987013107 -0.25537173617092795
Ni 0.3363015957280421 2.6002003322445018 6.331803410467549 0.010668021236807435 -3.880939839728451 0.35632841579166374
Ni 1.6572910122390159 2.090580899822782 11.650631061970941 -0.8285724465067407 -0.9725125716675379 1.8653587405516843
Ni 3.499135254052947 7.755309436416741 3.8765718227799413 0.6676586696060824 -0.564023671822235 0.5472621360931801
Ni 5.443708732904424 1.1502682708533216 5.530623557034524 -1.4170902468155981 -0.1239053179971092 0.7865127983325293
Ni 8.033249460280025 2.6026747153694103 1.9967321579624264 -0.9904563006301522 -0.5769092695356516 -0.8459446192366012
Ni 4.178884990838615 5.698636052875974 9.064033251102837 -0.25212803242264964 -0.021523475894072608 0.7739699286705122
Ni 8.855102173182104 6.86934856148757 4.275915620048187 0.9997639511843235 -1.3290245642249177 -0.06746703250372252
Ni 3.775852198805059 4.412389609762953 0.9180873998593044 1.614669240347774 0.35570080950999383 1.1010111654622845
Ni 7.352652976417392 1.9148620647508665 4.426999760160939 0.2274546980456857 0.31893789095834746 -0.6166256142886671
Ni 8.225940870094657 4.591598924452136 13.091262077136706 -0.2530639139733577 0.3909503767409073 -0.34453373714958085
Ni 5.339314226615515 2.6855806625051235 1.6907902082639161 0.5203357440159814 0.1946494785902067 0.37153854787319884
P 5.416377618920171 7.74550598692566 5.135879478054369 -1.936845178627445 -1.5655074339111426 -0.5977652870490543
P 8.492214600897537 5.602680792454147 1.950960774302049 1.256368788431404 -1.1186705304152604 1.6043812281582046
P 9.073384161322785 2.7597086649429685 8.444272722229872 -0.47578469687848385 0.8500766391271036 -0.5693422558216711
P 9.406325111985362 0.41139677149379766 11.406213754884696 1.1270196737109042 -0.5662394485266312 0.4580314866601209
P 7.5984542445594325 6.395941679057379 7.855701651521866 -0.09051157302801185 -1.3490475443140637 0.7933308496956273
P 5.483016613877304 1.1385737528903517 3.2952987710452857 0.6912639677298482 0.93593837208793 1.7708149064358278
P 1.7923565793157639 6.267687721799771 10.382772202049255 -0.2504218483648203 -0.3450785539094573 0.6259597472053994
P 7.6133664014148685 3.513050131017736 11.13662453886046 -3.0452840040123683 -0.2565377314545711 0.0001972036124706281
Ni 8.656013118785959 7.12382428301807 9.992448142810856 0.2202075295649691 0.42141409254740325 0.2301877807061326
Ni 3.5701302923060223 2.9342138292045683 3.1859093978323685 -0.7351532129136307 -0.6887787394141492 -1.046379079939701
Ni 5.161262132931518 3.7666696971704177 4.568720759262631 1.1894229185384741 -0.8361389460000891 2.977422821394021
Ni 3.5953257219961534 8.85691797524715 6.248123160171455 2.2065590424526578 -0.8280800802513544 -0.5550487220171344
Ni 7.085372557423012 8.716593167992366 5.830672147077359 1.1214856312665524 -0.13217424287412075 -0.5765115198766007
Ni 7.68335475147644 1.4257527281934066 6.836969894094519 -0.2853088900499925 1.1948219780668583 -0.12705183404589088
Ni 4.780865712755489 5.2866277418265915 6.79654148448979 0.022129742019503823 -1.675856353380056 -0.7263219877752458
Ni 0.2698987491223734 4.576282210659927 6.112502503344253 -0.6696505032251306 4.797082517246693 -0.6307841651772362
Ni 6.928413874256295 6.83402980007728 0.9913583060892436 -0.5819010663232882 0.5577581505284974 -3.0314941493171275
Ni 3.5121375258347856 5.2897701143122156 11.866200636975078 1.6022628962636212 -0.21880190746669415 -1.931245058831848
Ni 6.3132615311421905 2.322410841194902 8.877009401723356 0.2916546297623623 0.17089634203466697 0.13662148001219698
Ni 7.318689010330247 3.9255853069150084 7.19709707090818 0.6923456308298013 0.7601296803533103 0.6445511370543415
Ni 5.200786404824066 0.3192123580547205 9.797932463460407 1.3968263543602395 -1.0081285210989348 0.6263137881107085
Ni 1.8138075052655398 2.10926578532114 8.402866790166291 -0.4173502068906748 1.2711071230828432 -0.7421448137401154
Ni 6.132819729040981 7.319309958186688 9.730858805003765 0.21737494521218045 -0.12631572721081472 0.4253478803841707
Ni 2.3539945071656905 4.70396226156537 7.596688306488918 0.41685835485592077 -1.02476253011119 -0.5136691306290831
Ni 2.243813895850854 4.146962626037039 10.103282631035126 -1.5732598241630518 0.8010505869373882 -1.2288456433104709
Ni 2.1839771024120047 6.952075750907034 8.388615096030888 -0.6505333227797054 -2.461283374847574 -0.06072431446325025
Ni -0.30659958992828634 7.674906097308503 2.079104654439652 0.23372304755290071 -0.2848687171887804 -1.5825731311441775
Ni 7.694569446095797 8.53349822505 8.164907340787032 1.2295532109004566 -2.182859127732557 1.2393665974464527
Ni 0.11974226747394084 7.070309867753892 6.823392775130431 -0.2501886493080917 0.2651493843829821 -0.06337383627095537
Ni 4.782389857494025 0.467057220183039 1.4763646826437662 -1.5051258474992917 -1.5740185567059473 -1.8101648689883598
Ni 7.134926078027165 6.023250657281731 5.632163584843978 -1.280940050012865 0.2928959583686311 1.1015783508196642
Ni 8.63554065612512 7.3948021642485315 12.522671414954813 0.3088357695273391 0.004638270102959754 0.0403002422809435
P 6.147750702498128 0.24525276420218328 7.683080969921555 -3.5313227745186926 1.9175359367758718 0.35058894220472525
P 5.895909305207073 4.6663760996489865 13.269046975076416 -1.492299899379217 -0.22149488091782502 1.1773916984055528
P 5.255382774686589 0.9250617732832382 13.113900330654404 0.9860499440323405 0.5914784255990782 1.067863217955406
P 5.1607540846853395 8.079124335249809 11.606470379416969 1.561933343406639 -0.5588246441197988 -2.2458035897755773
P 2.2595633914824 8.808578125453312 7.804105588802056 -1.0347530656649988 3.536138450739781 -0.570831695883004
P 3.0054064417756012 1.723581900064508 10.155636061973778 3.8126009461427373 1.449941489017664 -0.7742270389866408
P 1.6388319259611823 2.0386753040048373 3.74006960816261 0.2957015461382262 0.2728835198024462 0.5876389972483299
P 8.021122160477718 0.6031426470724869 0.9442142513340975 0.4090720260422826 0.1269083664894911 -0.3429728204203642
Ni 1.6079821074570964 8.496015554443023 5.069714661460336 -0.32338949897179786 0.047272559833718586 0.4312575610003863
Ni 5.290503961778919 7.407465737199583 7.540162294121001 0.5389230200998654 0.775460911393742 -0.5080134750052026
Ni 0.8318433875801785 1.8185304722948326 1.692718909939225 -0.935920117255485 -0.4556475598089766 0.12297637842493658
Ni 6.314230586130272 4.795354496072442 9.493877818913441 0.8128524646683226 0.024972096564305383 0.40148624327522464
Ni 3.957771104140528 2.624671322768786 13.30747894323968 0.19628598575236517 -0.16464676158052932 -0.8066771890955462
Ni 1.528576048239504 9.214348733035722 2.5205157873215973 0.328088447109364 -0.9828445497211653 0.7586024450755064
Ni 3.6298165529311883 7.9701103532410125 10.054826118310684 -0.07734752484222808 -0.9686021808695383 -1.165024949310084
Ni 6.713236625397816 4.551237313783478 1.6144775983675022 -0.2026597504891929 -0.7850542115091318 -1.5529830761918866
Ni 0.12801969056631496 9.66100781613468 7.522165155415156 3.307622401309116 -0.5334625112059264 -1.550256678399659
Ni 9.590915974763698 3.701818279375766 11.03551164790983 0.2468017351137298 0.8241830591897934 -0.28274627152913884
Ni 8.471281131494795 0.9246017073714208 9.431058594103504 -0.3334134588667032 0.5986888273045883 1.231231369933828
Ni 3.425976306603185 0.49828525238150245 4.004205773011195 0.10779658536070467 2.503596533793488 -0.3159009039042366
Ni 6.24256755851648 6.171139738424068 11.942375885679008 0.48390166955866337 0.9835382333540802 -0.5363642582337538
Ni 6.736512761713496 2.740167624066791 13.519797950298358 -2.1535531796795877 -0.09263016203291144 -0.04316625097482889
Ni 2.8953010968676054 6.508756614611663 5.67279897706752 0.58981466474341 -0.6137238672608397 1.9392293625889052
Ni 4.396847096750221 6.831056777007048 2.1537933916084646 1.0883227713613388 -1.338454599289566 -1.9272621629247002
Ni 4.27188604479192 3.5277270803517933 10.385857183899663 1.3338173576278707 0.11989799660992898 -0.8375877626314735
Ni 1.9548473433853175 6.327317532619807 2.3736032878080255 -0.3101804564806916 1.049497828074341 0.23041429489464188
Ni 8.415809789652743 0.30072504687432133 2.9712900612146016 0.1995253186252693 0.5729564555354907 0.8068965041952039
Ni 6.739862116817934 6.400401213662728 3.1250188746977408 -0.5012951824447625 -1.6497493718803589 2.834921999782911
Ni 5.6008649903891 2.0527783469867296 11.2685270351897 2.3497779731767143 -0.4624576407522745 1.0621893074990805
Ni 8.595235495261592 1.8054623424070084 13.010776885811026 2.9765561025183507 -0.5484031916761587 -0.8828592328747635
Ni -0.2278681058820095 3.7384165697023573 3.6567609857502954 1.0395222049188677 0.23909973848378177 -0.041090342282406656
Ni 1.7033258283233381 0.2171266487956677 9.838939483567728 -1.601365324150016 -2.1414278571709637 0.36269755254280117
P 5.023073009970855 4.828866863718541 2.8752313094833677 -1.2707363700069856 1.0324889522211702 -1.274814139620785
P 3.017364392162516 8.3812154674083 1.2115849900166882 -1.2514538676282898 -0.42499795324391965 0.5748261617543778
P 1.3971420852928498 5.719832954702661 4.524022862729828 -0.715996951700154 -0.02322965995190193 -0.9956946662109561
P 0.24285929246462934 6.128228478223662 13.939232233212724 1.6779893405626585 0.4600091792117819 -0.32240219535786413
P 9.01754589574738 8.832992666172466 4.882552510058283 -0.4726965448714633 1.5484219391837655 0.5302388620623062
P 1.903534470521248 2.4166255659585234 0.0270874389921054 0.052070238332678064 0.6213109355794784 0.029059636370117693
P 7.528164828870495 3.978309424907353 5.030594005674474 -0.07596684244461756 0.015265410799502742 0.26659203036677953
P 3.9876330510548215 3.1438119556559325 6.943108699361978 -0.6559406098382058 0.5851154594955278 -0.6907152943152298
