# total energy = -340889.253224808 ev
CRYSTAL
PRIMVEC
9.10827961354777 0.00000000000000 0.00000000000000

0.00000000000000 9.10827961354777 0.00000000000000

0.00000000000000 0.00000000000000 13.33088789343992

PRIMCOORD
 96 1
Ni 6.68875620960514 2.0229124668125484 11.301100650490822 0.11275367225566388 0.3249696989747242 -0.08729255187008192
Ni 4.626960497165372 0.6971659374088957 6.044131383088868 0.11666714837745713 0.07531506779323158 0.24476362163777848
Ni 2.819804957599851 1.7966354766235126 4.683834416665368 1.0104615401074855 0.1376938871407693 -1.69517613675459
Ni 3.5306333144139534 4.586292028735874 4.59903633355705 -0.2068370217953341 0.0824604205887612 0.6584962863805239
Ni 3.8943269189805605 2.674573439322502 2.367498722426993 -0.5127306779752138 -0.47484315890082096 0.01132828052862565
Ni 5.359129553090408 4.453356687923211 2.6991311827893814 -0.13951988460591458 1.3494733189975725 -0.4827904387723556
Ni 5.190498864511742 4.82573959123153 11.399588477843157 0.13304944639022248 -0.21126420432875226 0.0015375196904489647
Ni 5.749747232164876 8.038257132214646 12.31406066085963 -0.08748229928338482 0.9075081417716951 1.0121314716107408
Ni 2.1356547517443154 6.567461250125714 0.4455979872449011 -0.49502374761375395 -0.6864079251891275 0.0057322744980869015
Ni 2.7983458508540724 1.615963642409057 0.20506927196031358 0.6641349727235402 -0.489411286522983 1.0140464292452662
Ni 8.229622086683577 0.035440315937106594 6.590644554200429 -0.6033957458619543 -0.13809369368234928 0.48534431554246094
Ni 8.890901402454796 2.2144504785939456 1.1345919761935623 0.3821386919865484 1.414608875154641 0.3101588592141368
Ni 6.752240918441335 1.1639834836460037 4.73981025979646 0.3319289039013767 -1.0146807203951558 -0.6675987629024244
Ni 0.887973465166094 7.563387866808069 2.5554781293673137 0.8312733903776717 -1.4641877145240332 0.7383238973321283
Ni 7.741208809506639 3.930268190295858 3.6192559641277686 0.15713811190831004 0.30328938578781317 0.24395038170786373
Ni 7.707061869273225 3.9935160838623616 12.473338967941451 1.5536577336614081 0.4761932451708122 0.16730682491119575
Ni 8.26019858131243 7.716525371781231 8.801425306942136 -1.026929970076154 -0.11881659062029214 0.02736733626935932
Ni 7.15502725906604 1.1024843797633659 0.10508859758097013 -1.3434818773008284 -1.9305020100182364 0.3324495522915371
Ni 2.1235316315920953 6.57406475283823 8.889689090439573 0.25840769478377434 0.5865244240279125 0.536540893020934
Ni 0.022651380545872627 5.038408811692979 1.386918646048526 0.19564500973425658 -0.910003140279407 0.6076730330810696
Ni 6.69793735544544 2.1467850694197574 6.9616694130198695 -1.2750033728134558 -0.5104891902392047 -0.30008064904252835
Ni 3.4330472067423625 4.329329244562743 0.4086211045386889 -0.09977242950464753 -0.28772649835254965 -0.12723978168698089
Ni 6.079476062090139 6.033661415684679 4.719694624292195 -0.27124315598554577 -0.10057975589729129 -0.01447865323214926
Ni 5.423188083541621 3.079427359417195 9.40811414890995 -1.0039440507039419 -0.29948878109480037 -0.9553720553325096
P 0.719375566394 5.429937318727793 12.635322434065507 -1.832974667794024 0.42581453560794413 -1.1898175828737314
P 4.202232310975905 6.1586087952850965 12.822007554474174 -0.5072853385899263 0.4870309592162644 -1.8946832005474143
P 2.3200609805961943 8.532353975864151 1.2632427822807522 0.8604461552868858 1.3916172993554743 0.25499944043317374
P 6.364747379270858 8.282960172041504 5.634685979246066 0.1356200353308761 -1.0422609440062696 0.3157875182548239
P 4.983859325147789 1.1883481315852893 12.711841091014268 -0.6689028264258285 0.2724605733324147 0.019795180349056227
P 4.266700714009275 6.421910942062243 7.810553785439707 -0.5781089462707076 0.8727452843692131 0.8313813767104455
P 4.678376735526967 0.9788394841462438 3.5983797872766123 0.8819642318643197 1.6587939985811304 0.8840206001727162
P 9.23023946736172 5.784540860250137 3.836135942249903 -0.9424350355558673 -1.0578387438398684 -1.6545331664222471
Ni 0.8211323552960204 0.18039767499839104 4.725279821345043 0.2931867501361725 -0.021894486080246165 0.17586474178353584
Ni 1.8178031184219798 6.4679988368558075 4.826088438340342 1.091345360237746 1.45981066850226 0.3696030214133828
Ni 6.101372366256883 5.768136848684285 9.354577503056666 0.565275284841149 0.16538672507034743 -0.9421211038598742
Ni 9.02224279433685 2.3489433352188014 9.848966722481443 -0.018563107714168033 -0.23606917918757406 1.4257345527541576
Ni 2.393018300219999 5.307339875265072 6.89050915696183 0.9276051696318863 0.07207059271400491 -9.178838285790644e-05
Ni 1.1791305526265763 9.072137950004667 8.757273832392269 -0.14749158995748146 -1.0813147154746217 -0.029610366667265135
Ni 1.8425047727065937 1.2168661550237576 11.384791166799358 -0.21608682252837622 -0.7152916981030132 -0.8899624195784479
Ni 4.342381409234517 6.706471813433891 1.552968048187569 0.5915799841739489 0.8752184285000539 0.24370509846627708
Ni 5.984321865072675 8.196449732367734 8.082890434755535 -1.5195139979001637 -0.5060833478620252 -1.3020598627106157
Ni 5.2757614698798365 3.090257103865723 4.594237181033981 0.281608815490586 -0.951380417674613 0.6932686568647028
Ni 0.6743496970022003 7.276158269512604 7.00155548023143 -0.2603103111231259 0.23018340983075838 -1.025348741631963
Ni 5.328106752760985 4.737034056173322 7.213703707099563 -0.43332987014838276 -0.9505563791114209 -0.3977635430079988
Ni 0.5727778061761303 7.379282211183106 10.53073511322067 0.9769513241651819 -0.7578856215141399 1.6211908435163755
Ni 4.800518765009517 0.6486151638105526 10.544811959347834 -0.7473279006029517 -0.9781967665365089 -0.49366774780649175
Ni 8.329293990384363 7.527883792913738 4.843298532651101 -0.47000485697191313 -0.7588222743957963 -0.85487586028796
Ni 7.313529540725646 6.262488724162686 6.979586309827858 -0.5963915466299793 0.8609374931010075 -0.16215844794103687
Ni 2.300341555254679 5.3792952841324935 2.6735095922648164 -0.1304703728091366 -0.22057648286861367 -0.7939489428956004
Ni 2.450272945807419 5.75996672187997 11.30967154159769 0.24766356889339286 -0.7641974226647806 0.2928195966047409
Ni 1.2147166010373387 3.341354155974218 3.6280008233750607 -0.6666731657643615 0.6138490799847944 0.6698384508662206
Ni 1.3785745511037861 1.0572799880913382 2.544640187467143 1.4305911095155104 -0.11034146326974544 -0.9457376175665388
Ni 0.9764622231697377 3.501095163659896 7.805181722129579 -0.2721116746334281 -0.051683801527536787 1.2486842753029528
Ni 3.6400784021292636 2.8937186465820197 6.889496316269924 2.7137729043747005 0.8592089404456751 1.274402248894347
Ni 4.188287534902991 7.372778899546227 5.621862432392338 -0.2855940253905791 -0.07742568637833118 0.7267156236692387
Ni 0.7533321435837012 8.781711346568382 13.033155692241845 0.04976935811364332 0.7941726288706322 -0.003351175860420035
P 9.176773866089343 5.6699131614404505 8.214026890346513 -0.07437507247746546 -0.4999121860543068 0.5015515214299427
P 9.015511775709886 1.4419955019827566 7.959873099603094 -0.9864307244105269 1.2776595794893804 -0.8408499783225132
P 2.1068543716381396 3.5530578987976997 10.170534533881996 -0.2905066322008481 -0.3419716328493594 0.5980357671016217
P 4.030841813677387 6.521282272536114 3.613190760739817 -0.06776528047043166 -1.0715275541808706 1.180217340779806
P 7.088218028174579 3.9483845584271617 10.345529177419607 1.0298846818291039 1.141591143767176 0.03163125375203585
P 6.4972637392217605 8.00441987348775 10.187437679170117 -0.8167224891466902 -0.11085131302662844 -0.6259034400461673
P 2.257295825848674 8.365508510087764 6.161523444758208 0.43102770437776733 0.9050563377970929 -1.1886595580098884
P 7.071185545316087 4.089025503784361 1.423658713485048 0.4578281124000631 -0.006365022986079361 0.24684930052221357
Ni 5.623488260301557 3.2269268393158086 0.09481354736029422 -0.7040048123352843 -0.8452841028344669 0.23495717707031794
Ni 1.920243939122221 1.465759003468213 6.739910129514155 -1.8065301004492498 -2.411936191873014 1.0595508414349688
Ni 6.959199247591408 0.9609872561234402 9.107342361500043 0.5924790989494506 0.33554233228424796 0.05314753055725686
Ni 2.6164626154523556 1.7449642064330202 9.105343094127083 1.5607012707717507 0.7379328325412968 -0.11570324180229105
Ni 6.46527546125437 1.6551292447039834 2.3598341051406724 0.9130915493967435 1.3906091698059342 0.32820029009687995
Ni 4.455314968037957 7.088755416671183 10.480184161421406 -0.9149417152316048 0.36773022987070214 -0.43256033897220986
Ni 8.430869524522274 7.0702929339149465 0.258860949642494 -0.016494398110597396 -0.19000735183250503 -0.012444396410939858
Ni 7.561721051640634 4.001203471847692 8.010504204262869 1.1341388012541886 0.6029825695839358 1.3973428889853419
Ni 3.219922572300739 8.327262844032788 12.51245174221468 0.6622279855088143 0.38718679593341704 -0.46086124279943214
Ni 0.23113443570156725 4.719154503311709 10.263023648287485 -0.42560267670745416 0.9818947842133865 0.5057753297033031
Ni 8.711404536309189 2.321062891352576 5.511828949814643 0.802203983815541 0.8950298067990263 0.393049168251465
Ni 3.816806351275416 2.8346514533535094 11.477201039172297 -0.29023229549353885 -0.011074255536290604 0.08783274064426809
Ni 1.1711152665755216 3.223219769517196 12.592849615446559 0.2451366887064811 1.1122862241554714 -0.29525931639448505
Ni 3.481840260578158 8.549313592485815 7.968498640387581 0.16744309337874388 0.014998273181045137 0.7215826733180476
Ni 6.045101414866638 8.272822656842841 3.224954896781657 -1.1083277537283558 -0.016110532408617418 1.4369381347794608
Ni 3.093454110006541 8.652692565985213 3.4947457819483163 -0.11831599683478979 -1.1062600725660496 0.10962541103932733
Ni 3.626625473154937 4.746870998145071 9.180876235222748 0.5657401402927095 -0.4463779615815925 0.08812276108086113
Ni 7.4181016988531 6.491835204578092 11.384631771906296 0.7833894222121992 -1.2207824066863622 -0.0045269413360760746
Ni 8.211451068874652 8.73179797434136 2.2576392079897247 -1.190150540733118 2.038917717020179 -0.4782472994863634
Ni 4.735248833371043 0.23034292620402558 1.5089495545199132 -1.2451749765981137 -0.18985925629041495 -1.9471136504329887
Ni 6.257779743607691 5.799523980197847 0.17758868156868052 0.00047513986420563324 -0.08398199943961021 0.20183365504347175
Ni 8.09274286080261 8.9974409489766 11.143302438844563 0.6479709613691679 0.09278468533290472 0.39056008328102415
Ni -0.0552326075154496 4.987411554193144 6.0010592396720135 0.3483808788098129 -1.0243012742040554 -1.0663102716459893
Ni 7.1387325468554295 6.30524298862138 2.5205105331416275 1.1859827825086737 -0.8093285106754642 -0.18873568420893302
P 8.67139186401114 1.7928099991900548 3.3152316100714625 -1.9174752587412653 -0.886677578179589 1.1265275645658341
P 1.8842115850108885 3.2724500207739577 1.5769638108029138 -0.05273718249271562 -0.0983341543962242 -0.8170803867067412
P 4.822888699715643 1.247579273846663 8.301557457335871 0.23937201830856197 0.36144593952388715 -0.9680511934620748
P 8.843274208408245 1.5890668927400067 12.21878532372344 0.5941261476345704 0.4902052431791881 -0.09078848083848236
P 6.463144123827158 7.917144338327289 1.0694076623833602 0.925898985574057 -0.16282102122570022 0.4119269789925744
P 1.9537532997833915 3.4852285405906493 5.846274046918584 -1.4739141977831776 0.37508152802945083 -1.6849305477671819
P 6.819378047398521 4.14262772925079 5.806174845964301 1.1251257991223012 -0.23532972991838827 -0.48126191794297113
P 2.5922254834275185 8.348220995400375 10.339356496332334 -0.34861896296254796 0.4811354196674359 0.058828125881801904
