# total energy = -340865.2902847909 ev
CRYSTAL
PRIMVEC
9.33065617324113 0.00000000000000 0.00000000000000
0.00000000000000 9.33065617324113 0.00000000000000
0.00000000000000 0.00000000000000 13.65635846671697
PRIMCOORD
 96 1
Ni 1.1819982057432232 1.3129446358492423 11.037314479574741 0.8459140231089818 0.42491053573643595 1.5291186108694632
Ni 3.4024144785328314 5.168558420116679 4.950784635016035 -1.14644230121189 -0.9232672043781647 -1.6079805154736888
Ni 3.3823535675503646 7.051223597211711 10.262425869850311 1.437502491923363 -1.1248365500166564 -0.49839394963756745
Ni 5.9374604807776885 7.630731996885691 10.38511466915657 0.008794972583810658 -0.17879399961518885 0.15987427989255046
Ni 1.3473654268326472 8.144879149381913 10.185608442903124 0.4276749858554505 0.3358686052754151 0.8337475629497769
Ni 8.823731046372323 8.22593456040735 8.861174036921877 -0.7493464736948773 -0.547819808368863 -0.4726276393067409
Ni 0.7064071910896761 4.148428439361287 5.7381968515872845 -1.6261826403040123 -1.3989459718064037 -0.639507403982847
Ni 4.343093921141383 8.576617945693414 1.2192163274766483 -1.2650748008458341 -0.773237678490178 -0.27485838414062985
Ni 1.0158378788707714 8.288132715109269 5.369953171199359 -0.07656153860582297 -2.2943951255310355 -0.9475065365415035
Ni 1.1204345356677268 1.5594699051830836 1.2764897617987778 -0.1930955038395255 -0.6616132347429509 1.0197848743909406
Ni 3.5991980192864257 0.15183870256222454 9.878682103265142 -0.5760536064035756 -0.3736689639526403 -1.4353715616232894
Ni 5.358101371604043 5.891133772392596 1.601372016364508 -0.7534738655996894 0.9661305794005941 -1.0034447424700204
Ni 2.8070999471359217 1.7835176235602912 3.5628485816518225 0.5003289618767511 -0.5951638448704654 -1.277792762633135
Ni 0.6774084444652999 3.7694078509804543 0.45510369267949924 2.960330641798424 -1.1771749544090564 1.7510948022990809
Ni 2.8699139251517205 3.404000690098887 1.7271334007807797 2.012229151985399 -0.10276647913596494 -1.1512613198670882
Ni 3.2025144985847516 4.167295026341077 10.293930830749055 -0.5606722388514989 -0.21369363970585134 0.8210208594117279
Ni 2.811811928552734 3.0589810131692685 5.666064347153723 0.9497361972029709 -0.9042238145934685 0.18565293151855122
Ni 4.539672187457017 7.0036839035114005 12.50923856923034 0.47836659867304715 -0.6173738053086012 0.3213087051833692
Ni 5.95726013338457 3.2202520761557607 11.53178421106123 -1.3512404382003245 0.7868514126188707 -0.4987281930485346
Ni 6.199157397208038 5.040299219016683 13.018210939758712 0.7950182647003792 0.8330752194731008 0.2414957495197841
Ni 8.048885357666741 0.8187398950008472 13.495117576946456 -0.48298738527451013 0.4459863825701287 -0.31319610337856385
Ni 8.326640333539334 5.063737827569222 1.3716307315307883 -0.9476872850937421 -0.05916108374118844 0.38912875015113624
Ni 1.517873839527345 5.9477708559570495 11.400451491785594 1.240202720194503 -2.1390452158714 -0.39751903109736053
Ni 2.7038935581233323 1.937734710405972 13.164948572537625 -0.06639179716167276 0.3895339560093549 -1.5082086001896735
P 4.4321830272160785 3.4774516162635285 3.7861843709555596 -1.6066358285203364 0.5680947565678152 0.0171212330613189
P 1.327771048663726 3.4213650414190595 11.980204354653873 0.5762500386850979 -0.006256008212040838 -0.4716439352372329
P 1.4708380012656632 0.25607239683024147 8.321707215568901 2.6647432526405592 -1.6909752112993652 -0.7781155754077695
P 3.203223628461341 6.690715030872375 0.4964618266003293 -0.6549659046297623 -0.791848608723146 0.5821504633299329
P 1.2247606034328258 8.960247878272078 12.511751314964096 -0.8563691570040347 0.3724608025771521 -0.07295762330464854
P 7.467296221644347 0.6444488342539202 9.77158856285009 -1.0040926604666642 -0.5762073583726206 0.9214887723215033
P 1.5820221013898847 5.830699111725881 9.235003048153573 0.18256786483532428 1.238133753480616 0.5131621090856776
P 4.76345864745864 9.063398283347043 6.960031361213552 0.44901437076317513 -1.7096005397100364 -0.9685098782660481
Ni 8.363655046966054 2.4344801889569365 4.466039313495093 -0.8630008033879395 -0.0414963194715737 -2.10366657926179
Ni 1.8004061114106469 8.300635794512294 1.3003118603240507 -0.4117516297569747 0.6248801409879754 -1.6305679138559015
Ni 4.984632523704405 1.7069222662323509 4.804579782710189 -0.07903262585413486 0.799408680458591 -0.16409474573180124
Ni 6.181457142262112 1.6580202967164863 6.716347276714204 0.801751983879787 0.25523855302717335 0.9549434524355233
Ni 1.015847209527042 1.7501605273917704 5.250528235456667 0.03458519417403721 -1.54643524777104 -0.08300112358357964
Ni 8.522565453916004 6.178853889162527 5.369352276935512 -0.13436533698816858 -0.05429655656003553 0.46072291744935495
Ni 4.9480190284973355 9.123599677606984 11.780357559446536 -0.23705699702214011 0.3289459100136528 0.1467120314789796
Ni 0.9112085647768675 3.7203285989954424 9.625834381242129 -1.3972768116340968 0.840659716688578 3.890129990868152
Ni 7.041249125658103 3.9202285789435223 5.6640433270054436 1.7879222555400756 0.31277958466643546 -0.26513652886717565
Ni 3.5715326234431632 7.191995208371004 5.766848497798384 0.41388847359431946 1.8246388942348188 -0.25945387666010156
Ni 7.0600410673877265 6.416850938664752 3.3587134168223747 -1.1339099730728341 1.8157565041435244 -0.26642336599939925
Ni 5.598897617987543 5.827134801030391 5.176415765762416 0.13567608537979214 0.8341926209069955 -0.3868777493334305
Ni 8.302865821361042 0.3376820488381712 2.1455778780374817 0.0495191897760502 0.19946181237718552 -0.39361789627074145
Ni 2.829194941185448 0.14560769030450763 5.219869565081694 1.723193705013439 1.413141546580495 1.362122889440783
Ni 8.615526782343128 6.244616354559935 10.876333599998272 0.29102805192195685 1.3204887588397647 0.43796865447197475
Ni 2.617510342367203 8.125294101869262 3.4133108189260057 -0.03410799742730255 -0.9035995507459083 -0.053668436057733374
Ni 6.599731801574683 9.067988966232331 8.09324982903806 -0.008801143231397747 -1.3478427253726852 -0.3365059817490979
Ni 6.283702473678797 4.216094358637961 3.025825459176199 0.7372304071576335 -0.7920057031263005 1.8965197395355207
Ni 7.10342861904748 3.6674144472830843 8.307995816178792 1.3446627849828068 -0.6018006334606926 -1.0107975832906657
Ni 0.04928452642297227 1.2528552094645504 9.127664111478595 -2.7313263398774312 2.5809725978808067 0.01495584997888392
Ni 9.102195152121507 5.193536586953918 8.027658114650409 0.5238247310058463 0.5107640411671462 -0.458859638988371
Ni 1.2762844873608177 3.5675764251842956 3.1780261912017354 -2.1878696935732704 -0.08707580787358551 0.8885033185344183
Ni 8.050350270701275 2.681705257511097 1.8437992614641636 0.6719097315729525 0.645233764943663 -0.4852455851810675
Ni 8.685432059124823 4.291504722619496 12.564710253826554 -2.179278866580466 1.1406807161377646 -2.479828999060245
P 8.010107150204819 7.425457558925564 7.00299436801298 0.007520476746761242 0.7325358298954416 0.799608455174223
P 1.4792542532220287 6.012189706851446 5.84257237183062 1.13305353860981 2.6929927344045557 0.23412131143258388
P 7.656008744723599 6.570788105822306 0.003965528915138814 0.9129174857127245 -0.11555257515703969 0.0187903932336257
P 4.621800623953611 7.131560547704288 3.202238311159132 -0.061706732981177605 -1.9347173336511647 0.061709046974022755
P 6.966156003989781 0.7394358481574606 3.827303640075854 -1.0164714937469914 0.033667567455774275 0.355765087089026
P 3.7604690822729183 1.255841019471243 1.2627438389804662 -0.7071382157579436 1.182548302905828 0.8148959774609127
P 6.481941596810654 5.446630638302484 7.1344502519513915 -1.338840778984391 -0.059215334017891565 -0.3345164621228949
P 7.6623629216440925 4.538048653265879 10.227492825837633 0.09173284702962266 -1.7490062952011687 0.42100245893128135
Ni 5.5138206941093415 3.5982462923467926 1.1055586703750073 -1.5783619212763076 0.028256937963164242 -1.3971744817282776
Ni 5.08208189779784 4.69655784199618 9.015764350018395 -0.11077212304926083 -0.08411363992146804 -0.14718305757812716
Ni 4.617844425694742 6.865216964451024 7.950718456106072 0.742453860340102 0.6405312172616711 0.03288286677094982
Ni 2.04235935917174 7.681975961125556 7.529514903790061 -0.2772415396608257 -0.9260229127464311 0.9410065306394568
Ni 5.896293625310412 1.5895146183754294 1.9960270523928854 -0.173879593032707 -2.1360156850164564 1.053820880929727
Ni 4.948233633591567 3.7857738220796393 6.3643818592565164 0.11395489165261664 0.6934257512678573 -0.16582921192440472
Ni 0.6206379325161726 6.93024230800303 13.146553183699517 -1.318509780736523 0.8217335692080363 0.9998878783566972
Ni 8.007457243823879 2.332346825415503 11.057580664995168 1.4528198390067237 -0.14683493021008906 -0.22007537486247908
Ni 5.200012062405933 1.570060200050572 13.23094896966994 0.2120566183230606 0.5304790030975703 0.10412813537018197
Ni 6.459837272104857 8.154984250123313 5.611001345302173 -0.538064271643996 0.1129102524381862 1.0283841860241771
Ni 8.259133035419264 8.324223693565166 4.1442408408269005 0.9179607045635867 0.6532838889416491 -0.43479771294316083
Ni 3.257388088114002 1.0880571584076524 7.348446054327942 -1.0502840714210622 0.27126963834810697 0.39639571612619473
Ni 1.3955116131905678 5.805636968982204 1.6191254560511776 2.057163036383612 -0.4620539775559526 -2.6895608259048713
Ni 5.781461238584263 2.064193094845681 9.452221659206097 -0.9296872489718957 -1.140325903901507 -0.49719144468903415
Ni 1.2141703085653375 2.8657337911423504 7.770564010958503 -0.6077403959838953 -3.4014429841057034 -3.1272464019187884
Ni 6.436706575209259 8.13097647153825 1.7271194047963734 1.6710823290301802 0.42052500507423063 -0.03585686179760921
Ni 8.80758901102364 0.12842342065036372 6.438017532415323 -1.487277763574277 1.2557450388044762 1.4251138884510233
Ni 8.449478423345928 8.813625945630921 11.357379316307796 -0.06150772959649407 -0.11808536888122245 0.6570305004682749
Ni 3.7672431387256027 4.535277448353416 13.15668627640973 -0.562849963229108 0.6009765948975004 -0.17140619179154995
Ni 7.091671992146128 6.230984265748128 9.008430454189455 -0.09333901517447796 0.7229301884848774 -1.082825238581877
Ni 8.941325307354662 7.35238918966803 1.848565360687347 -0.7569535966181739 0.20583120623863904 -0.13844799169797448
Ni 2.406450897519109 4.687954976914397 7.564939673388216 1.217916655102793 2.837646083582294 -0.14445177468989318
Ni 4.924431129444463 8.955526566198996 4.011309780132057 0.5324806069086314 0.6065697727145618 -0.770298393356196
Ni 0.8451531167725529 5.805795590138809 3.6575556758672354 0.5262346259989196 1.2594194023322698 2.3131004152500227
P 4.159037395541317 1.8006673697862325 11.061158971675063 0.033748042984722525 0.46542649357261134 1.4297051073661313
P 3.7794756290967713 3.050163542993254 7.844758590427936 -0.46268106961699024 0.0356102930044419 1.9883901405842725
P 0.7811000276039767 0.39540801998944014 3.250049526956927 1.3812346705695697 -0.48014528784002464 0.598762360855001
P 4.909007554628641 5.2597562545086 11.199552198550899 -0.6723023390256808 0.6564748850751211 -0.17109071743366017
P 8.316255313109806 4.844775316859663 3.5361227828950414 1.062686301740157 -2.9499652394037 0.8451483485875508
P 7.08732390632388 2.936637448145033 13.447689851121396 0.7884187571059905 -1.0050483395117142 -0.08051923770199035
P 6.682755981073284 8.325082113942091 12.97575272146354 -0.35601422698535456 1.902374398544085 -0.48208929894027297
P 8.417763522681089 2.40248536860397 6.632620498798404 0.577372068104683 -0.22828619280804555 0.9275516906861315
