# total energy = -340856.9122216094 ev
CRYSTAL
PRIMVEC
9.40145538434735 0.00000000000000 0.00000000000000

0.00000000000000 9.40145538434735 0.00000000000000

0.00000000000000 0.00000000000000 13.75998026866826

PRIMCOORD
 96 1
Ni 8.368442300291035 4.636807214006438 2.533721379877775 0.29598025372090964 -0.24501070465157807 0.6165394823327639
Ni 4.525860638609206 3.567513879038646 7.143727864921846 2.692623009769963 1.4977426676613432 -0.13531664515784436
Ni 4.597659553642564 1.0899201281566346 6.857684823222758 -0.5654727455639358 2.38050805527072 -2.152494142287454
Ni 3.9294699126623565 9.015271834559734 11.104441634377492 2.233522201305063 2.0820068349001692 -0.12846208412985619
Ni 2.2514887480599266 1.689121889273705 12.526631760527444 0.12688059857534922 -0.5757689852836213 -2.2115351555110108
Ni 1.9005888260087216 6.58062393203079 8.520385802333017 -0.0009567074863144814 -0.13118925325303213 -1.3654061881777453
Ni 0.7838707893263459 3.0308505993674166 13.76465865676965 -0.5545080190223161 0.890648132791563 -0.7651384464218114
Ni 8.638301676632203 6.467571430619749 4.48959264404011 -0.027204071218617662 -0.23284553004395384 -1.1659734292662822
Ni 3.9142865621609984 6.577709480850964 1.7519753194760772 0.3196184619651399 -0.21539288178514518 0.06018001192400603
Ni 0.5023517279747843 6.218188424180721 6.446633449256544 0.4121156979646129 -1.2417903763965967 1.6039330848771924
Ni 5.749685696295776 8.519495484504857 6.963183255204797 -1.083982235004456 -0.2212053747018642 0.527349456329653
Ni 0.9492931580022588 0.23795929795964638 0.5752224089258852 -0.6037137913230054 0.9427183711242411 0.38078474906181514
Ni 0.5839065332962285 8.727577897289105 8.074136319424365 1.9583599127707692 0.802857815349456 -4.8060893487309935
Ni 4.004625147280225 9.335212763916838 8.535577614144252 -1.17692967116747 -2.023423735149638 1.7955358062212754
Ni 8.602416321298652 2.156261406122925 4.379224258151135 -1.5937016369571715 3.2181456973035223 1.0187718597453936
Ni 7.312536637839609 5.346128222443886 13.05128656119224 -1.3134521637079573 -0.892108262276857 -0.3965708082514783
Ni 6.246609023911747 7.840230929041304 11.54165161790097 0.9288269578541293 0.7632751679608274 -2.191453554269787
Ni 6.346706319755686 3.23577412313095 3.7791923485205845 1.4846729789615785 0.11282077804817343 -0.01718628197129943
Ni 7.908335072095076 7.951666380120314 13.691235170239924 -0.8944273973283371 0.0822202795534971 -0.508224305464428
Ni 5.632778598163027 4.920580744367427 5.451979209004128 -1.4348123466857097 -1.6071215099075034 2.6612848617783134
Ni 2.838045551638714 8.527543130343348 4.7654247650088415 0.34199862943255294 1.8772318378401862 2.7649815660380317
Ni 1.6777367267615413 0.9721010888482621 6.135230921710792 0.23136328907147255 0.6201444260752029 0.6482080170806385
Ni 4.493895690185294 6.394042647789333 7.102819311958031 1.5346719365875245 0.6596234580064317 0.6074071810141927
Ni 3.923716221946052 6.39303669205952 4.471663128410921 0.8739079372187467 0.5933293627648879 -0.10212164646311446
P 2.339335947493172 1.3156866785836423 10.32328786566718 -0.32359750121754594 -0.49873564924770225 -0.0689940106712102
P 6.373368847323396 9.060718470054201 1.372035241781748 0.08576994457796842 -0.8487502070061963 -0.6699798615400913
P 2.7923074710262634 2.9271431446426597 6.450706159743968 -2.7517208443733834 -1.2872839899530217 -0.9289763389478001
P 8.321980307611335 9.2280643765088 11.952702991867184 -0.9723711609936674 0.22847362622850328 -1.1593741787822096
P 3.8138602153774013 4.320843100291485 3.791631414185196 1.092800090406402 -0.44440515412593784 -0.4570454685977677
P 6.1041205655844495 1.0229629626639576 5.334441273212779 1.1600634915397505 2.1303723706877506 -0.7342736385221548
P 9.216679213996638 6.080222065909865 13.163554041075813 0.7268470070407804 0.057474182957068756 -1.7468319132576688
P 9.168083090936872 4.206869256249401 4.609965118640228 0.3606249862844886 0.306852163438407 0.5110082959674683
Ni 7.875589802871403 8.024565265437671 7.111914279930176 1.504174539329616 -0.6763865363973836 1.6768251450512284
Ni 9.334564063492941 8.53574119946854 9.933715056750751 -2.711918367664465 0.06425109666958612 3.7326702339543654
Ni 1.9019238326781909 4.241814466041072 2.160371722432023 -0.08621885918992894 -0.13546602625151508 -0.8737073911721663
Ni 4.091259558964445 9.011755690233104 2.492152844743561 0.15145674525281658 0.6877816656082025 -0.42322080673883883
Ni 0.7251859644566689 8.119143906950775 12.105700397061614 0.2816085583802698 -0.5094730902698644 0.946781485450021
Ni 5.0933042833215785 8.760981268392094 4.6672613485445495 -0.19490556046507077 -0.8076549796277833 -0.1220518097281382
Ni 7.690954619901635 8.775045845698616 5.05289870822267 0.35230926732994167 0.5569410539438409 0.7926641626459058
Ni 6.46240063013941 5.844518177105189 3.769340563387227 0.31078517994422605 -1.501035479480002 -2.918465626133522
Ni 8.162964090657791 6.716493765743255 11.100079359063171 -0.9979371823882298 -0.053093794501185974 -0.14332280329177252
Ni 6.676227332184545 7.90337110363395 3.153333700709055 -0.3380440156601791 0.06344171339441332 -1.470347820588158
Ni 8.080795370297501 1.0810733586075458 0.7918526249769052 -1.019775875529876 0.012020935720276071 -0.7184374428208465
Ni 8.987734971638076 8.24102437500007 1.9778321238751053 -0.84365479476116 0.4690934009012373 2.181340891315817
Ni 4.8782459906165805 5.306566898041585 13.369967695523226 0.8806570830171221 -0.887239107110014 -0.8695925976728444
Ni 7.699481739966485 5.475304219898167 7.136613783606442 -0.14571804299682645 -0.11167020938349799 -0.5542195412476197
Ni 1.1354325738390343 3.4567177269281144 11.125398418651534 -0.0949338704654236 -0.48178513743629275 0.0142325986596142
Ni 8.077796306018904 4.311996330742397 10.571201424624247 -0.32585878644789684 -0.4801843686080763 0.1604995721813752
Ni 2.9615524714754593 5.078149137186476 11.829551447045269 -0.11079217765391888 0.8466210764783354 0.7399395785586805
Ni 2.0943058149130476 7.737426014036753 2.996882200793759 -1.9561590484647082 -1.160397992061034 -2.5918290809793367
Ni 0.7280440069039834 4.49275811407962 8.314853064258346 -0.39054568510332094 2.279569630482429 0.8744766652380228
Ni 5.17954383387821 7.641004687261564 13.262268382827648 -1.9593163631467676 -0.7610179964955345 3.816065250542253
Ni 3.339829431706203 2.387038932288151 8.713893138781504 -1.40778439603364 -0.5347022971502985 -0.15952255298008658
Ni 7.085679518584022 2.7286502163855846 12.51255590147442 -1.2425812477290084 0.6366244260080971 0.7837658317150115
Ni 0.08598101053261425 3.139155365791966 6.530348709033229 0.6534697797002101 -0.6026508972761299 -0.09572679868036417
Ni 0.26502608811036493 0.3994048509934078 4.219608228341872 3.055778990006421 -2.9398332931760205 -1.119819556418039
P 1.9960324014203557 0.7343458024712035 2.619982553781869 0.26868876499480826 -0.37505684543910245 0.12098763012968197
P 4.289169596985556 2.63492710731559 13.36784860747183 1.04418155806775 0.16260684833236513 -1.2840148322834468
P 7.035475746647641 3.6845996048243514 1.128411566932276 -0.4487130374726724 -0.2806963309786456 -1.207054258466992
P 2.9486348717300315 7.91104269125569 6.910963811226627 0.33843945132638487 0.7391124546716948 0.8884518964711925
P 2.8128026438392424 7.64775493225226 12.117795369457898 0.43321648449897004 -2.3264302995897097 1.3743022051157945
P 6.560711649453777 6.92421892322159 5.556431258998056 -0.4172779588918426 0.3514772583469495 1.4122267480757096
P 5.969021651216327 5.525310561270751 10.847763098533479 0.6095422250793244 0.20994754239985777 0.8206146251122447
P 0.8940972132384977 7.770105473072493 5.241864201558336 -0.44387987775008714 1.9232535559859396 -1.297721897456894
Ni 5.435319830002019 0.4724259552312094 12.841914268724532 0.45114890060767465 1.4366761393673257 -0.8670636606034036
Ni 0.7596206752190993 2.4351179752998826 8.953288979129143 -0.49762081891696874 -3.1935368976159064 0.19935896825073407
Ni 6.452641919414698 7.201458442066515 9.254040597830938 0.1749687123318277 -1.0636530365288004 -1.4301563359709368
Ni 5.507438394519616 1.593227044001969 1.1052633034001125 0.14893475016191124 1.3647096763313529 1.6088503196731518
Ni 2.750405184224682 2.054941921074542 0.8604785488064189 0.1012091619511741 -0.2484438987028431 3.5073894036315467
Ni 1.0841100287078176 7.232765288611112 0.6018116051413288 1.9577204794145575 -0.3058900566354538 -0.2571378269324152
Ni 1.6184041416135089 2.86654136301309 4.205407329931778 0.4211289572068167 -1.6570770158900234 0.6633302174340576
Ni 2.236258390281474 8.140015137980507 10.045363920867764 -0.8913346173356262 0.9751152993977077 -0.1591543710073904
Ni 4.3462552342884955 2.230297867545956 3.6463676462182693 -1.038793040062327 -1.1240330802787546 -0.1700216527391975
Ni 0.7831863633718575 5.881541108544414 10.95987921498481 1.725989779701337 -0.3897465862407933 -0.3392429210642867
Ni 4.948954336821358 3.9624502182714987 1.7859766231437009 -0.9779836220844381 0.5050201967048334 0.13819499514690392
Ni 3.0733545793158017 9.084701582827554 0.060956216498858566 1.2242803925372916 -0.8541790913312515 -0.48557545771666055
Ni 4.454428380337181 3.6180278990038452 10.349692793356414 0.736035615518584 0.7025701367712868 0.9531683628129711
Ni 7.324316661479363 0.6700727525005932 3.3245765104347456 -1.312071738420663 1.6355041748152543 -2.454699293872153
Ni 5.844659198936471 2.269407922088155 8.750219422374197 0.8769413247284317 0.4071987202789697 -0.8230815985954986
Ni 6.047805847625851 4.854714147703331 8.669227764232337 -0.3253839036940074 -0.8272611838944849 0.7006140414861804
Ni 6.336731375556341 9.408318481253408 9.53651954778076 -0.5035189295689587 -1.5970345579851464 -1.6038945183297733
Ni 7.066049279669572 3.1784534494425407 6.468112954451872 -0.7239280336217725 -1.1402706251835395 0.03952171224370613
Ni 0.28809631956255255 2.1941022641835852 2.0793255358487355 0.24408896416825704 -0.22168977053745048 1.4557843209516863
Ni 1.9633529423846148 5.146939586485819 4.301191238029572 -2.0791428830888132 1.8579092262521744 0.7429544541256043
Ni 6.489993901793581 6.162945472139866 1.4459673470496313 -0.08291422029672818 -0.11422537170518393 -0.7253174577701315
Ni 7.836301120676248 1.3961725384239692 10.19207269253256 1.7896898889634596 1.696389440336401 0.918278750024638
Ni 2.7446326905975402 5.176855017628434 6.611189003742845 -1.3938269054122834 -1.3997142174309958 -0.17961083908952935
Ni 4.133096035578095 6.3932153197124775 9.832854362726806 0.2798704926432406 0.35732163294286845 0.26487376212409225
P 7.862916640966864 3.4068994146639056 8.584287494814584 0.5639761064137513 0.3066071373071365 -0.41129860137995616
P 9.004460160828117 2.0087243662357324 12.227641034425588 0.8812252968157662 0.5261202119082423 -0.20004545279479743
P 3.0202457576550135 5.019418245185247 0.5073015942527813 -0.8078845791400859 -0.11448736711731897 -0.6069292129365096
P 0.5486322725648997 6.188150774117663 2.4211925395335596 0.2905410849832093 0.12113881099556556 0.3695870805737828
P 8.609345193942305 6.778496364230226 8.705430888759045 1.2021663342470714 -0.3287595050344596 0.830756084421621
P 2.6853753170928583 4.7821537147810504 9.595013523105436 -1.2520925296535532 -0.7369671261939179 0.28433624172407806
P 5.227867314730829 1.3647058671372534 10.584617301506873 -0.32224818627850305 0.987416228252248 1.7957299245099523
P 8.26518611542638 0.9755514229869607 7.349590594081717 0.8267377072908472 -0.7221110350176919 0.26917496060260737
