# total energy = -381164.77175513585 ev
CRYSTAL
PRIMVEC
9.28252207931046 0.00000000000000 0.00000000000000

0.00000000000000 9.28252207931046 0.00000000000000

0.00000000000000 0.00000000000000 13.58590935479102

PRIMCOORD
 96 1
Ni 5.344040615613676 8.370616125438856 3.0577944870853146 -0.38061711313569935 -2.353018334490883 1.0361674295140222
Ni 1.1823240820054013 1.7797750315159933 13.261721660170664 0.5567083691077445 -0.0225431754078386 0.6297734645245348
Ni 8.631909831104746 4.850897363377147 8.649251438299496 0.7554860109337118 -0.1808071733904757 0.35285974051677294
Ni 7.658108318429643 5.238006369288 13.322614074814085 -0.1910180524852065 -0.7030054245364924 -0.5048782718103305
Ni 1.5199943769007107 6.298051791847709 0.8393209783458352 -0.5831228545455313 0.016264541487978443 0.8859602403975904
Ni 1.8572283932722258 4.759018962770341 8.891216148856923 1.4743111761112804 -1.9912510070718352 -1.0165599396957397
Ni 8.283880241899759 7.626102183322321 1.6830901411300196 -1.6847192030873244 -0.08580414025001351 1.4327040420934551
Ni 4.803148071326085 3.7957716773623558 10.546238728872092 -0.46420959044637466 2.2890431171905026 1.029676936693672
Ni 8.82037287086227 7.1196942074580765 4.904173468897727 -1.3929776700381107 -0.16730656780087963 0.689623861023264
Ni 3.4841945511986823 3.2355993353317527 1.1843421022409961 1.6154236020152952 -0.6175895208638331 0.23547448302636867
Ni 3.886007071613594 8.96829913799402 6.3689247739120685 0.3523529760836835 -0.11874125729766646 0.7830492652639611
Ni 8.566523747666238 0.08105590846016254 5.252325587390248 -0.22294961108648054 1.7847759966016103 -2.620497652558622
Ni 6.1585354894512365 8.467367849981667 0.7865619092885607 -0.13095502575503898 2.438981111805948 -0.3142245446430782
Ni 8.179962410540575 5.626971879555426 11.058793590660951 -1.4333527314210477 -1.1084467958047233 0.3327298025361173
Ni 0.3111176413354219 8.368843163778328 10.97640935333366 0.11475913272146687 -1.2907140986804932 0.5184817215263781
Ni 6.443332540271342 4.631959804606474 9.103034941672316 -1.3540601670373067 -1.4110507254897375 -0.8903172318147053
Ni 4.851565704945513 7.532060955140108 12.289650409555886 -0.7385838358617345 -0.604852532913139 -0.48909452661351255
Ni 4.237090610485145 0.6814707671760238 2.1255155508493266 -1.6725671411058225 0.6716209966879402 -0.3875580632299067
Ni 8.120275795476749 0.671974747392152 1.455023222185898 0.8614000345597229 -0.8072459171148226 -0.4822458791227953
Ni 7.427131328906593 4.672561554884729 4.65230430759798 1.1330540528304422 -0.2792251457497578 -0.15808736319545674
Ni 5.885833564514204 6.407548418798394 0.7155552589105287 -0.7760311820749152 -3.0257898998434984 -0.03182460070976455
Ni 6.712544237018016 0.8299502726060322 3.285575504358524 0.43352450265769205 -1.6393741992936215 0.8232991139229434
Ni 8.958691727948754 3.0918130729151616 11.293870670055492 3.178666151151661 2.286342430429888 3.212926872106744
Ni 1.2048527623724163 0.1457170269474275 8.640013472621188 -0.7218876061529762 0.6569639088963977 1.2692538719241884
P 7.960802071247114 2.801929200158045 9.68297627034389 -2.6580398724784544 0.19540178337519895 -3.239506165257169
Ni 3.5836939021892205 7.4997949094228655 1.1163105000943727 0.15699567279317478 -0.6780338421928194 0.8021816152180378
P 3.324739392012613 7.912700043368303 4.625757223551163 -0.1598339135729183 1.8453784407750153 0.6485594868827862
Ni 5.132566204356427 6.5758219736781856 8.051811627815043 -0.4751138960637043 1.2631565007771988 -0.8307949080793563
P 7.71031322093648 0.14582748895664358 13.017298009592954 0.031794775913093626 0.3215809850081494 0.7525649806321749
P 0.6187339154543469 5.590537981557678 12.496590308922206 -0.4145086236768216 -1.230477779597255 0.2600508868141521
P 6.369035235921284 4.464772304775278 6.448605940896189 -0.4899224218314466 0.5664093984455921 1.9463744582741191
Ni 8.905994851787424 8.603134013577861 7.209050546896478 -0.02194282281967834 -2.4661054788265657 0.8547215940982829
Ni 6.981793063851822 6.776287314100956 9.380051382734024 0.7687937837862114 0.8957173197843541 1.062842110591731
Ni 0.9118081909482342 1.2279012639592723 11.189965834226804 2.6683016594157785 -0.28959466190954 -1.876029075781337
Ni 0.3104353759843813 2.4634884559547574 8.365428124014413 0.4742086106406156 -0.11387852988872645 1.1755592731825046
Ni 5.765216476467646 3.669232340418329 0.28968522679096304 -0.1781396538606416 1.9138368906577297 0.331905506862609
Ni 3.5434820178258457 6.231737456230916 3.5727683740507876 1.5335817888471395 -1.518857081042455 -0.8912171179211554
Ni 4.793540661280819 0.9541875441479081 4.621070478302994 -0.33537135392402245 0.43036975907879427 0.21890912246851973
Ni 7.160351652867028 7.815400650040304 11.663095041247297 -0.737974998633142 0.1596732196253379 -1.0890488508940859
Ni 0.871231503478793 6.111584494273501 10.269792234647852 1.270896549733934 1.6328055449371688 0.6790651116708111
Ni 6.333084029056245 8.25117791765872 5.977310960179991 -0.045143172195541606 0.5955870484508129 -1.3726592701957328
Ni 7.373840371351159 1.048757876071745 7.2214946955985875 0.18956717897129288 0.31347815339535684 0.17742231607864284
Ni 0.34120229443369 2.253174359920367 6.132856321191116 -0.03893858604672649 -0.8288257001681274 -1.6811921637706726
Ni 5.814469537047532 1.523085456654405 0.7136634809711807 0.43007948153188513 -0.5363614300202763 -0.3581281880045639
Ni 8.025129947202373 2.4646023585687016 13.579401116154395 0.2570375539091251 0.6961135825126656 -1.0774164088614797
Ni 2.055141040204708 4.028827951764767 11.503094069780396 -0.34985849179660394 -0.15346400549083247 -1.4410632126914278
Ni 1.5992949604917333 4.020844983031504 0.19763602778335254 -0.5169539720279419 0.10759501087285986 -0.33810777901857897
Ni 5.718395436594871 0.6495760223300968 12.020934399472418 -0.3645598025625205 0.4203044044229923 -0.20069594189460274
Ni 1.3455757926006622 8.583677847920976 13.367651014000193 0.3466680098837643 2.5887578982531805 1.6724267588732165
Ni 1.5008723820280072 8.003566649100776 6.0916502787447975 -0.04560314255109565 0.306098315991518 -0.8321452514596637
Ni 8.135462001113517 8.925720210576015 9.277151844014423 -0.5978241653114479 0.3853268599065428 0.4031582316610089
Ni 9.175912020189596 5.0055348937579085 6.263878187904089 0.5511979808124765 -1.7865297460679233 -0.864343433458763
Ni 2.960966645863885 2.0519849827985333 6.4819868174795525 0.48241582904175634 0.5926058543353019 -1.2965003663449672
Ni 1.190344180825797 2.2641277356241485 1.925897704665332 -1.388715295217331 0.08097766539564763 0.784512737183365
Ni 2.927660957706962 2.303949754072643 3.545976231428902 1.0692256455205715 -0.8313993744325745 -0.2070349967387531
Ni 3.8006728488637087 6.149819201497126 9.967465141440805 0.05472053147133157 -0.3074265478846383 0.5266704279847575
P 3.615421561643056 0.7780721148659516 11.165252976484282 1.6783017295967548 3.993252567791955 1.2895650726777148
Ni 1.297724392809989 6.359891951965161 3.7518031564334553 0.7908155394729413 0.2630701332564502 0.2493299008522222
P 2.2062883423951116 0.429285071883482 1.4418587497934379 -0.3101388046094788 -0.6018649110397247 -0.27347770174301933
Ni 3.8187644838185144 0.05068906669969533 13.403898333310106 -0.6779204565434067 1.6603124921081858 -0.9219286880723994
P 1.6445286891396382 3.7510484874125085 6.853670128691639 0.5109759000676362 -0.12080379625365001 0.8876124312890326
P 6.478197692087786 8.389014083612496 8.028375116817664 -0.14180302421313642 0.4325760227014937 -0.24251287793038878
P 0.6596781907863897 6.5090156644069 8.13971246783789 -0.5599389602299002 1.7036821173430723 -0.5705468176527335
Ni 2.5953373953585834 4.060212157912637 4.885940739611822 0.6467054643931829 1.0884310148044287 1.4744032216044543
Ni 7.4845530086554 2.3119791354148216 4.967130316385657 -0.4514453488021709 0.048980543663760805 -0.0977065481145543
Ni 7.927338580219882 0.952674493097301 11.061456746160456 -0.9274727578190801 0.5532494640248665 0.24203439563207346
Ni 5.6251525052859845 2.458401634017747 6.549644333998326 -0.2615966340347172 -1.4727597724637602 2.6616167911964355
Ni 1.9693055612785475 5.856333710288257 6.598187281661822 2.374467248393278 0.03515263664173301 -0.48967662436922765
Ni 6.412514567952227 6.5938393484587285 4.123160651130963 -0.2739451282977411 0.715207108809007 -0.2706155497038759
Ni 8.750986020535349 7.406626238288242 13.275145114920868 0.09430163619806341 -0.5719570677366989 -2.2661793252184523
Ni 5.195956545611617 3.6555777508757337 4.8666627983731665 -1.763123965549473 0.8210342291481666 -2.6355180372268547
Ni 4.03784128041593 4.629871237205329 7.66762847277015 -0.5189977419308481 -1.8782613075459653 1.086092339368923
Ni 2.900546711579211 8.371154511702263 10.605663576821641 -1.4733092172093272 -1.778151806416873 -2.174899506565848
Ni 3.7858208140111236 5.119812019426769 12.657202998574599 1.1755595302928206 0.5532787746009051 0.7505708330202815
Ni 4.515872587189953 5.6976304353666 5.761702113720654 0.3551642202802335 1.5912927704053628 -0.7149607971261558
Ni 3.334012631273696 2.6444883481988577 9.573745123516195 -1.5184256499319915 -1.986737435472198 -0.9303441658296043
Ni 5.3073375244842245 2.6299797666522386 2.8341432637533024 -1.2585619394279808 0.5592355064049724 -0.2829928403223062
Ni 2.670340171364139 7.80415023363947 8.09653574601707 1.1571650869460328 -1.3649891552449847 1.1683375586230846
Ni 7.472365057554497 2.647468037691158 2.3051481276348107 2.268844530755441 1.3308482476972177 0.06814786062083102
Ni 3.951383872530318 2.6665250549113813 12.53861228503324 -0.17255058980863833 -1.2930820846920374 -0.9690446677235957
Ni 2.1423688973982977 7.04456147614756 12.169102012170523 1.4648957963346514 -2.1594206942039587 -0.3651424145388679
Ni 6.507883196749391 4.671085633921253 2.5084205026447193 -0.7534558678775605 1.73275769455279 -0.7924489613113062
Ni 7.516364210805282 6.2919346099928015 6.844580683361856 -1.6728818441327642 0.9972373281077276 0.8607698571748917
Ni 8.913662214780071 4.538651895645106 1.5004138254519335 0.017939358087240075 -0.26715253085593993 0.6090616858984802
Ni 1.8832751493949471 0.4781287732527436 4.710533566741899 0.23809186604455773 0.46958396738441066 -0.3703635537284912
Ni 5.998254185826492 2.0826822823344706 9.10011373206725 -0.14495416824760843 -0.16845019448701956 0.41715248905757185
Ni 6.735193590168208 3.3986375479260076 11.581743020342262 -0.5406950243986237 0.09072008949439214 0.7903563404483356
Ni 0.43238821891549406 3.976437398822273 3.8715216963714325 -2.1217434913681585 -0.15353599637934848 1.2051030482778922
P 4.1682699939869785 5.370644323043369 1.7207502602552844 0.4195739540148709 -0.8140215452757593 -1.2949088534881312
Ni 0.4598403488361414 8.908918846149028 2.8427295964024535 1.215242193594423 0.8109475343361259 0.7685600705088506
P 5.860872863440078 5.802216608294149 11.468707896087949 0.07326846967684801 -0.9041230273495461 -0.4753280689570395
Ni 5.22965209968342 8.910784633027383 9.759234043294487 -0.2672962555226558 -0.24572315733757036 0.07047085232705282
P 8.645378770211684 6.115473870900521 2.95292426899121 -0.7517286007738085 -1.6599340257228445 1.2589764012575801
P -0.009028180686015286 1.8753014631834655 3.7728744808805605 -0.18746504502662553 -1.692101097373692 0.3626798119309883
P 3.1378822285235244 0.875811499726459 8.173038577542735 0.6997056707392981 -0.7151312612657491 0.7889962268760153
Ni 2.1510016426563627 4.330927623188135 2.653885044999653 1.3727567150055453 2.089904235370375 -1.9089757059106862
