# total energy = -381169.88974337105 ev
CRYSTAL
PRIMVEC
9.26302929803165 0.00000000000000 0.00000000000000
0.00000000000000 9.26302929803165 0.00000000000000
0.00000000000000 0.00000000000000 13.55737969901711
PRIMCOORD
 96 1
Ni 2.2847075795591185 3.8042889627915564 8.486390722437074 0.36369231235590266 0.8686590301149815 -1.2110320121678175
Ni 7.670001070956505 6.248144643792427 5.176559469355678 -1.1729341768548316 -0.047991183167297995 -0.664332947666959
Ni 1.084496910575486 4.171456906738251 3.877545627726781 -0.44281132727625677 -1.5542580862495683 -1.375609096852676
Ni 1.9676804116501518 2.3699552355493663 12.350339149878288 0.2680665580297771 0.5396354727858577 0.7195355609810318
Ni 6.5119834991189744 8.798154637261867 10.762823638180471 -0.6611730618817387 -0.5938271283369128 -0.9909334973768871
Ni 0.5571378481203763 6.620240519173089 4.325793790911575 1.2192502863125516 0.8941407193258537 -0.2622188409997484
Ni 8.994818006199054 3.513133434910924 13.108901563847617 3.2701632280213935 -0.46572371309805605 -0.6279294693372606
Ni 8.085318239703517 1.136379136067323 9.226610486358389 -1.3743708535702006 0.025931632264097275 0.9656099310104337
Ni 1.0572636052825026 6.9832401000647355 8.532892054376294 -0.13317980132049964 1.2598706309370753 1.8230566373493637
Ni 7.978793406074498 3.9444941699053655 4.085407998738533 -0.8501694559512261 0.07134605584315455 0.11540679360779478
Ni 8.683802544118368 5.125817522735123 8.687405862403732 -0.5180014394558498 0.12249301103061483 -0.19149267812877988
Ni 7.345637584070653 2.334431519291342 0.06216789290589451 -1.969016364043351 -2.284778685487194 1.0283638743092032
Ni 0.8696150161790323 8.450077796107292 6.587083506827432 -1.583855597401027 -0.9599113379637597 1.6894405198223934
Ni 3.3383493404982345 3.3290122072549257 2.7158274757992684 -1.1898034418063446 0.3187337453673414 -0.46342668953376315
Ni 7.791430118264573 6.562513322375173 10.945929637856839 -0.6178319758919424 1.3973400607718645 -1.0022756618625837
Ni 3.682313396771826 8.717797860589542 9.5694351900636 0.23759924267885532 1.0184075344274395 2.678831355302509
Ni 3.655858185915785 6.2204296609908605 0.6026999089178586 -0.8780453564258878 -0.09590549035007354 -0.3803882849543449
Ni 0.18644439533201174 1.84235162912836 5.186226366431787 -0.3672597179921869 0.07530658315279934 -0.21764233994095422
Ni 1.0217584150825005 8.946724359572805 2.695003260279147 -0.9927427826714839 0.0320922525488544 -0.9729152064225954
Ni 8.832149953733039 2.197894471665975 2.2173227487141056 0.00802955517269585 -0.04333851488663504 0.6772275442414402
Ni 5.293302350286971 3.5914708712588017 0.7916332801451849 1.3174857103473827 2.207418562239476 0.9198712913227383
Ni 3.7809461296832847 0.9177512727387325 12.027239140149565 -0.21355094348039996 -0.7671757885668142 -1.112205234405891
Ni 7.25321108059671 0.25209889235772903 2.346836567743166 -0.6327690568177489 0.6142997943689679 0.22593543318768186
Ni 2.7030074436477416 5.420150269566603 4.787340884847778 1.0635717896689036 -0.2871842526958344 0.6399028396490528
P 4.946457491990891 1.5134307319689884 6.524733132250017 0.15900010481771326 1.9542093809375054 -0.7981331561802771
Ni 0.13957717374684858 6.170159202546975 6.6470338305880405 0.5451332626756353 0.22348928564003445 -0.5060409246598639
P 6.992781019946291 6.969855023143525 8.612528167391543 1.009126623346146 -1.4845809334684046 1.267369767527598
Ni 5.541394056294447 -0.08067913008191435 13.185704116288337 0.8631483847093973 2.1015083952682065 1.5559118198029074
P 3.4445777571988927 3.8040851761533094 13.246535354107912 0.5216223240378888 -0.07078941200873615 -0.07519165484148986
P 8.31402242599051 0.4381681350147864 6.510904356239168 -0.7939972796350325 1.222483705648185 -0.7735888911820097
P 8.336948422793277 4.383274591137793 6.566449183402041 -0.7465298301816886 -1.3102567966991112 -0.7453856892749162
Ni 4.148706907486697 1.079374455532282 3.181428997533681 0.6492405721102109 0.8150592425116544 -0.8107390178697457
Ni 1.7956011217087382 9.041614828763732 4.866298944139407 1.5686238680529372 0.9338030709124822 -2.5711898074624298
Ni 1.4328886947164399 7.687962084209258 0.5508010099738014 -0.3531194219360628 -0.9176136056368132 -0.06800619283664418
Ni 6.302926197364775 4.987279660843333 10.09517692765335 -0.6015748906031317 -0.78031181172814 -1.3552917254515628
Ni 4.098371607839733 0.15713524523761402 5.229636625589963 -0.14106537471616348 -1.5439387066014312 0.43096574079158034
Ni 4.2866056203767124 5.552157696005483 2.806052157277244 0.41852314415285347 0.32216128299165164 0.2826555115875455
Ni 3.4175482385441565 8.156634300060889 2.9465472971991042 -0.4853111483116803 -0.9094680937115432 0.5994393323173676
Ni 3.224488187892332 8.268179695413988 7.401407502838499 0.7374250396669428 -0.37405154410303965 -1.6765351246146354
Ni 5.930089279663215 8.330992295139064 4.072433274002519 -0.5728178730750975 -0.9004571484621847 -1.7017309071539726
Ni 4.228470850302303 1.7480910459101966 0.8722846211400656 -0.29108924417719545 0.09393576821821242 -0.12882795210970716
Ni 3.2425974096092647 9.163664499015551 0.6863311663456485 -0.6847259095010142 -2.0263205970814586 -0.09857686653464959
Ni 8.83480844305926 5.813226905657677 13.07628180718461 -0.10670206674494527 1.4839289017067023 0.9652625749733441
Ni 1.506594616558709 0.18854988182626178 11.538847788138849 1.0443486797732338 -0.24544907774057728 2.001358270709166
Ni 5.004545946920245 7.0945076045474975 8.606088509622946 -1.6792190992047016 -0.4410040988641889 -0.012103982352385606
Ni 2.68384223662353 7.283936547826923 11.95462625573062 -0.41695168590067544 -0.31408081997636234 0.2963960011020895
Ni 9.235943914390093 8.583780356855227 10.279232387803368 0.09916436360700341 -1.3933368531497423 -2.0435971247737195
Ni 0.44434842797107166 2.60002108710101 8.428026229243185 -0.7225910599779038 -0.3783542852434516 -0.5136231078824961
Ni 2.1819805878247007 1.6429741926908845 9.84005458262636 0.1046295004866327 -0.3599755256259478 -0.04480790034330993
Ni 0.07796413627872609 2.164593882370643 10.907968818665964 -1.4658602171304496 -0.6463000014246483 0.39703489237209044
Ni 8.333798992929463 8.397148848337189 8.14451455290261 0.07546084934247649 -0.31772818692096244 -0.38356796823390715
Ni 1.794572925488493 2.8204811775680194 1.2890690536824532 -1.136675194522797 0.1759346757895228 -1.1569843383937946
Ni 7.389646234902954 2.9525441821809673 7.980592286308477 -0.5311264068735821 0.4267108221699683 0.4174193695657134
Ni 8.519883982735838 4.399697941574685 10.891022107089936 -0.2135422017296516 -1.3915895314413322 0.3369497541547358
Ni 0.9584270857327969 5.186101315540135 1.4464099381641162 0.5683395255887695 0.10928731097361824 0.4823219837763693
Ni 1.48881886388618 3.8620995268505736 10.544984058620734 -1.0070861958773496 1.3073949017702837 0.5557526900626946
P 1.695208413285148 -0.1455323750981612 8.690632175408341 -0.7958297048580811 0.09991769683326018 0.1822498193742732
Ni 8.187359767291102 8.739862395694265 4.615203237823593 0.836611000540501 -0.3758011798042947 -0.27376823640024467
P 6.363071044734619 2.3724747794404175 2.2829948454949442 0.5416141937787834 -0.6471500081297693 0.6752241406581662
Ni 2.9362227250632 6.099056191856858 9.85122579561389 0.5631032168904948 -0.05785624888683584 -0.19214908076585616
P -0.03085514963637015 7.769022851086436 12.34990471381766 1.4183220623401702 -0.5015695191520716 -0.3100868683256208
P 6.988084664237603 2.8284288564596456 10.784136015329482 0.48001570424069595 -0.11101483518768623 -0.22258939953358436
P 6.4661500315714635 5.796201458335057 3.3677483419740413 0.5778245822610694 -0.056754788292540964 -0.720307920370682
Ni 3.9736912373487274 2.137712572180086 8.437109555491586 0.15270193051382733 -1.23463088253368 -0.7056282068713202
Ni 6.636228507246454 1.5604035520848794 4.492020699123701 -0.1434888965559916 -0.43349133542691154 -0.5144319769370366
Ni 2.8526609403529943 2.3824417986564894 4.985278846576909 -0.010017532137002103 0.06479719898104325 -0.4469217499002045
Ni 6.278064227498664 8.09682292173545 6.281391507519493 0.36406897896903107 -0.7251783610891059 1.2434351110888713
Ni 5.9966904582538785 5.7276179915359915 1.0833834944883376 1.1777591090473007 0.8499203160548975 0.31514885622956046
Ni 5.259557135599101 2.663528414001927 12.229461252796385 0.3167678798902222 0.69635038111382 -0.4215871277901578
Ni 2.4403172039185845 5.912156055497494 7.183051972562838 1.8293355283795398 -0.7569111734160126 -0.6911068733266935
Ni 6.609995609086682 7.271996503431462 12.789597543407693 -0.18989499462435683 -1.2862048979562302 0.4907503170493806
Ni 1.2555109521806094 3.7940162636181145 6.281187720881247 -0.34225522552804927 0.31854168396119337 0.19700332353436395
Ni 8.3055097023292 0.3360645451328238 12.043860719407295 -1.5771303628620514 1.8254264231331208 1.7037445951498913
Ni 3.6547188333474048 3.5088261264207072 10.415415587720508 1.869513386150006 -0.13655668821253256 0.28866443678578674
Ni 6.161146275319059 5.302935900458639 7.437158163307298 0.38906344413083965 -0.37276136453670644 0.7907242653107155
Ni 5.3689257191345625 1.5623209990902016 10.102349291016738 0.7767104675301268 -0.11491622712462145 0.7626920417638478
Ni 5.292542781908052 5.5529265274134145 5.29323473017519 -0.6843880665456213 0.6092061818961443 -0.8622868080400504
Ni 4.126660898439996 3.5846162297905004 6.676344833288241 -0.7795376525662768 1.4947450184855997 -0.5434656451652252
Ni 2.0559385520690454 1.2296022600362302 6.896462191681835 0.20414327701325485 0.8348418244552204 1.0744807232719238
Ni 8.389321588822709 8.360735881294087 0.7045283868381881 -0.6669451884788256 -0.2115969050778227 -0.06817588564528904
Ni 6.939601970392883 4.66512077486215 12.61881507752785 -1.774492612397731 -0.4737923490388034 0.03200483504137069
Ni 0.7472661500901498 6.082336424491609 10.683689581337628 1.0043556843200638 1.1496006443352138 0.6940150481124241
Ni 5.8915921310925885 0.4691112834267631 7.993837491491619 0.6909405229521585 -0.7240203362252629 1.285934932124295
Ni 8.517003180713349 6.583633028520753 2.376839518710504 -1.1135252387688952 0.21119067077833953 0.2380936658167706
Ni 4.615517254507074 5.248923178294222 11.630211822185206 -0.6550355815254331 1.0428954922664748 1.8091243435389874
Ni 6.273099243948651 3.4026440248651046 5.9814212812317855 1.1915656759130897 -0.3927897439424913 -0.6378834952261789
Ni 1.716068754618413 4.919103767320762 12.772501697064587 0.9547953568934332 0.444247545502151 -0.7568949754660964
Ni 7.971799819171029 4.335708937165184 1.4211792997433583 -1.0092384663336618 0.11609559214470329 1.012365699108734
P 4.111237955136317 4.888118935278235 8.520637066994452 1.579798396612518 0.3448834071795157 -0.0640135267374833
Ni 5.078103660298335 3.4904668029204715 3.8598134112906046 2.631350536112726 -0.04833982475596836 1.1996032015055857
P 4.629745267068306 8.013650184243714 11.753556463892794 0.20018634924803588 -0.4398275620575845 -0.990005843356295
Ni 5.373057030073566 7.841228162228886 1.6665949166694927 0.23674280821583096 0.8826417175473187 -0.119326183266859
P 3.7671997946306357 7.1053638745486465 5.537741643955323 0.3618542307058994 1.1428898079739414 0.5969301927422687
P 1.5282052632418823 1.7470350606029177 3.3720723239164783 0.023566731576346513 0.25288085142827416 -0.7099725998829449
P 2.2388092708085288 6.293811376817736 2.80830307332697 -0.9165620244438474 0.025334364999730564 -0.7117147793850324
Ni 0.6427004470970052 1.0277330687947366 0.43019174073322575 -0.27851474994629455 -1.0151219216976324 -0.7655665350981655
