# total energy = -381165.5934268177 ev
CRYSTAL
PRIMVEC
9.26281476615173 0.00000000000000 0.00000000000000
0.00000000000000 9.26281476615173 0.00000000000000
0.00000000000000 0.00000000000000 13.55706570992742
PRIMCOORD
 96 1
Ni 0.9293289354794256 7.931813062559983 4.094613341459367 -1.5675391196291908 2.149435300856472 -0.1279409215190635
Ni 2.723211943279991 6.660380591970453 4.849294684719355 1.47586592219291 0.30339377257616135 1.7210854004211844
Ni 5.128524086246475 0.7566246817828838 4.293292380122085 -0.9477739312702773 0.06493989520649462 0.019808807195811046
Ni 0.5958036930578512 6.347584602553587 5.602918214541238 -1.4373734225446666 -1.8253300067645724 1.190440304059395
Ni 6.935986380389104 7.197734998024859 2.6882031351423192 -0.969049552819602 0.3605565949403984 0.5335807819513455
Ni 6.929863659876072 4.137801214972239 7.950609166137959 0.7900537216062523 0.5046607564828857 -1.293441010693353
Ni 5.892382100024254 5.796678698601203 11.815498219204693 -1.5368095517558178 -0.3139139553811948 1.3771898110762346
Ni 4.849463267946795 0.5697557318555898 6.616227533166421 1.09906689725172 -0.08486543048582804 0.698941538879764
Ni 0.9295790314761757 0.6515871419922347 5.713801516685554 -2.0716224063420516 0.24168883936719665 -0.933516907130631
Ni -0.13061031859908542 5.923857144355994 12.49596774369569 1.240262626898161 2.7963009449766036 0.3543345252900866
Ni 6.173258430004048 3.0745690302698505 3.9546503588632964 0.841769661923305 -0.08363027252714629 1.3289931967663497
Ni 0.11670405489830835 6.4266797772294915 1.690850867391265 -0.3585236236707696 -0.7653482484397722 0.7732862723399263
Ni 4.194119128314491 2.773166302927158 2.839554748405216 -1.3777829645755433 -0.3150683807006122 0.2250913400198317
Ni 6.101147417607758 3.124977267837045 1.612395753210747 0.7121464676058122 -0.847779872673127 -1.7613028531803345
Ni 6.068727566177184 6.280558875424551 9.495097372260759 0.27784703445530856 1.571202684523707 -1.2593029313590636
Ni 2.460333262251514 5.445145618132148 1.3670941893464572 -0.7931148770300792 -2.1228446948521373 -0.7191254700268066
Ni 3.6897218169429373 3.361104940027952 5.105360565540066 0.5347938284228403 0.008892931614255653 0.4364694442186289
Ni 3.0166023359119856 9.1174903947083 5.411587366775628 0.8997804341101343 -3.5001473773571528 -2.8008823936996987
Ni 2.150047495616844 6.850120088171557 10.898132208903148 0.3245799197354733 -1.329293501615588 -0.8709488545904225
Ni 8.403188439545824 0.4158920432475583 10.216414983272808 0.9067314115066706 -0.5934352922151328 -0.4686180039267155
Ni 2.827001781931298 1.680821091640115 6.476264550570349 -0.25384784332723376 2.0358444774114934 2.3084827139723534
Ni 5.5789932904669435 7.528306328840373 4.7915410350994625 -0.6323275984049561 0.6466003062738864 -0.03220898063237679
Ni 6.336154289220637 4.212598443629918 10.144155765841408 0.07169469743182491 -2.374519956008085 0.7576943314389402
Ni 5.917150866517213 8.050247411243214 13.37811190112159 -0.6674300985350441 1.1745909957319642 -1.3449579476257225
P 8.922943497680777 8.039836007526652 13.277112022256253 -2.2013371319320867 0.15767084448332847 0.38037748632106744
Ni 2.397401699217424 1.2660322496226655 3.7936598606293552 0.5063679689819796 1.3673039194210903 0.25993878671632004
P 4.688910900847901 2.2504100928312045 10.372198853367 0.02716627600214676 0.9350207453696671 0.8768580209860058
Ni 0.9159237900536183 7.958267661327331 7.09079302353303 -0.39816849175590135 -0.6094627779916407 -0.2525628059672231
P 8.284328001386648 2.315240532877657 4.345039094412627 0.40004154040889817 0.6930701677006516 0.07226008301699167
P 2.401403235165426 0.9220520682554662 8.49880199166634 0.06824067744495345 1.3331337012972846 0.13053927837385906
P 8.438489026346371 6.396473738510892 3.9174360745468757 0.5215176801392244 0.2109865251873334 0.507602612720029
Ni 3.4267968218409877 5.141130777045621 3.4254092521997594 0.892254043826102 -1.3037069113957356 -1.192129775946676
Ni 7.029031353994849 1.5828853518757002 5.9069895587974015 -0.5292225049826499 0.15352956862144526 0.9303865890317654
Ni 4.693718301674321 0.2707937561848844 1.2102599160659155 0.21204119170409289 -0.7264716259792326 1.0644325950073024
Ni 5.018704155229082 7.955859329506773 10.997383268354175 0.30003462629594135 -0.5055526721695357 1.3797064068505014
Ni 8.714224494170745 2.7445812567800862 7.148504990486798 0.12445424852204373 -0.020352081293790757 -1.745102589271388
Ni 3.0718457627496822 2.8977048464940314 11.82218134000674 -0.1451698838028403 0.46681154684559606 -0.4444897434199441
Ni 8.739271145104535 1.3285562488101998 12.50304453412225 -1.18430745168878 -0.02306176691546996 -0.41779243663441595
Ni 1.1526553977626035 5.088360521731342 3.662983776045939 -1.2419955504288676 -0.07806949060991718 -0.4573144059884382
Ni 1.6106274818855766 7.547795290957495 0.2132429622068001 1.6070104382509356 0.08943890878912339 -0.38797021106666085
Ni 6.719356933130013 0.20656076768622422 11.622878913915084 0.12599305376407333 0.25323592077484774 0.490241238623446
Ni 2.5734044412266592 3.6758553833453464 8.355585908549578 -0.1039838964828338 -1.039838707718022 -0.15833444620925635
Ni 7.866028552600002 8.386580212798675 6.685978380378564 0.01980649320296589 0.7114453277737295 0.9026952937640841
Ni 1.6795706116563645 1.407067866160354 13.056985862450006 0.5977318627079576 0.10852086512123892 0.26948400720259397
Ni 4.756705441596576 1.0187521485396411 12.502095095616069 -0.6149744518384893 -0.31457575733490983 -0.678312806885819
Ni 4.6575377474778 4.7548621414723815 0.5270022843518886 -0.12653144276604658 -2.7549810031818938 -2.8696396057697546
Ni 4.62743359972084 0.37846656675610446 9.23058565700165 0.8256748132439715 0.17285680819514748 -1.333004374808272
Ni 5.20559996731899 7.176022960381069 7.120075559626594 0.09323771370992329 1.3356001605599062 0.019859457928088377
Ni 7.093268973900857 1.8412437793332863 8.971361156370133 -0.7905527727298579 -0.28564081946811454 -1.0550956338770925
Ni 9.21825129295452 4.343556117780046 0.8588370630917259 1.0184070202068074 -0.08241131251838066 -0.618421015626193
Ni 5.124096460822528 5.22358835345561 4.931517911917576 1.4712801025944404 0.6251984435593426 0.7723701882835602
Ni 2.155716338209847 7.231053342480793 2.4409767583845228 2.2164320785919958 2.1447569215441966 1.2282851428213104
Ni 2.2204726757387436 6.0948023895420596 8.187790020359625 -1.7264201823705363 -0.10978713342817221 -0.2630966156190114
Ni 7.65716134405486 4.693347789086542 2.6690198459101144 -0.2638887725030035 0.20429754320293203 -0.3863727846725539
Ni 1.1823056675995365 1.5132845622616065 10.55023015179432 0.5772414560640898 0.27164759051281606 0.08328471626226948
Ni 8.79558905844679 8.570539712630444 1.8794973514584237 -0.4288633497365969 0.42276495014834287 -1.3199771093106685
P 6.2323181364958575 8.970711833060053 7.986643367862307 1.3165647411950099 -0.47828766580599563 0.0449084304769162
Ni 9.18871217689392 5.038619206822148 7.458731475107424 0.38275755651746984 0.4702429411246482 0.5456518541832667
P 5.348599300571902 5.046020195763014 2.387385817688316 1.7538137438921408 -0.23960213204149702 3.12611460230719
Ni 1.3740551945893358 3.019705378834626 5.212501690547824 -1.7457319953252708 1.1988149012763354 -0.031198279979675305
P 3.708645747363698 8.82323856030972 3.122896839656671 -0.1867057982630978 -0.5202295574554201 0.22051503350305893
P 1.9331123754728363 3.8147790781327 0.051759682231114455 0.26800330889200935 -1.4269686822715748 0.09509610707490074
P 7.995087349737767 2.870110921519266 10.656884052749149 0.5910775906162337 -0.49159106778312117 1.2041602247486487
Ni 0.8301075170354212 8.443676202575263 11.582804272421017 -1.0986395799063144 1.6217719128308263 0.5903173154114415
Ni 3.1729679107689877 0.12468952744639329 10.82104613873447 -1.8318436395133741 -0.04233912708784321 1.6224537693891992
Ni 4.7695622283924735 2.698952631595228 8.165963123813626 0.4076841445558205 -0.5502803540942136 -0.3504030514461643
Ni 1.287679447563594 8.62049407227761 9.344424723314965 3.8116272693755584 0.5592144233590497 0.8768819322454059
Ni 2.235626640578863 0.45970608303377397 1.67563947310004 -0.6673563078743152 -0.40137774272181836 -0.5058437210473934
Ni 6.734371955749716 0.714317701947455 2.729186458757911 0.7372638314987303 1.1941887153582338 -2.5365691320647668
Ni 7.541320583486074 7.150411277750916 11.207965023899261 0.8904020782190278 1.439266011581689 0.34563828306766925
Ni 8.356874366073576 2.3120355989933774 1.1624360037984727 -0.10494497484452249 -1.2761485421614926 0.7275196076277728
Ni 7.316400917075451 6.558183957446591 0.4980068955138533 0.7210537973977711 -1.3701640145777048 -0.6170819850997954
Ni 8.625912818873863 5.095233530234624 10.128104234257396 -0.7806892496722168 1.9429235236110407 -0.20128755273201462
Ni 3.7815718874530986 2.3302277670532763 0.6380365703757244 -1.142207437194936 1.3415214111403477 -0.36880289410959066
Ni 0.4235635063775014 3.907055238118806 11.854582665807923 2.3675967465256904 -2.8226390686505 -0.3938487813346249
Ni 0.33618552280182024 3.274497622634849 9.155696726478494 -0.223610384598931 -1.0246272900849063 0.004408413480340795
Ni 8.169774772060391 4.4874909953170965 5.053450825710901 0.3706602590333036 -1.145846833719736 0.5170989822462384
Ni 7.440633787757408 8.967766257987217 4.556245163668117 1.2529119402310551 -0.9877077913507376 -0.5506657624580904
Ni 3.9948759842368826 4.589511636361763 10.158268590309872 -0.692453360052259 0.36553219377811885 0.5082070790732474
Ni 8.904482707994738 7.480556519090486 9.202102501816217 -3.4234639684614847 -2.4559815030186867 -0.9943720907447908
Ni 4.677934465434978 6.747238005360306 1.3325920571725716 -0.7546272624778424 3.1749380515677967 0.8327738861825981
Ni 1.6248181139974733 3.0895006875573032 2.365246764287112 0.1641248276387883 -0.30563037521616393 -0.6239056928898481
Ni 3.824690289855761 7.089248912323466 9.281004083665007 1.4389970741910185 0.4255201442959769 0.2684522235039699
Ni 7.306813903866696 6.244026334269642 6.389810995901175 -0.4739288746166676 -0.7204395608525399 -0.39566218039427986
Ni 5.514172113235186 3.35112888860203 12.217844322243089 -0.656306992038689 -0.587913076845323 0.4509072169105138
Ni 4.771627836069335 5.08402552445434 7.82741558326472 -1.038954762451172 -0.47102069983093714 -0.4508730212384687
Ni 0.1084397716279205 0.6781352951879963 7.865077261530882 -0.7120616212014899 1.0691176591877976 1.154666231783579
Ni 3.071308519497404 8.306392025988828 7.4314682326172505 0.7076215831522652 0.06822627926725025 1.3756834017340371
P 6.601626558363559 1.309085812322467 0.2131540391857334 -0.05707489063612106 -0.17647306479149608 -0.08687937559206327
Ni 0.11670312861683892 0.9208701331004543 3.231502415667623 0.3866535491377664 1.2921402896040584 0.4172201090707137
P 3.6577002665442255 7.914046983976028 13.11308517336547 0.9723667901182932 0.31911401152489555 -0.7406841700341888
Ni 7.5955451007073815 4.372808086585117 12.692504293319582 -1.8412019407998226 -1.2462126738340085 0.20392061947948753
P 5.759673753896876 3.5025110691534183 6.181995116823852 -0.14109005730651183 0.04155082685859296 0.4567284515779812
P 1.6290882715716144 4.7780747550966725 10.064874408590144 0.7575022700327921 0.5825384427969709 0.5653436761852393
P 2.5545546133234542 4.796563333226794 6.53457304279044 -0.2798743492979825 -0.02498649474200858 -2.0069121106478596
Ni 3.02333640219485 5.611153783086072 12.675544079614044 0.14316930843304376 0.15453641261940484 -1.2015351284209759
