# total energy = -381166.5427027467 ev
CRYSTAL
PRIMVEC
9.28762428871582 0.00000000000000 0.00000000000000
0.00000000000000 9.28762428871582 0.00000000000000
0.00000000000000 0.00000000000000 13.59337695398237
PRIMCOORD
 96 1
Ni 4.455152546217926 1.7723758840657748 3.1152353748007964 -1.6736076665551949 0.23981964736894185 -0.6881945847759051
Ni 4.178985043321684 6.764706033529468 6.8532096611938 0.8953650786512579 1.3624273080550793 -1.0045546877047475
Ni 2.3953804217075128 0.42930742178828885 4.145490155733151 0.9149589416227855 0.16590428813671426 -2.0960275746592933
Ni 6.233528235458444 0.3954800372566361 3.261513597000738 1.3584428694860347 -0.5586279547279605 0.2941923085825514
Ni 0.6710856388942537 5.455894044017494 9.186811593612092 0.22423310578459446 1.2804818794295239 1.203174720906928
Ni 1.8418473124049002 5.329350165525438 11.879292894196269 0.7791481304373421 -0.479092163985162 -0.09968269800431866
Ni 8.083474356086835 7.341941159559547 12.01026511186374 0.6795052845320232 -1.1215149418425912 0.24826417859186922
Ni 8.135503626348305 0.8316157202902358 12.92046341974453 -1.2262190043209011 -0.3714930393472441 0.8027932806601077
Ni 6.269332026400599 7.931649564768696 13.423404982997825 -0.5216606334749919 -0.4979404070399166 0.7451008110446459
Ni 5.775843406965962 3.162361708294855 7.916388140831951 2.129981563007235 0.6397909966615368 1.8589188984636114
Ni 0.05386914859756173 7.277076392778738 4.941450687066983 -0.09794977447361196 0.012937019776642238 0.05476629710760245
Ni 1.440073981051661 5.29773509305667 3.115479639314877 0.8269495661913371 0.310237277860556 2.8794146828786475
Ni 3.287484580298157 1.3422288610579862 0.7152863707938167 0.24915455161662253 0.9799893396605573 0.5925685733394632
Ni 1.3330062503172442 7.44228465043868 11.34795442022815 -0.6029221486596456 -0.09104481982366255 0.10127961017779331
Ni 6.615026683380625 5.597335271581204 12.41216661242969 -1.4353677049685474 0.06061015748288917 1.8185536072726873
Ni 1.8380672493923302 8.154608269141564 8.999916733656448 -0.036428160920046936 -0.5973580243083066 -0.6193756662299784
Ni 0.8343202764309249 3.325582414395362 5.493546072157443 -1.5657414042988196 -1.6696314555162663 -0.17245083100598044
Ni 4.321085692197167 5.579317280808756 10.818628574404562 -0.7269904745971802 0.5327492871889857 1.6982262364348237
Ni 8.390151704182815 4.886256194508994 4.606143308891032 1.0567087440004834 -1.0762532417913142 0.5400648470137924
Ni 2.07100086205881 3.6303929500453296 7.68997722657758 -0.19997011947217175 0.350680473477267 -0.07333608968998984
Ni 5.954518719584692 6.06494857024675 5.268575668402456 -0.1763959316966575 -0.4178510577864933 0.7616036937956754
Ni 1.0706122939754028 3.226511328019232 9.776628664023322 1.3460277836511334 -0.46479477352588333 0.0342172693116572
Ni 6.723051039398321 1.425176631980009 6.6059601047249235 -0.7941008950924324 -0.9697548064167427 3.140166452414566
Ni 8.631165549824567 0.2490299940106692 3.7977039258036647 1.3498044770847462 -1.337115054542536 -0.3976023348397862
P 2.3811332063235264 2.7117819122461473 3.3147446858219762 -0.2896288575815851 -0.05332519378570172 -0.332943204098504
Ni 7.882146528265014 9.194664279796681 10.773050487849558 -1.8499789156615043 3.236992911917012 0.0952971673421133
P 2.3404255498515494 7.910139427331074 0.904722324705823 -0.10992108790287522 0.036651589784762684 -0.1523589453521118
Ni 8.71201431769784 5.0317096756880115 11.130746612703891 0.012114266765030749 0.5703156754785339 0.9740032972804517
P 7.516632081435296 1.9846073825921595 1.2158688775232978 0.8177239338280109 1.3119591241021984 0.2614979036733239
P 3.3924904584802626 9.24877397785868 7.749570337913831 -0.14150117670200146 -0.8712982675100412 0.48370857971125086
P 3.5893695143536295 5.898653660565996 4.068157682347738 -1.3456261773373406 0.6097800521217434 0.7240316490791724
Ni 8.296801794258142 3.921662129743634 13.41606497366408 0.013745631720866649 -0.9877288743966602 0.19979399890562366
Ni 8.713268146952624 1.5542931823503996 9.174700531773293 -0.9105042482855416 -0.7075259381146654 -0.7692576107965075
Ni 5.147303445354956 0.35180312735684927 12.191940327069842 0.03700974445512981 2.305202757669501 -0.061596175545242306
Ni 2.1063495594196 5.010840384313945 5.583601661810473 2.1352291845594196 2.4759067811877036 -0.2784628136624366
Ni 0.16745586269444288 5.307793589967267 6.931289788320028 0.3344997499523465 0.17702585197117254 -0.4951867555541795
Ni 5.85981281654003 0.779922662021532 0.7875960970608081 -0.6757648436529845 -0.29646542088744426 0.4981077858557164
Ni 8.928360233704737 9.028908052314279 7.322534668982729 -0.7042398111642258 -0.5932596858692171 0.28708655077570555
Ni 4.5192835906940845 2.73763865776702 11.110519096155793 -0.12394439876516074 -0.6541079275048413 -1.1319816457018699
Ni 5.627241421213822 0.5202481220189549 9.695435325295586 1.2376804679932814 2.3444336781456654 0.7231659586447675
Ni 3.8448906288544347 4.037163023169485 12.912049761063725 0.7319812429435523 0.8832829506757434 1.2235867089043766
Ni 6.819085072690642 3.4559620816446457 3.224376103236456 0.7156470245599029 -0.8672202407859259 -0.6374003849421732
Ni 1.0346599010474944 0.39820595493277694 10.634194006075525 -0.3390179495376742 1.0449634305390973 0.2922290142085935
Ni 0.9422387535337727 0.5116570697176592 1.7215465748392553 0.9599481047389661 -0.2640913754321129 0.8045452303542079
Ni 3.339551001056063 4.7135528241926785 1.8731261728809037 2.6916184797648484 -2.621132200818828 1.2349119041092087
Ni 3.996836159285998 8.931870955618132 2.028322371750795 0.8481537110727779 -0.4952931992250567 -0.3087082428105393
Ni 8.945198696215277 7.684543037711106 9.84262466342067 0.6587865639274332 -1.7628966800300154 -3.050876153388165
Ni 4.618791195403361 7.742172745310608 9.515975208439603 -0.5856384218785333 -1.4891580113161258 -0.1130190101019086
Ni 3.8968363104989168 6.4052192547468225 13.451828827822567 -0.5632428277921526 0.49879144218630234 0.06628535349079552
Ni 5.209409787775241 3.026195851225347 1.1681592812351622 0.4247174458890234 0.7958654431920229 -0.13431365781462673
Ni 7.418805536689842 6.461715872204964 3.4829630624558097 -0.8001175336001576 1.6610000050935136 -1.0539394087854623
Ni 2.4642945926000674 6.031838190296352 8.035153634132294 0.4476288032695581 -0.5090843394718781 -0.15849025506083028
Ni 1.7880905440590635 5.580441083326007 0.8958907229400911 -2.025165143320777 2.334655515712979 -2.132202996138586
Ni 0.018347701428334542 7.429096224203177 2.4631197081502147 1.7561020257056852 -1.0798828681241013 0.304388789499579
Ni 7.931983919236638 2.0292715669347867 4.913502368596649 1.424288050115618 0.8625081800222373 -0.9597097634759151
Ni 2.4338776236414263 7.658472676835715 3.0939481403418023 -1.1070069780344032 -1.3552174205702014 0.69922538866877
P 2.919100257618602 4.309197533336996 9.815288399379153 0.10345116390781539 0.23271157556925084 -0.16196355832141138
Ni 8.049072996385215 8.944752890258021 1.5121004347833125 -2.4534317400136394 0.9231363352272554 -0.36193239224200247
P 0.10463437321772563 5.723832711952713 13.315895161355796 -1.2919523419629686 0.7777419941184348 -1.5740998035658438
Ni 0.11981220853748485 2.630115833451237 3.0183413075159353 -0.20591193887790346 -0.7321805034385519 0.5629962589989852
P 5.3781937807173446 5.215753235042036 0.7728148432905249 0.7417030982170065 -1.171045701582867 -0.19258076898663606
P 5.446996500120585 1.8046596654704272 5.022209364986394 -0.7789151884909294 -0.10860802551840651 -0.6250835152480332
P 6.887163357413342 2.508317930879139 10.160641271791947 -0.3502878660245387 -1.9634874638053217 -0.023383154810630694
Ni 3.4288236439966613 7.998566896477706 11.833781678534855 0.5492326295559896 0.19639242942324242 0.03285175642269826
Ni 1.7296528131620346 8.177112182358902 6.549846137380094 0.8575323240742005 -0.2916577150861558 -0.15978146306842805
Ni 1.547959022707715 2.9951287485790403 1.1011100652637966 0.22538778821432795 0.4599575000382401 0.030053624852270824
Ni 9.029966841462763 2.593336841977582 11.415622191965209 -1.4457729594622715 -0.8135237797037345 0.9707115139030572
Ni 3.328127223401367 0.3115877149626764 10.020805874436773 -0.1584501458515142 1.7897775635812596 0.7222665867589497
Ni 1.511217181730498 1.3086076617815645 8.091212804494878 0.5868499256881312 -0.5672653186879844 -0.393494997539632
Ni 6.146568210921113 8.633088088015235 7.864339366559853 0.49652964273531913 -1.0223395224919942 -1.078039901378092
Ni 1.0385885660458165 1.1523062356426417 12.99268491358248 1.1998690535724625 0.23672686737623103 0.15256797603912434
Ni 6.784674425364912 6.524472348312915 9.662457758369952 0.16358566730586666 0.530976511559279 -0.06233151104937007
Ni 7.075219170382674 8.768334470297901 5.624558226608585 0.1784237607599637 -1.5859011670761463 -1.5067351009679406
Ni 4.042977075862037 9.14231923031549 5.73205504557686 1.4760914079401546 -0.6099957676769753 -0.01094775726075534
Ni 0.3302038287277757 8.206990469119193 13.42258952960101 1.4592879632295706 -0.7246433145212423 1.2681488117854678
Ni 8.285247989865914 3.8969756248605596 9.079750364214553 -1.4311112436850386 0.09838069136344348 -0.8653219953219484
Ni 3.936903120907338 1.999263253436964 8.168096685635803 -0.6872576747839326 -0.30902474560969356 0.8134191358050701
Ni 4.337236870523603 3.73021633397433 4.380873843639719 -1.2304669809639777 -0.5068706196500109 1.2136648218049741
Ni 0.9835872560693056 0.9956611674116671 5.573365771279383 -2.2863989946994363 0.10462358694936176 1.3535904264897398
Ni 2.141029547844506 2.952182774696672 11.923743463184378 -0.8947205030887235 -0.24375754897076726 -0.6852496432149683
Ni 6.693730010084602 2.6486074930532686 12.379610703638628 -1.268211803812919 -0.21744153678405778 -0.031059954629598124
Ni 8.975643528046247 4.674321899954114 1.9564538076290054 -0.7918817759539266 0.057066920216321065 0.1580832494303987
Ni 4.12364937887723 4.245577308186861 6.803797643406391 -0.12074826042536625 0.12804273720425044 -1.502101201740355
Ni 3.206998029765154 2.0070834329371703 5.927337558865803 -0.14708407010641766 1.182326416703009 -0.2568629760044738
Ni 7.576221477721906 6.236360960811844 0.9994978849313052 -0.7832235860582963 0.46715350356604707 0.08176030919794305
Ni 7.138003509362953 5.2905650472441295 7.240280683581686 -1.682845125993063 -0.5950018653713043 0.6026290428992589
Ni 6.5259583681704365 3.770069529028232 5.673617314679832 -1.0558697930389558 -0.5845981535394771 -0.5523470068152552
Ni 6.354871044449175 4.451892590155489 10.605864895016703 -0.39280928432651707 -0.8632710263301907 -1.4084955631680516
P 8.16358011403135 2.998202952159288 7.0990725753831265 0.7817212904811569 0.6273764250472679 -0.7472631088032873
Ni 5.2629808036388885 5.188345456294876 3.0335247154101608 2.617906751902994 1.835811880132503 -1.6821802387155544
P 3.1381767351136944 1.1270531856888875 12.287732882135314 0.030081135656096582 -0.7587919353784932 -2.252241117870805
Ni 4.933251572503108 7.751618259029978 3.9491209904233964 -0.2106679655056501 -0.7430704108781784 -0.10461304542640049
P 5.958484535079451 7.735067712866834 1.9293757395377327 0.6030604740097227 0.8544950799097735 1.4307381766163358
P 8.140500368119218 6.971931502660828 7.743195312725065 0.889108813328901 2.2055771381553626 0.8739714434668303
P 6.030565785793349 7.967564807200166 11.349531458801946 -0.11724024727210777 -1.3955683135834223 -2.896947549556088
Ni 4.859767890548675 5.327761981802712 8.628382048878947 0.39693384801785186 0.27496482781150705 0.14410339021153892
