# total energy = -340869.0045061691 ev
CRYSTAL
PRIMVEC
9.29289219008233 0.00000000000000 0.00000000000000

0.00000000000000 9.29289219008233 0.00000000000000

0.00000000000000 0.00000000000000 13.60108706012124

PRIMCOORD
 96 1
Ni -0.27299821958899534 2.3043491533631157 13.219304381087806 1.703179466675041 0.9123101911460288 0.9067131566742256
Ni 3.511811791406916 0.4170343294957456 11.362457233156606 -1.2535133212604799 -0.9830342971344683 0.024336262752519378
Ni 8.667025080688568 9.171573362662107 0.318043655313207 -0.07820087398145886 -0.5008974327857115 -0.055635587086433215
Ni 5.0341733700879026 7.829726212414024 0.9553975871285735 -2.0420819736807734 -0.6926068549109878 0.13738201232730535
Ni 5.7702540579510595 4.3101641490218805 11.585827691942354 -0.8070631116800553 -1.3945470714077597 -0.07019368740626622
Ni 5.181326315994467 9.0621588514462 6.51107133290159 -0.4800445005961023 1.1965384465373328 0.6853265191994906
Ni 5.710928234985002 4.239751905817963 6.138796218054343 0.06932516875838382 2.0473321663361195 -2.195210707319374
Ni 3.1733646622678515 3.6785448609020586 6.047083736939946 -0.3037383003997737 -0.17975816330067104 0.4199213100519607
Ni 7.060107477075226 3.5744551768414694 0.35446064075170686 0.19485773794627087 -0.2530747126066351 0.20355963659564297
Ni 3.557049589996948 5.010402152176378 12.306086301769483 -0.7444369522084018 0.7903617397649744 -0.3003357024761279
Ni 2.183151255004201 8.478277149882869 5.394734794482657 0.030276539496354306 -0.21064251158435338 -0.15521389830240365
Ni 4.196967430734046 1.2446992565627522 9.072604991420533 1.4688128720008704 -3.105655820232206 -0.5453793172481705
Ni 7.932068832765713 8.766431147146573 8.002172551952953 -1.3753193335263993 -0.525851531627888 -0.35877610600120796
Ni 6.991683912773992 2.2900102209012383 6.180361465698858 1.1043214607824399 -0.6373577046296959 -0.20805881001757717
Ni 2.3085681263622684 2.6175382018596767 12.314886670558463 0.5655959014053614 -0.523002492214867 -0.6851935931660522
Ni 7.1159670512996875 5.7345600595154975 4.466175079648252 0.8617479048174448 0.2163272206739565 0.3708798312432774
Ni 3.2245313259976616 7.201210750245121 2.940826765456412 0.8746990656614743 -1.0822259144349813 1.2774240664398064
Ni 2.0831318576696662 6.180563121456746 8.912370441348976 -0.18355799666273548 -0.5525892047330483 -0.7226165138992007
Ni 0.8873791929215316 4.462251620616882 10.646440828558804 0.12923264374729357 0.3609072934115978 0.47983701257098643
Ni 6.555010914469636 4.8661207099190165 8.070190946159995 0.2441226456196699 -0.19888639948968972 1.8177460237697276
Ni 4.493670888700879 0.34710252881177517 2.938760026260351 -0.0017576061210550376 -1.3677186383610058 -0.563863492095287
Ni 5.697537177514124 2.295195654675527 2.5131678724586153 1.1956714705513471 0.1984626816887098 -2.0098084583590485
Ni 4.93400528648027 6.754454964046314 8.026939967894233 0.8574009407026589 -0.10363474067353118 2.2788633484440237
Ni 8.441598104888033 8.222611103291053 5.088792343221205 -0.1672021810125314 0.09496112415893322 0.9938498996927335
P 7.073535706114379 9.133890685323863 12.562942767835288 -1.2761842804954344 -1.6426433569631969 -0.8042071302884989
P 8.239217501417674 1.581891845272553 1.755791593131014 -3.478351107417668 0.22436526048708455 -0.5430900069933615
P 8.148695439777265 5.442252139497122 2.5837306605140444 -0.5309114626492986 -0.08200482110858136 -0.03217452785001555
P 1.2358524233134278 9.210417651508932 9.995044407538547 -0.11189672357200729 -2.1324418516222696 1.030267261979503
P 1.1725957070023456 8.141214661662028 3.3776800458668985 0.29709071317626895 0.8509461862162506 -0.6103073853801231
P 4.330199624321821 4.537319602747178 7.795612934919335 -0.7447462559187045 0.47011644284911297 0.6462213256679129
P 1.7279296441308838 6.202996162910389 6.452056821819832 0.7176136613679707 0.6857001004888255 0.2132478104176843
P 1.4429538159546467 3.456258882620718 8.661756940174868 -1.4738877154206165 0.35472404741902136 -0.809945832544489
Ni 9.064621467844384 4.809796491091123 8.525840959357675 -0.11943854047500721 -1.3733056455304802 0.6994231065018728
Ni 6.236366938328796 7.082847183967134 6.218689069746665 2.242029724555442 -0.43552816335128214 -0.7366174561639829
Ni 4.943353935901301 1.4074828469287322 13.181765743576625 0.48381373783054743 0.05704480872913402 -0.3005480755972501
Ni 8.382021373836125 9.262504311553535 10.305352659493838 0.07382408507000189 -0.5306705502830861 0.6387188466432806
Ni 2.032020951292268 6.551628301756659 0.7409167088956653 -0.3737710367481434 -0.8569980488372855 -0.7257787136772662
Ni 9.176256980264691 6.755309910116627 9.876075873986894 -0.16680186025031918 0.8736863081262437 -0.2580829644545039
Ni 7.559172952728283 1.745827754255042 11.749965256682732 -1.4752809962237174 0.04168169600950241 -0.5528691978673124
Ni 3.5245244677567853 3.000739899201205 3.151439942010361 -0.24207527617233793 1.1175978661763721 -0.32733254277994595
Ni 1.1815819336326994 2.090659100245247 6.081276933306425 1.0856413678744337 0.3146392635829936 -0.07947202738439861
Ni 8.72065436081656 6.495378426065315 6.977901624547025 0.7930878804468857 0.8909756913343106 -1.230979658934338
Ni 4.687669303525347 3.7167014757358037 0.43645926178677763 -0.9625338631882714 0.10340359849933159 0.6111746184764248
Ni 5.875050001808864 0.22385647704093695 10.53987644734034 -0.10555072674932145 0.014534703281065289 0.2688306898893112
Ni 7.096089555164914 6.806067686595418 0.5629095027428753 0.9342769252251072 0.6678232202084047 -1.074657358059104
Ni 6.6850091816175325 0.4192859972439717 4.132432012474323 -1.4937803405794854 0.8589348608486821 1.2425696777647826
Ni 0.6230140700642823 1.9951839271322664 10.302021157687237 -1.2831388574363964 1.1046659886060524 2.436770220197558
Ni 8.888242376382017 1.826378542705822 4.123604694298342 -0.3042905733588179 0.008891131842042752 0.2530456591409126
Ni 3.9394985630809183 6.784164339989685 6.041875070935486 -1.3720889995145595 -0.22391171788943373 -1.8326157417927083
Ni 1.742101304535526 3.7827367667754026 0.6409725839868863 1.1895100789356416 -0.12702483746269735 0.7077308550366198
Ni 2.610094595312714 8.84834799073144 1.535195062627748 -0.46418310808381347 1.4967463651863449 -0.8346711032053108
Ni 2.263246691743619 1.0697140989106768 3.392301482247662 -1.2508607141289811 -0.6718338840296946 1.197832225648092
Ni 3.119066293910917 2.9520079731933726 9.735875869926069 0.20765694659346817 2.9812558219868657 1.8252438748086692
Ni 3.103389184991159 8.158982671297226 7.896410147320013 -0.5625797402868569 1.2166629852013497 0.4624550696491133
Ni 6.8383976581021395 7.193330377770932 10.931057951101192 1.0261090168367553 0.18701715885592954 -0.4707008545976732
Ni 4.8873642611878765 5.382796216042104 4.177166136314235 -0.23944400919707795 0.08433321213144185 -0.007333557546935757
P 3.5897419842943457 5.0496088638138765 2.093043656350054 -1.4796899239246906 0.17990831572529015 0.5731644577812387
P 7.314249489367788 6.74076653402924 8.610263166644241 -0.29598513881691607 1.4782431641758347 1.4568778111261813
P 5.056792269382919 8.061583869526041 4.416694146539689 0.10852163645218729 -0.48317841823939367 0.21493702519464916
P 3.2712559873186726 2.0007689552655057 0.8691037913793875 -0.9556597617762574 -0.641224900894586 0.44937509653670343
P 1.333864555961141 5.189950119834145 12.67322058872437 -0.3215033376926786 0.434002213625059 -1.1477617913542622
P 5.744075980993762 3.089421968212026 4.368723308392277 -0.7306319280045095 0.1769991124982952 0.6793049955957592
P 6.49198652046027 1.0956319748900523 8.198912369937663 -0.5850784356100053 -0.832419845277289 -0.7899182244696524
P 1.2846865711340152 3.1707161880282952 3.9627716819775647 2.1407159187056033 0.06041758185610885 0.12103648108974639
Ni 0.9761718473479689 0.03688906435558568 12.169056103193263 0.7416151664888906 1.1636468380156346 0.3756710819843337
Ni 5.663590242787463 5.3563207665386114 2.000543137988238 1.4047276114851872 0.1381677414533943 -0.8089960670367099
Ni 6.274690825219777 2.731496937297138 9.50053616615594 -1.6723889636567457 -0.028134039232054774 0.06234513789612489
Ni 7.837225576313399 5.154423393455819 11.89605416644744 1.3769638111083575 -0.07958515592349519 -0.05647376671701241
Ni 4.752292074970516 7.55266792828025 11.930560533276632 0.526671713536338 -0.5709705354537135 2.383908853422153
Ni 8.773902632369742 1.9193353420682069 8.235688990299218 -1.408886370848567 0.38865181051471775 -0.8817531442947781
Ni 9.142960547982835 3.4138925876798893 2.105652252308755 -0.6037623851727537 0.6470703039317695 0.7451681739474715
Ni 8.93535733916991 5.161904171571056 0.46650411113382617 0.022813912570722003 -0.3317666672918996 -0.830552453051247
Ni 0.9295494078397128 1.3194977448230578 1.4459182485245359 2.8127529198850394 -0.10354552339383458 -0.5192769637341638
Ni 4.810279721478691 2.4857835781108117 7.246822123096311 0.0745463079480071 -1.3744153336548908 0.7893433258027889
Ni 0.6046884869049678 6.372684372083353 4.522021643823819 -0.7412004475489751 0.3965600096182009 0.6579969781466022
Ni 6.3419992424727765 0.3078744435225184 1.1914035912600216 1.7737400505024228 0.49207546361870735 0.3254129571597299
Ni 9.245451854607621 7.187801106990104 12.177991218917239 -0.9214831158945486 -0.5411783917929454 1.4914102976854122
Ni 2.1316779258361263 7.337258690129687 11.344326800730732 1.0281353032381648 -0.2885446233784708 -0.7854000248843248
Ni 2.676120593460244 5.257277122871281 4.5188118789033185 -1.387501477414888 -0.40293557412724157 -0.5871337754771372
Ni 4.272602279280528 5.349602005573001 9.81729182662844 -0.21474882044324303 -0.12256140237470504 0.894557495148298
Ni 8.52022526468061 -0.11908934114854544 3.001215695275118 1.5101320424646316 -1.166712621425152 -1.9572301700417005
Ni 1.1828643527381686 5.340299820612314 2.4069027223647623 0.5613234992822526 -0.6088007189276097 2.142366566935149
Ni -0.28569602731155486 7.184994653585383 1.6740215772408311 1.8031763534856686 1.1326614453777137 1.2164346712406275
Ni 8.779162409280579 4.1636802913442565 4.612277928751063 0.5203156894113233 -0.09331150437065219 -0.22815223833334256
Ni 0.8019756562325192 9.148443354303318 7.354039794627197 -0.193424347933854 -1.8404717475020176 -0.9486537627720694
Ni 1.856143676001605 1.286340705922229 8.585346135140655 2.1914869786108837 0.9233631065260808 -1.3125371080928556
Ni 6.729150418943468 7.5394255570824695 2.954074712389433 -0.7180245236531441 0.21611201933935684 -0.05394123010314582
Ni 4.242632702359234 1.5193320958666174 5.032905819609743 0.00108089176900459 0.2113973874725069 -0.47742917446044225
P 3.0925629657312186 0.9204990602540859 6.832913922492448 0.3595844608351162 -0.3296413934187807 -0.35591601084459346
P 8.685332078063745 0.8833693099939228 6.097435414035338 -0.6858273700953093 -0.6269149120298171 -0.3527270715936506
P 4.119111580983165 7.737949610344354 10.045613538308345 -0.6075928146624374 0.05199207679657497 -3.248742596253773
P 5.509681364347013 5.819813051352998 13.328235661916146 -0.7456880510066834 -1.6434457982598343 -1.15078900821636
P 8.113605479326164 4.403055898139786 6.608129085533856 -0.7872753875301668 -0.9201865085703119 -0.6411657655218763
P 7.934661549652858 3.3886345070373856 10.471544882670585 2.409914790567611 2.4089012617014323 0.4822283956212985
P 4.661509812352187 2.250180885495142 11.13798463737152 0.3239122042444873 0.5008033304100085 0.5418929013614667
P 3.115981053744136 7.90398571293435 13.296639828882844 0.48303675045520683 1.9938717325241337 -1.196582926622023
