# total energy = -381170.2549723884 ev
CRYSTAL
PRIMVEC
9.24267019931743 0.00000000000000 0.00000000000000

0.00000000000000 9.24267019931743 0.00000000000000

0.00000000000000 0.00000000000000 13.52758210013160

PRIMCOORD
 96 1
Ni 3.8598776222284945 8.668422890843091 5.302393140928996 0.6220215884932577 -1.0342910384269155 0.019143919918302513
Ni 9.13362495609938 1.1349906304420025 0.28380357576385834 -1.0370917411005043 -0.6098039633811433 -0.2250365755224963
Ni 5.399928264389816 5.54181249119879 9.098881759657784 -0.44454785035138916 2.1639530348566733 -0.43049445758211663
Ni 8.788790181946815 7.757908986119906 4.587785020493325 1.3174648844117762 -0.6044555545850364 -0.7673015155114011
Ni 1.4484188120144805 5.059493001146058 4.846486428868056 -0.4734784173428103 -2.1979119083006213 -0.23533332946281404
Ni 0.2733085240055631 3.4707150028687233 0.7294814249618257 0.5863274775257579 0.5715120097794802 0.12379707455401906
Ni 5.396166497709388 2.8090877152722418 3.799978650911908 0.6274854398213064 -0.02380378728781707 -1.9408838674731927
Ni 2.1919453982725683 1.9440847175132527 8.25950868574358 1.5118773072905125 2.418860172686357 -2.344736296987749
Ni 0.6375778603176754 1.105293931807566 9.370826065574818 -2.720949881739114 -1.4821676960412216 1.1903747409287821
Ni 4.198187071377662 4.109753205042683 5.190898813002695 -0.2833494523307766 0.5569613656588149 0.26664268109905687
Ni 1.9271059327664553 1.5586191661440745 1.4172710141937366 -1.482482399068163 -0.6967275619475807 0.9984776282727319
Ni 4.757673613064041 9.468098697208307 10.917394638603556 0.7120497941269479 -0.16369262519737615 0.9974509867804306
Ni 5.261796561591294 4.045137699237098 1.2208781411984606 -0.2827799529805517 1.916571001759441 -1.0354920007135522
Ni 4.606417318898915 1.559469491781911 8.12166258144733 0.625369164809252 0.15181798524697723 0.2142471982164762
Ni 0.9989754990680946 2.2942894829221525 12.059136115196381 -1.6505235310422222 1.4067392425985772 -0.4285033952940169
Ni 1.1239548824900831 7.772272095263359 8.749978362181574 -0.029373053845478447 -0.6512311201776785 -1.0723662480320821
Ni 5.577997544156717 6.600902315793923 1.4572048940941245 -0.34684438756062846 -0.7094918035917844 -0.07062511851672998
Ni 3.6095953619353405 1.1363862736084513 3.6232948473744817 1.6253154072077103 -0.09622353581112461 -1.1163213134567935
Ni 2.1770462142704794 4.9513814904311495 12.324654916945764 -0.6644920989526427 -0.34974999124319767 0.5094275817439098
Ni 4.072089324888519 7.82292192673448 3.0401886625632026 0.9652880288946406 -0.6413495993979084 0.4661646572902165
Ni 7.148419599860759 3.0524010024031285 1.820135891793642 1.95476628188224 -0.1587908170203846 1.2596271474677017
Ni 7.5494220794604034 7.807061505054836 0.723324882490491 1.1137316983527463 0.11825069081449312 0.6923083498339626
Ni 5.170941115722477 2.5676322048066282 10.894857312132903 0.1163187638991029 -0.8186050508813837 -0.8178350054845785
Ni 1.429554522592481 5.269680559081233 2.365270415540541 -2.370085831496131 1.5557123021975916 1.572472552375066
P 4.947656694430627 0.8156794894294935 13.089071785884698 -1.7170955625355009 1.9451770955319079 -0.5717688629852927
Ni 1.078730498295157 4.922017527915866 8.05049402262842 1.4029658915990741 0.44171320911607154 0.24959986668415726
P 6.689373152808808 0.07195048869892111 7.57577015876236 -0.20881677122952422 1.5122511456901633 0.15984471220619567
Ni 6.626467540948872 4.3673556599572105 10.575106220029513 1.0531025147064637 0.19498475044243838 -0.2194991906440349
P 1.044033515203444 3.4645039286445276 9.692349901779698 0.0899292181619806 -0.3822561914010191 0.6692892632309698
P -0.4351818731726744 7.08570808407033 2.4266047735044745 0.7824514837789622 -1.655736442701729 -0.7385547823960119
P 4.964090161648812 3.538778024575536 8.924173114694332 -0.18961731548293795 -1.3983754440149143 0.33610566098688566
Ni 6.69412388517672 5.1066768313759985 2.989068379190279 -0.8792784575020405 -0.5642609846440217 1.42274050312284
Ni 3.161353596085897 6.383302136537609 8.459297315688215 -0.24183822046086734 1.1152615047337116 0.5864920281280802
Ni 8.848987691503643 3.7296946156097466 3.7225065911690365 0.32943339117303266 0.03128312638399774 -0.5214066084826569
Ni 7.933741539752497 5.314673876526748 1.1357004674961961 -0.12047289527679253 0.27485092794146215 -0.249709395678828
Ni 3.261544138630961 4.396146576933951 10.191342244203005 -0.00232402014748632 -0.8219891368622683 -0.33338414829066454
Ni 3.7033899768566787 5.256417327664982 3.19434900363494 0.592290122867096 0.3559538060610644 -0.9706706333627928
Ni 2.760609911245594 7.392971404768494 12.399557514435175 -1.5318627492735035 1.6004829215450629 -0.9454568531013267
Ni 7.032729099765135 7.121652827608867 8.18516064845276 1.2008969806163445 -0.3195762958732948 -0.4203200881522761
Ni 7.23075330401126 2.257300317676272 7.426574980001989 1.4762122497887349 -1.3815308616537498 0.5243520642642261
Ni 4.88901195342985 6.310617779842556 6.750763891059599 -0.41278521322781164 0.4670727709267827 -0.14881133721016954
Ni 2.6899496992753904 1.095321090902942 12.931597023359393 1.2940398206196166 -1.6876224927770485 -0.7748412755318721
Ni 6.03359647530744 4.068503168937644 7.080931472226484 -0.7080435011810321 1.0737860111977442 -0.9339676215148044
Ni 8.785509034105164 8.922356005776956 7.502532166135715 -0.005036019762010682 -0.8648160022198073 0.24887018760698432
Ni 5.377413120327106 8.098704713492747 13.161930829042305 0.14175031659833007 -2.8447433567487073 -1.6922239961048016
Ni 2.0015001834071584 7.165324443247745 3.776751821261009 -0.7299418439160202 -4.74693726385087 1.735650442719553
Ni 6.409209340481688 7.526398588548987 10.627241348565855 -0.7064926117541446 -0.27863404913297823 -0.45528760536639656
Ni 0.7593980991417023 6.066176886974539 0.38364197258281835 -0.06844302326374664 -0.16659360089425504 -0.6919802770705825
Ni 8.556910077576838 8.411467422826918 10.15400555456601 0.5343865656820926 0.2156433072330544 0.0466863483129454
Ni 5.772740600561191 1.5244397725710443 5.763007144808958 -0.29810501337339623 -0.7230942248665676 -0.2519333999133403
Ni 6.920763395670033 6.156690354054226 12.544952107301215 -0.4011851670950381 -0.7347464643935153 0.3644325329560369
Ni 5.635154215291282 9.062502610630352 1.7504960705888415 0.9996266542755106 0.728091678081159 1.7350148660180829
Ni 8.044015835241904 2.8954419808625125 9.54287004878405 1.8381726670551954 -0.8341226869010087 -0.01308768642189359
Ni 3.54223478314674 4.329895118542529 7.366322938692301 -0.9747440321012182 -0.8336470328161707 0.9041934755761654
Ni 8.88632807820863 9.194219900465196 2.750035372525501 -0.8661653171588501 -0.9703996390895933 -1.3220933843227232
Ni 1.4622273609593448 5.938378489209723 10.266514727655728 -1.1382793057851235 0.07417015555551097 0.3889477444885817
P 6.179122314087148 0.30350247828473426 3.9073747789706372 -1.4751251873721434 0.8578285151583807 0.04804311945115597
Ni 6.788029412137777 0.8506759350284447 9.540299662263592 -0.04397203470557588 -0.2156088544506932 0.8683895785036787
P 8.099213060341453 5.926520143629897 10.493994396849903 0.5196484881409696 1.7577706716573596 -1.1806801393488375
Ni 3.8813945579337443 3.3201981223017154 12.6392393565323 -0.8458299480356077 0.25875042283517374 0.8410741785181772
P 2.7457107272435057 4.089317661724682 1.335141573049716 1.65455424946817 -0.6532082985087073 -3.8580035426472525
P 1.3203893475002533 9.186622425744527 11.338264237317649 -0.48078420697560426 -0.3834620387836622 -0.10678922714211286
P 4.756860258106111 6.429469273070137 4.609293637795596 0.271225672484049 0.5032304517942624 0.3249997808817113
Ni 2.343894892685931 3.257994953359992 3.0739669242592536 0.2387133016786405 -1.0634846292717361 2.9424511904148423
Ni 2.5828826102678235 1.639640411157915 10.57371242539706 2.0570547929405216 1.2961982617235162 -0.034987828929094585
Ni 7.313817179089902 9.046605218270802 12.307488505998446 0.8216019287261785 0.5191584358784284 -1.2830180155878161
Ni 9.056957008644462 3.7194444946058276 6.615068556066877 -1.6590238552037493 0.47362471311268756 -1.932389713959253
Ni 0.11228827327728112 1.4340557028710277 6.291055668837332 0.7784359348616658 0.9924049397160909 1.448843370857479
Ni 1.1169396959779332 1.6959467566546427 4.28518647533229 1.0570944094746764 -0.056525188780238135 0.29000398153281665
Ni 2.9949208378193872 8.814512532491365 9.611373945848742 -1.5891163315793342 0.052200079042323 0.3739654121471366
Ni 3.1848392204961375 6.133472767073304 0.7872527336498258 0.709038775214766 0.08314356269871488 0.29561721395453605
Ni 6.94291807560366 8.267041461774411 5.818713641024212 -0.7673763346133946 0.004004493173702781 -0.022265753376735847
Ni 7.712943396684322 2.164993772621147 11.70836569838492 -0.3463101123237133 0.11338539230239182 1.0773960971465057
Ni 2.3034951822187284 6.573849020772761 6.132648320911401 1.077422322398751 1.3005992190046891 1.6888512229778267
Ni 1.3002033562716167 8.796396899337461 5.521093197912512 1.1588458170825655 0.08463120298783489 0.6636400353649925
Ni 3.261830661400232 1.748214055371648 5.719042536531827 -0.26843628266437 0.3860675947273093 1.50618257089858
Ni 3.582865560363355 8.554238945953635 0.914429099725224 -2.1627942386618817 0.9374542945118243 0.35497318731534994
Ni 4.013084119758658 2.1518691812545425 1.414064731978895 1.8720374381234404 -0.8381755168141436 -0.24719382834582587
Ni 2.976703535295741 9.151685133233427 7.391578534403038 -1.2791577613014615 -0.8136698183632955 -1.1687533060042645
Ni 6.8061542879616574 7.5385989129179425 3.595603808124942 -1.680219258334442 -0.9585507101708073 -2.0991391237050814
Ni 9.099214495776938 7.060900757853452 12.08790854683317 0.7586363836372354 1.2951250832639956 -0.12341757972741325
Ni 4.4855694089564135 5.963629463585472 11.920356501232506 0.7482851223098984 -1.1679305529926531 0.2767615147006136
Ni 7.992857656922077 4.848741640342317 8.34239232875768 -0.534355455333841 1.4987852499932446 0.5797061155544984
Ni 1.0694508576387693 8.351787502788774 0.8573537640864529 0.32977354812127074 -0.22838775138291634 -0.3559075262041612
Ni 6.69349538361832 1.3972791190346063 0.46941487423156814 0.8939540572363442 0.14230258955737426 -0.6286138969987948
Ni 8.054644905714857 1.2111132603683077 4.437290322334261 -1.390186994666851 1.1699771511090367 0.5318653419221356
Ni 4.9981771285220775 8.289316296417734 8.215408210217793 -0.9709236299138634 -0.3158787924170495 0.7741149388888088
Ni 9.09040623128935 6.446947161995665 6.332910175558832 0.04177117039951515 -0.49211300172486216 1.6218930117897228
P 5.899106384479651 4.162325511868912 12.47132130120057 -0.5811233076169992 -0.36349356608153527 2.1781918041638746
Ni 8.904231129953075 4.5546213963507105 11.963847884806842 0.315761807223211 -0.6696826420146466 0.25366015279645987
P 4.207485197374003 7.266550164830174 10.25760017246341 0.7232556901450963 -0.7782158484310597 0.04858048001186472
Ni 6.730225754104858 5.777898010408069 5.360399213434398 0.9701546129583226 -0.11377851397575243 0.44777844147354495
P 9.291009140458915 1.920728490482683 2.4359796136616203 -0.9102257978131744 2.3626802830606795 -0.9247214203261881
P 1.8138092841947402 3.2134360414033725 6.249715978833522 0.5305427664559702 0.2772381972267161 -0.13573830607629525
P 7.091771275574901 3.6219897823738023 4.934956341615943 -0.6478940853846455 -0.3841948031846286 0.8475268761220565
Ni 1.9627641535357225 -0.24932009834860197 3.1287805785547795 -0.42170102766020273 3.6860777309068067 -2.1253178389829785
