# total energy = -381165.7555148271 ev
CRYSTAL
PRIMVEC
9.31003442536033 0.00000000000000 0.00000000000000
0.00000000000000 9.31003442536033 0.00000000000000
0.00000000000000 0.00000000000000 13.62617645421450
PRIMCOORD
 96 1
Ni 4.978652527633391 8.406942294231634 2.747731850032585 0.3255188866099749 -2.3728088868542487 -0.2995142350160971
Ni 4.454218299169908 6.284021737771743 4.258084738942369 -0.21980129526548595 -0.07781495139694986 -0.15034731423872172
Ni -0.08588320381199956 3.853320759533506 1.7123471156883225 0.03196138339794496 -1.3862431795277543 -1.4232138432148327
Ni 1.5660129285843605 8.959604546495955 2.4689130827528034 1.1910087749683553 1.0519835706106722 1.4615060539268119
Ni 5.446900699488014 1.8724713255013223 2.2348020308734218 1.83531462878111 -0.832497749703076 -1.0034717390532137
Ni 2.5652775231066847 4.971427941066949 0.3496327496788392 -0.4166156427174954 -1.3425544803905523 -0.04962151968186938
Ni 9.233021631912528 0.9551908924533355 12.926240525715198 0.12968335813146697 -1.5675154654801067 -1.7262093519113109
Ni 3.2180319534326243 5.8366559727064615 6.302733044577458 -0.6685192178341648 -0.42797091982931457 -0.03166467809313256
Ni 5.317845004920984 2.767547326898583 8.060346477720286 0.3149405968734963 0.11456244332962852 -1.001123036315379
Ni 7.780516640722572 2.51271306981528 7.986628695643298 -0.7476297481140867 -0.617871056659994 -1.8895062843321653
Ni 7.560017789898338 8.72269210531523 8.694549733829355 0.03138134252475886 1.0276892168396816 -0.011370960841102997
Ni 5.926227812082411 7.182579691972933 8.433131420534986 -0.5246431131420835 0.22814195392069742 2.161024034135336
Ni 3.260643980126701 4.565156667115423 2.802373371961841 -0.6802455051321574 -0.3599184471357672 0.4542640491978886
Ni 1.3118676140344556 0.7608988569974992 9.233287898891653 -0.902229409871259 1.628945290650814 -0.9637852190968692
Ni 2.111487834419181 8.467010635116534 10.424092482749916 0.25772326712224 -1.4437448732886489 1.5909029911661117
Ni 6.9357427542975865 7.081677540932862 4.359940237488114 -0.5437451240788571 0.4718349682021164 -0.7863248506914393
Ni 6.732774697938055 4.782499416333957 4.9534828500787835 0.14026987539806166 -0.2265231873703518 0.5416010811526608
Ni 5.769996127583108 3.6718123320858926 12.084483090382387 0.7826155201606522 1.3453628963736248 0.3920127565671507
Ni 6.621314968075374 0.8454684149789253 6.861419819995317 -0.036375967525872833 -2.103300968392255 0.8427019439295874
Ni 5.644077914553309 6.981017450782903 6.392789005733632 -0.8906530178875693 -0.29374467952217154 -2.808881352744775
Ni 2.898101936977465 6.667055166272446 12.469573105445624 -3.688800272044292 1.4290489618393711 -0.5001469277729322
Ni 5.900634527970107 5.074825181282029 2.5709594370003694 1.1744747818690742 0.5297403251593328 0.7610570772635861
Ni 6.211598981456858 9.06869952766292 0.6725131159831034 1.0692382439260617 0.9769263844645174 -0.6057542187918019
Ni 1.252944407360474 5.523187120010466 10.853944211412118 0.49246858529206805 -0.4407971250597054 -0.24661070214884628
P 8.113015203395124 5.073410056078293 3.0815189214432746 -0.3246529390652538 0.6496244378121909 0.28165329557527624
Ni 6.371694330163731 5.653276228377592 10.05271149309787 -1.9202808465108605 -1.065175643820914 -0.7849423685216159
P 8.701241786437548 4.359395600485361 6.661606003234639 -0.8216934599987203 0.10184910952801814 -0.6409364231198897
Ni 6.663200812099113 0.7844122794616811 10.560681857019993 0.2186126742740235 2.387539508196204 -0.2051796886975692
P 2.8556016306942094 2.8862968135673515 1.514045248487426 -0.22452286911087138 -0.5918671763970647 -0.3858176835000323
P 5.7783937784631725 0.046273663158743976 4.812724442478227 -0.11634113249660608 -0.45201073438733763 -0.12518649870237794
P 7.816499923041254 8.065580578967262 12.54488476538366 -2.3625301306360607 1.6291957160987234 0.6654855732141636
Ni 6.94359111315778 3.156343666590816 9.803679249349885 -0.9674397851303209 0.4438425967542485 3.0289767822119122
Ni 8.809629205002643 4.509361631944437 9.399077264536714 -0.3969595590494647 -0.14355908767229472 -0.2892956426118824
Ni 8.523597023197503 6.882116957103379 9.98979986775757 0.45704109772239354 0.5336962244832872 -1.2330157155277603
Ni 2.100930255596572 6.862565885209658 1.700383721696212 0.13092340118615517 -0.8818225640801329 1.1015490402436254
Ni 1.2002123734528374 1.536788731120365 1.0500340732132005 1.1166745830311542 0.6859420412963025 0.762710553706609
Ni 8.922820601233054 6.23731329601422 1.1303135674190903 1.788379397682152 0.32467350789054406 0.37592613541793324
Ni 1.2415861655936455 7.5323018179804295 6.802718192136131 -0.45273655680976865 0.9617129099488727 -0.34488674961362537
Ni 5.095363116804671 3.3174072588581383 3.822619059636399 -1.5698711101964768 0.7609249225610959 0.8620821482284121
Ni 7.595284199580917 2.7682455794662157 3.6180627114363593 1.5570690733358021 1.9966703783151933 -3.023352751156916
Ni 1.6959623864379605 2.4122298703157883 3.686956964776138 1.5745710867753075 -0.04817655970522671 -0.6031286082434969
Ni 8.699798731131107 8.601903721148974 1.4304215899842867 1.1401065888018493 1.0022309246675771 -1.6744646152388518
Ni 4.652428928035301 5.142397409760424 8.330635391633864 -1.2968726620827213 0.3775379599897433 0.5982262858458729
Ni 9.28361235794609 7.529387777264842 3.4151151371521453 0.199146852239928 -0.6512511747823365 -1.439108145847586
Ni 2.367467225713402 1.37369555138979 11.231429790512122 0.36109292705984264 -0.5706548039855075 1.2655039179634529
Ni 8.003026458941589 7.105613638951318 6.889544502416147 -0.3793619005723595 -0.8299287034243191 1.4800236531150253
Ni 4.545261123955004 2.4318181823464498 10.57881780370998 0.8911397277160008 -0.49685154485111205 0.07856802751289049
Ni 3.618195844925921 2.733584322008919 12.8406543119953 -1.0296327137192975 0.26508536391426607 0.152819172817982
Ni 7.086109117228771 9.291972768689215 2.8890218605879667 0.10396075655438224 1.0105656697855177 2.3345817250522503
Ni 0.3451322791295893 7.361174078704958 12.191884576321986 1.2915666764887757 -1.0816990953972339 -0.5075496479949065
Ni 9.205678061364024 0.45236990846664993 7.457128877552495 -0.46169196623084363 -0.4886579532967262 -0.7044480705202899
Ni 3.8980182338962464 2.1907348458283975 5.680888858915491 -0.4817663683832155 -0.47568725206867113 0.15402759130378635
Ni 2.792805449778424 3.6973125158558457 7.763990398951837 1.0780753826017175 -0.004059514781354299 -0.1348808431720064
Ni 1.1327239352825589 3.2420146016222553 12.361408196698747 -0.17651086000796698 0.3344203028646628 0.6487446063103989
Ni 7.189506357443852 4.843880472046007 0.573606105279615 -0.7276455916826758 -0.7050851898836565 -0.9954642953677049
Ni 4.387707414594316 9.424361455512415 10.27522689733743 -0.46657911911981576 -1.5521472105541525 -0.3305399939736501
P 4.24667901600094 6.265364429164593 1.9969706893136918 0.16150281663490895 0.4337417608748207 -0.012480906075830118
Ni 4.817123433654314 5.916787437368014 12.610412510344027 2.91325965645255 -2.1629837289648686 -0.4921999050117136
P 1.9071418929928545 6.917010965416554 4.349067048504935 0.3618066652974156 0.040855086343148994 0.19510224985690916
Ni 6.991928810906446 7.2290181427376385 1.7515907719961386 -1.7248384397057133 -1.97322963079375 0.6935795032369022
P 0.43369211778418165 5.308264979693059 13.0163095209193 0.4559198396337567 -1.1716483681638725 -0.17630028665905767
P 6.199570417225103 2.114122574107716 -0.07486198528448187 0.2520506422174949 0.5074144079686229 2.003513626489272
P 3.1888077559686288 8.788355776775429 12.514129998291416 -0.524281873147923 0.8709234006691259 -0.5859148154683715
Ni 6.448185571439356 2.180484498135547 5.175207832411782 -1.3253486580352272 -0.7015578934566885 2.09253447390437
Ni 9.134288718849236 1.2101368699474595 3.2110224286570133 0.6972530954337476 -1.4022405833972753 0.9780175606461673
Ni 6.445616001990466 7.951607139861103 10.764201998409666 -0.2147925291969849 -1.540483143952663 1.0053926102250106
Ni 2.1342415580897787 1.1662772986658785 7.002886721201166 -0.33704437075107113 -0.03794819710899916 -0.15263482472131776
Ni 1.6109431538029788 3.2006314994472125 9.953145331970537 -0.043497666172318636 -0.07804609357114946 -0.029004614762466175
Ni 8.005065356439077 2.90959982925782 12.641017385885089 -0.4451440891744915 1.6024541863388209 1.193413784865422
Ni 1.3977992300244777 8.478731968218531 0.2276861972537357 1.4386414906238127 0.6086171421618938 -1.0198334682406887
Ni 9.191582669532075 2.0433290737839753 5.727844947583669 -1.461334047125322 -0.5836306474198851 -1.2661693194615935
Ni 8.511438118486456 8.496998255387808 5.254116889578263 0.48280535117069107 2.6010814528155395 0.7230538585469354
Ni 0.5538679016977681 2.9401832917201407 7.8529421900477265 1.658875502551343 -1.2867507431573713 1.1821199571191576
Ni 3.4640682281637525 1.7519156921909438 8.783078849370971 -0.8282371746545091 -1.5977994611756288 -0.3309169176970946
Ni 8.87685696221434 9.125202125435774 10.69266462635054 0.2629860581830761 0.8497380248407622 0.14936078195573632
Ni 3.818957423171732 0.6102960191967415 1.3090112955311253 -1.5905111550443316 0.39237039701688553 -1.3191962652805862
Ni 4.344108524271318 7.685358780805561 0.47604439452309927 -0.1975705088917436 0.5498862039795884 -0.20552113119738802
Ni 4.813902161808968 3.786251272903807 0.9455149738727907 0.5102073973327278 0.41847197919994383 -0.6172920442280724
Ni 3.829663962542103 6.646954802358854 10.293799484633041 0.7834225894429798 -1.0205060688276812 0.08397402901981021
Ni 5.011954520092363 0.753709648561151 12.529064224207948 -0.7265983813650841 -0.6998648220249818 -1.0079326030380449
Ni 3.307594482774337 7.494428598712021 8.074449317579623 0.6373664463804443 0.7516956906533441 0.17808720335615139
Ni 6.712758124332578 4.766607187894633 7.443543675596629 0.7423502448827021 0.049020652873076866 -0.02780596646867469
Ni 1.3985812729002265 3.6893338165163607 5.904712322965082 1.2460501801142154 1.3013885476752038 -1.9784343149231411
Ni 1.6332220657275858 0.3976883533901824 4.90536859315176 -0.7822026009929496 -0.6895199884555481 -0.36484905166816517
Ni 0.9961457330535639 5.364246215548748 7.793927745038242 0.6741525048605422 0.08676598994265057 -0.3303528176635085
Ni 8.121226653590487 1.5111954470080604 1.230811662973358 -2.0880954642964102 1.6803467850512417 -0.4381195782275422
Ni 3.3523478173424883 8.157535787107397 5.581390661038075 0.5078849198471382 0.39251283613202076 -0.38585804981966454
Ni 9.246651522032723 6.063420476570923 5.184037468880355 0.04265408722510074 -1.1990534996497026 0.8245026473127414
P 5.181052671904581 -0.053626728197630154 8.246616056675732 -0.1822737306336732 0.10174549407061832 0.38822192206615075
Ni 0.9710365707214849 4.558025180891333 3.6170823648314023 0.22814169681038132 1.362810659536427 0.47937215711942593
P 4.028088722194903 4.394056857942658 10.727316573773603 -0.24807468828888246 2.3371276314025553 0.008906558461010468
Ni 3.860070534353957 0.6671300541883655 3.679790100421954 -1.2730416211013946 1.6098970157701114 1.8897194287842356
P -0.48252324734730906 2.0976158834088743 10.941860726701064 0.9708621805483086 -0.4546797965790685 -1.5790178096927514
P 1.3185801487179665 7.006955206161906 9.13719624254086 -0.05777243092377792 0.028236112027557825 -0.4212621403505713
P 4.542095712315067 4.126086142553621 6.18002958636904 1.08197163233233 0.5438790785535601 0.26943541335284565
Ni 7.8951697123278946 5.20699973731782 11.435141718607037 1.7518825883076992 -1.2588455321066705 3.3265848013442327
