# total energy = -340869.3541215665 ev
CRYSTAL
PRIMVEC
9.26890724063262 0.00000000000000 0.00000000000000
0.00000000000000 9.26890724063262 0.00000000000000
0.00000000000000 0.00000000000000 13.56598266217075
PRIMCOORD
 96 1
Ni 0.9275117279414095 1.7362053356185867 4.979692539012246 -0.8902730088403312 -1.4401203891621845 -1.686524117506547
Ni 0.023488337511630465 9.05793751688104 10.97878689728937 -0.20930168128574275 1.5946611726569635 -0.27895980790351316
Ni 5.991986960303911 4.310523790086726 4.598447559258732 0.7419892619988576 -1.1022172699552437 0.725508490735015
Ni 3.3527583493328925 6.754845822313983 10.59949580315499 0.10819664901260076 2.4508115287819727 1.0128043293080493
Ni 5.793159633851922 1.288461508683256 6.19951871742445 -0.4419358666498389 1.0986575776284435 0.6527850949283597
Ni 2.1284098711409145 4.541097123396113 11.844526920675904 -0.20114125696213744 0.7918655780040105 -1.0636496940946907
Ni 6.656530524580719 4.088663229462288 8.006710905048314 -1.171683592277182 -0.8278669357992839 -1.30679943427813
Ni 2.3883656399942303 5.755685442399525 2.57774053497376 -0.3093656738888801 -0.1754273971358011 -0.2082542138578349
Ni 5.122313212739193 3.7506725316359963 0.4148818436616892 0.3041609897594891 -0.08530380357482728 1.1031161276204293
Ni 8.403561943705713 6.356338429955733 1.8992648764174322 -0.14544113518635596 -0.33878757869442294 0.44036055174291905
Ni 7.127428081480949 0.22094664638322878 7.957140789815213 -0.8509523568638376 0.3848175243702921 -0.2819515435419854
Ni 1.6059493839785792 3.716359037508671 9.428982064358184 -1.6907795503487915 -2.4510069326222306 1.4246729442588626
Ni 3.1748694840461194 8.050157053352747 2.8579590616638524 -0.42405255861151486 -0.5860549405906617 -0.25918699615196006
Ni 4.629021976257218 6.138083474197727 8.490107583188603 -0.2298159991890107 -0.8690405818241163 0.5852026198926954
Ni 0.35431973148488394 5.407202341722846 13.342998692241354 -0.11616989702606445 -0.30107900840005564 0.40043517630289105
Ni 3.992034872823344 0.8495870989630627 13.088025887851261 1.9869495514830036 -0.17920948988605265 0.6846446626411177
Ni 4.435839414236224 6.575696385660025 1.1482331398818253 1.0786227704647553 -1.8881297156996129 1.1654669219435088
Ni 6.567159722210197 3.4502579832403315 12.180407088352872 -0.1329460880431388 0.7223902568210075 -0.9918791491196081
Ni 3.6322715121917883 6.533226253274448 6.104692236328011 -0.7200340978840051 2.5952561043830142 0.15553914285230633
Ni 9.709180199452632 1.3689526980408184 0.9041550089107644 -0.7837126098795728 1.0493862421971412 -0.18815949999048884
Ni 5.803883759380101 5.995926245826362 10.617931659400062 1.4183189770163767 -0.00362551256772924 -0.6202146171915061
Ni 4.501361318608472 8.911562935773874 9.772988282899936 -0.05749423756172679 -0.29325874102468846 -1.1141106789587198
Ni 0.8269301824193472 8.982164201243307 2.7219193119861758 -0.08278849335214129 0.2890845550423408 -0.9079382873305782
Ni 0.8707183533962007 3.981570276694292 5.292713727970465 1.4815151500588872 1.2051994646464406 1.485835631811112
P 4.5196952168753155 2.7392308497986027 12.099133603235087 -0.13761675404593074 0.6553050331367359 0.5616749690844004
P 1.8484425318335478 7.034794623807126 4.781900549484628 1.452150580853841 0.6313163835316224 -0.7865891600964195
P 3.6038808497088066 0.5522294361328195 7.523083431120944 0.333551012885832 0.20164904983649143 -0.47540905870662
P 2.877448792647517 2.986794089843644 3.8731286979415516 -0.38949410391035505 0.12812321273319868 -0.021062734207570176
P 6.367257202533256 5.284611776264172 2.4714233897310085 -0.23110077943870524 0.01869629085792264 -1.5421723587296279
P 7.841717870225978 0.3653052401936106 12.572233452465046 -0.4300008057751497 1.0910936492382564 0.11402559698955202
P 3.3136991747644027 4.914930685023152 9.830100507849785 0.8799842253198136 -2.2729770648665757 -0.5043823060105184
P -0.03167927072619494 3.9656370253693667 7.53625640190802 0.4906659848656904 0.4824109439457498 0.3294588450943294
Ni 6.224089663286722 8.554413406947804 0.3435270160440794 -2.979572777857488 -0.7695352899379263 -1.966450145978071
Ni 0.4392738996167055 5.779163584113332 10.213122337096602 0.32259502809496055 -0.14418900794680975 0.8716713345787439
Ni 8.310112822206063 7.519623348096166 12.499031331660083 -0.16670801498493223 -1.462142144848914 0.346543568490758
Ni 7.651742350065615 3.9290897246281338 9.975039335245356 1.609104344665487 0.31949119235865625 1.8514279894032049
Ni 1.173230455471232 7.436175377369986 0.7868430860521751 0.47848332675656957 0.33751771084306387 0.9009402587461904
Ni 2.4166543444989843 4.822445529863116 7.779480866534098 0.7732016830459201 1.2543538148839042 -2.724475121283553
Ni 0.8703438895488902 6.495316423187803 6.68447535263163 0.5471286958391093 -0.9580256909052726 -0.5444094971357334
Ni 1.3290685907393915 2.3312599032793595 7.173054276738043 -2.641653717810947 -0.37293388555882867 2.9165671235592288
Ni 6.550216160010101 8.013498525726176 2.5924048729151 -0.27424466181603085 1.0700913359549764 0.34029090271282686
Ni 2.324428718738074 2.4491418639253153 12.802529645451795 -1.600527401629753 -0.6014581625196093 -0.4400191092431003
Ni 8.340422148461156 8.712105323638292 0.9595163373072233 0.8762165307472652 -0.08803200113926775 1.5032679683549464
Ni 5.972614944440564 5.958896961915324 6.57521440249022 0.2303551595219323 -0.481243663110526 -1.4146955213311765
Ni 8.424222337657579 5.776670248100298 8.394318062643265 -0.7423954962983408 -0.28208755489921744 -0.8633805553248614
Ni 2.5729095805871682 7.3708944645826415 7.978615920702194 0.05359181718352706 1.1472568266933854 1.7453890101635552
Ni 3.9688162605086625 2.857687482685481 8.226886378359852 -1.1632961395444352 -1.3320600086171317 1.252987530663997
Ni 3.4730224191065417 1.6609881544075527 10.540538138799214 0.35512719639471096 1.8353094865747877 -0.6872437908268616
Ni 8.838116115821165 1.3757746136749924 9.110384700881596 1.067678869858742 1.1768936757232118 0.05553711383535597
Ni 8.065219027409178 2.297048367130262 6.555245469008883 0.275198541088868 -0.06909685479766164 1.6005155745552113
Ni 1.8684355644733754 0.5928318837353992 8.883480001007 0.2994489289958004 -0.7860114332160786 0.42089704370166864
Ni 3.0428524400548986 2.5529165479473406 6.043496130904769 2.8909766766846343 -0.7990690377309851 -2.0202805615349657
Ni 6.758544116251531 1.5831942170194802 0.6977401550971793 0.35017088083070014 0.29354207659306225 -0.2847347627140774
Ni 8.889790272968611 8.144560872284895 8.711599241309997 2.0890683697326407 -0.2543479228921039 -0.7772575982828485
Ni 5.0841994666960915 8.114761335920942 7.29046723068415 -0.4084516188494643 1.6225740970171476 -0.8977700885483249
Ni 4.442160808886369 5.217847838338963 12.263133011215054 -1.1571319197152523 -0.5727595090333362 0.5797313123654789
P 6.766626603252889 7.226039984241786 8.297267043840028 -0.6022567471615048 -0.6598448299886185 0.4111733886560015
P 1.4250017793449616 7.729527018546575 9.884771302666426 0.8669582453737908 0.23680939978770832 0.021066590862312107
P 5.279180196696746 7.939486302439655 11.548924788852608 -0.38996641556108325 0.07259715464143626 1.2235388863855767
P 5.725728334614674 7.988555896688727 5.054413833692807 0.9192118033618686 -0.6486934413574893 -0.37738935022702097
P 2.6928492386119096 5.5790293417586 0.14106349733219053 -0.08668782840654748 1.5282369795954585 0.394858710656378
P 8.282176336171553 1.0659428556538915 2.6491648793947067 -0.6824736231317279 -0.8864585201902476 0.009443919021719219
P 4.9582906324914475 3.5267542736327733 6.598046501378345 1.7855522126460024 1.0771199606669837 -1.8676012567289577
P 8.148731880485139 5.440931894702138 11.742877597054578 -1.3501189230013715 -0.8969378224550165 -0.33260356137089814
Ni 3.249354421595333 2.4866531310061597 1.3461595285625618 -0.2119684294846285 -0.8361039789970957 1.3107669035663103
Ni 2.6609549292407246 0.9029361476255826 3.290198787673527 0.6929632098091421 1.5410367024632878 0.5106905076167334
Ni 8.165369568750549 4.886502946911724 5.804029281221753 -0.9930194333716382 0.1921205415207659 0.4041979857794329
Ni 1.883061899895558 8.985315629661269 6.044608399758166 -0.07206005119104364 -0.33228782990269223 0.13400538254558855
Ni 4.095985666080491 0.09890294644414258 5.175544546281396 -0.6942418194112496 -0.8080167338425761 0.02308773505739895
Ni 5.014664125544498 1.8810320092381068 3.9035297863770495 -0.42206072499246666 0.2890051079546571 -0.6164461512880094
Ni 6.76342883029937 3.084006387630622 2.648717191181214 0.32964396452194195 -0.2503886811340398 -0.47568005297981947
Ni 8.039924179901487 7.370987153653758 6.456878265395793 -1.217800698350219 1.3737080231752214 0.11013808900968772
Ni 7.8565851972330645 3.7702855390842465 0.4835625915775881 0.5012645863171432 1.238782957028841 1.3815213485720532
Ni 4.369492577131038 4.0752974654072895 2.7312252947262716 0.16802030603845255 0.6953430228952282 -0.1902562346185175
Ni 1.4298494177643544 7.26371809165064 12.037204327259312 -0.34788645567189763 -1.2932885442758886 -0.028188289508757906
Ni 3.740569422884299 4.730312593173322 5.078873552669737 -0.5777952716850306 -2.2571845779190096 -0.88844675426487
Ni 2.348231272200789 0.03636192259900017 11.508755199212143 -0.5108082641415204 -0.6073614153779217 0.04842132872618112
Ni 8.742757599456517 2.606286915096217 12.220724980507123 1.3107807875233812 -1.3540653092436292 -0.403030447833893
Ni 5.1570623455007665 3.5271435677314624 10.088912493565523 0.3167699367727512 0.5720090040205568 0.5173596921067928
Ni 7.129661888094857 6.356913102196655 4.165407926565321 0.9833821673921903 0.9565370221748881 1.0340596391423997
Ni -0.23564527928088222 7.923942345213419 4.375585956666236 0.7765903970124948 -1.0589551168324989 -0.16633134837180388
Ni 3.4309045051912075 7.852859096574181 13.31114516606146 -0.12983942409335703 0.25902244554963777 -1.5849105210281025
Ni 7.739620858391161 0.44329660530316123 4.9184009638457535 -0.7347287237817023 0.06883897315058467 -0.18601751394682156
Ni 5.945716576002558 1.0583516207294508 11.254569325035828 0.3069231258856585 -0.22332293526549926 0.5913583550814461
Ni 0.9751168348668402 3.6753811991680694 3.083426154045432 -0.4431723101601013 -0.2430816059496652 -2.4665891033312035
Ni 6.382930924459055 5.96849028077588 13.324467366253034 1.2989560269743112 -0.058415978045047785 0.2563166165827005
Ni 4.745003810945286 6.497411196195036 3.4814654665945435 0.350968437031331 -0.45043927613515977 1.4920368755258175
Ni 7.157514953965363 8.055264221171267 10.227624469163489 -0.9473445570423427 0.7265821834151681 1.0624628728754413
P 6.802172862026064 1.9286834606990957 9.385692560583937 -0.9251968173007098 0.5319751280271225 -0.19404886889173031
P 4.989573193993264 0.8470909822778956 1.8712644349238508 0.1828717692289883 -0.2406362297329662 -0.2436066252151998
P 0.8392717322385083 3.444186849082201 0.6541948294866511 -0.01383484900056327 0.6973687950760054 0.048522630190735785
P 1.2121413275259358 2.093021183788638 10.856353903251595 -0.2884428076932839 -0.8947279592878913 -0.4492449987167425
P 9.265060515197954 0.261006862919777 6.900418642955991 -1.0890899885446663 0.6286581199731689 0.07800804124436243
P 2.1688223061477054 0.28423567103228126 0.6016123194422647 0.9976705589904044 -1.1966510608557972 0.17916912356642048
P 0.21125693088871061 5.7732036768405415 3.876886312884614 -0.8130748650917738 -1.008119265127554 -0.36445181622974654
P 7.830706408577339 2.6701589540025927 4.535311471577022 0.04097335708856815 0.8585733637442053 -0.7766988975659012
