# total energy = -340861.9693649181 ev
CRYSTAL
PRIMVEC
9.29284067567657 0.00000000000000 0.00000000000000

0.00000000000000 9.29284067567657 0.00000000000000

0.00000000000000 0.00000000000000 13.60101166358402

PRIMCOORD
 96 1
Ni 9.06292656571924 6.62790492134729 12.294199693059012 0.9293622615323092 -2.0455334225644837 -0.082248047467639
Ni 8.877069750950666 2.321528180433521 4.2348385943411975 -0.4088570818179991 -0.6512889699988074 1.070280826257963
Ni 1.1947340695360866 4.011524197124165 13.574027375952816 -0.5024179831952961 2.7525628806587044 -0.007604294709819161
Ni 4.92587467590038 7.159836418055688 7.6209731954505875 1.909338231456428 1.7210121239810878 3.390136815064264
Ni 5.66893022134514 8.07373154763572 5.608772087540848 1.5714932191809323 1.6144882346852196 -1.0739919565609632
Ni 8.840985650363347 3.109858445955904 2.151883655617209 2.0971051239941882 -0.5381349769809313 -1.1689674788975997
Ni 3.5304617106179266 8.919417226195685 5.981711442771395 -1.2417752068879453 0.8045035784829951 -1.025300662002847
Ni 0.5392235888358425 6.295620815063295 3.5565968959106833 -0.5334532552345459 -0.44316613951251416 -1.0449500608026585
Ni 4.879075929941653 1.4106439312527388 4.575394258166468 1.0427777357416879 -0.1439334402925779 -0.690251981525566
Ni 5.396965944294285 4.777653866122442 7.451831413318225 -0.9255344031457866 3.658660001015486 0.36769963374308284
Ni 7.3415021616512295 7.095204710719916 3.184812640783923 1.1170121688762311 -0.5158987912905502 1.1359956519572694
Ni 5.480759489232696 2.770957837066148 8.128318623417325 -0.7495943280396251 -2.8937565534226164 -0.061493588529106996
Ni 4.454188665699216 6.129260380163944 9.490295947722911 1.5081620632224542 -0.751243433607274 1.5373173446301718
Ni 2.377703402697322 2.6984550936249274 1.2481130760216947 0.7792288630766064 -1.407334195870099 0.4761855318613282
Ni 1.3200851982567514 3.0999058135250475 7.008995956473586 1.525585143794908 -0.2492681943763514 -1.4209939527453783
Ni 7.921840065766102 4.657190771630192 3.5963795471118964 -0.5157553237341505 1.028822044892544 0.03258539013518904
Ni 0.8702745351538482 1.5133019428901608 9.112378417708788 1.6730888179372476 0.9152808437385785 -0.5849388247083475
Ni 6.852382782224773 3.9852161649936733 9.370267758177219 1.2123651291569444 1.6938147376306893 0.31579420312304324
Ni 8.036857555585634 4.9240904504786025 6.2016534680844515 1.2092810909149818 -0.45174642498235756 0.5541840600239939
Ni 1.2328440094043827 8.896361688323644 1.304001149506679 -0.2634550273996947 0.28198651054497886 0.5194356007992151
Ni 5.5494986321748545 4.198496152781351 12.97846594014025 -1.0145783904893364 -1.6027634900491234 -0.9608611034715387
Ni 1.52022510924029 1.29886035001018 11.321821928859825 0.4247737530482555 -1.5461920214119822 1.80757808209779
Ni 8.26942948074629 0.9369227889298588 1.004029179754274 1.8446708731850294 0.10604155034281092 0.13227143057361737
Ni 3.244177165989153 1.7076152427307052 8.163190937572352 -2.130777833656285 0.8423324764053107 -2.0245455074589067
P 0.452909825489169 2.1306904030291487 13.240163486743288 -0.4214012370315968 -2.410180642634488 0.05292178769969596
P 6.904915210919111 0.7082380590500884 7.897727002618027 3.4942847479287886 -0.333077158573207 0.1900883415820855
P 2.529223170937402 3.789992166760763 8.740880382076773 -0.49603753359024894 -0.16267883922088114 -0.03186085326433868
P 5.935290915430722 5.644174093617965 3.0032119470735488 -1.7509896441797843 -2.0796265075934506 -0.09963564681646712
P 0.48470342150755513 4.256186108085516 4.671458070015901 -0.0851546795914727 1.3921554312471314 1.674723011106561
P 7.702027210939311 6.146953948929911 8.557199021325065 -0.02222333017457463 -0.8686315193111556 0.41807320109962837
P 4.948809406842822 3.9504516477912115 10.390969223500306 -0.271681529074545 0.64116885084567 0.08575168974552329
P 3.8103341951371834 1.878575633795578 13.08732878153872 -2.860514503540035 -0.3636185216951738 2.016290723649282
Ni 8.535418461202335 5.208637233889289 0.93158126407341 0.5350828204181688 2.0832461066239087 0.09990304154524084
Ni 1.998313886710232 5.331535052655009 6.721239425871847 1.342701290381062 -0.3889927387939042 -1.0569049191716895
Ni 6.614904237154228 1.6094085018069906 9.991861228750345 0.7292515027172151 0.06230528579712495 -0.4852494418358094
Ni 5.105672558507499 8.154978854211802 13.44964641980524 -0.6809759555402788 0.8769485238172832 -1.5203688897012912
Ni 3.1129622547625395 0.7723307816230311 2.6398748841780204 1.5018322643496846 2.1161590553018454 0.21116778796020408
Ni 1.1723290305157348 7.860683880866504 5.606731379714688 0.08108230929431197 0.30110214832850724 -1.1643186672716785
Ni 5.990973617135387 8.450268161516112 9.564381261941888 -0.19446204516974894 0.24221257308115063 0.27513991993679066
Ni 1.9148548840384036 7.8059397560764205 11.162853948767895 0.8003641023933248 -1.337344911165155 1.0584200702646351
Ni 4.838995907836811 2.2730846016640918 1.6229137872521489 0.30547225237174486 -0.07230199199852064 -0.16286961507544856
Ni 7.948417590278009 2.8533667487345338 12.027333468437257 -0.30391956317264435 -0.7168153338363913 0.19764995597942736
Ni 6.67024310375157 2.7257017026700003 3.492263488762615 -0.9114583846686947 -0.8915428766916904 -0.24619212655418887
Ni 2.277851828962906 8.10596841215733 3.485177697699563 -0.3450181329851671 -0.32127836616606603 -0.05664603062881857
Ni 8.617325559470846 2.350763457396617 7.646094531818782 -2.8043618676078674 -0.571313520615429 -0.7660517022647
Ni 3.4006686040242924 8.641291795735253 9.369696248471806 0.3304104103743213 0.8567309112188278 -0.21434181481281148
Ni 0.3157623647351428 6.608575812611358 7.367614114842141 -2.3644728561847277 1.1270338147782915 0.04766979527213726
Ni 1.0913140449581133 1.1230212175576322 5.511211199048454 0.6294227660533352 -1.0514729495228408 0.4515361087437644
Ni 0.11150107888411066 4.589120713221201 8.442963988695707 -0.09856478234979155 -0.5141602113328887 0.5745896202635394
Ni 7.726727581622053 8.191546182517518 13.13544896945045 -4.056718963776717 -0.7330017137882666 3.185501943126572
Ni 7.946624072015491 0.4743038034371796 5.6357287599548815 -0.6599037082510119 -0.5020968524104514 -0.12653838474458207
Ni 3.477892110560635 3.790577615727284 12.120446803352241 -1.3855849771184654 -0.742186208501012 0.11958920712025856
Ni 0.08392271542467579 9.112057814703313 7.482596291866867 0.5556945831312494 0.2877000159899884 0.0020442841235384147
Ni 3.9695577283494208 4.4713153711801406 0.8795952544144922 -1.211174708393269 -0.781325597704635 -0.41597081004464487
Ni 3.7002883751127107 3.8341145745868226 5.315642436424148 0.26430092033975766 -0.7442675165100732 1.8489797849730287
Ni 6.488187060845014 6.7314922170585545 11.450637428607775 0.6957194323980405 1.0115066935425483 -0.29538967132476224
P 1.1194806452362909 0.9028496590783363 3.2584491107952314 0.003147030269413935 1.4916172714898956 0.1133995333697789
P 4.032145010722738 6.822970941287648 6.009226614913808 -3.665756759961267 -3.170694188689778 -4.430402068796744
P 6.247892785030725 3.4739612389282795 6.138190800113574 0.33672169730432977 -0.7331636932874277 -1.8951953642971424
P 3.498252724618532 8.367394607810805 1.5037554075995732 0.8169554310931028 -1.3453824367576508 -0.2007818167401897
P 1.1528512363279884 8.802373897095176 9.482720423952946 1.842842304616723 -0.5414984941365255 -0.8498398405259493
P 7.169919150256883 9.2507627555651 11.48321162324819 -1.189970306401512 0.4700670776684162 -1.159128638430307
P 8.804381150694677 2.9071537109285592 9.847622401228826 -1.4552783278495451 -0.19148393637803152 0.5881755864780902
P 4.205233462316711 7.972439583586847 11.197467921950393 0.8332467120539585 -0.34224725510824927 0.9436797065962458
Ni 1.381575925422934 3.52984838312919 10.900449216984661 0.2830288357665642 0.24044185433397297 -1.4508367471384238
Ni 6.277601996871481 8.561503465155104 1.9097178016782002 0.34251285006481014 1.6489268759790634 -2.815922318751957
Ni 5.887349150061167 6.329047163199423 0.9089652775682961 1.8152425406215835 -1.8456502063791633 -0.8645848600456076
Ni 4.347925031855284 5.91803411017946 11.873723740315107 -0.7043830216103094 0.5912771082215494 0.37269631562672584
Ni 7.29744480371034 7.744532664476883 7.10765711730941 1.2889585494419673 -0.36828790214638507 0.9364641626844131
Ni 3.583263631693678 2.1949968609390753 10.255896854083172 0.36731911047521254 0.3275359170400036 1.1361314062041854
Ni 8.586389692652617 4.794362393770138 10.83588534738628 -0.012826719451023072 1.783948101383676 -0.04051441517427861
Ni 2.3056838869744998 5.940355513633166 9.071548463356354 -1.4402846826541904 -0.7875618084223339 0.9028451890783871
Ni 4.221700376105207 4.1223134444077125 3.21325245057981 0.9367536689003738 -0.1765540545410766 -0.6552556679560393
Ni 0.04413077138272408 7.02480214928558 9.85295370396046 -0.7486939277125428 -1.8304647568879766 -0.3126147769537971
Ni 7.157522500711819 3.470420666606938 0.7539067955750224 -1.0972498986476393 -1.8198756685182205 0.4451314907690011
Ni 6.12372184708384 5.700535172696536 5.192661911375857 -1.2487356973661785 0.05002569709882352 -0.3888904088880851
Ni 3.999527139730853 6.260744783771972 2.1521559358508453 -1.5641300939476417 2.293455901546218 1.3262955953295288
Ni 4.976344093950786 0.5604298514009368 7.602584522197384 -0.90669027385609 -2.4696363747979597 -0.9254274452542772
Ni 2.3265463144322722 7.675616957560696 7.552383667244318 0.68045453581917 0.5167135738823617 0.42820566154794
Ni 5.51403715191701 1.669765502403085 12.062124934877863 1.7733021916340557 -0.35649348061461833 -0.867408445537332
Ni 2.6672497344252837 5.957612318884427 4.353683805260888 1.219232545700739 -0.9256233633151673 1.0441244795775695
Ni 8.994819335947296 8.672329883801606 3.2869567583285093 -0.5814164133773858 0.7680067691085418 0.7351856088134628
Ni 2.738553701411247 6.6296984396098075 -0.029066147261657304 -0.7685914379674182 -0.8063414030226823 0.32048055285511906
Ni 1.8475933027736566 3.120127034971868 3.629660926932505 1.4412622160761113 -0.9013588343408477 -0.3311128357579846
Ni 4.76057362484521 8.211609425671787 3.5647708786242047 -1.0662943308063895 0.29419950767140296 -0.5790144888041125
Ni 0.36515753039618676 8.774588303287274 12.722399855024698 2.8560808932487136 2.4780312837298744 -0.5168207888841873
Ni 8.38800612856864 9.130662081861647 9.771157190496737 -1.3080885854031987 1.1084447389221943 -0.5398771564830186
Ni 2.7770260620683422 8.970946028090273 13.14929530215071 0.8908399370873947 1.48631128589595 -1.3413391199262126
P 1.9561615611207193 5.342491311885616 1.8440796796904568 0.23022197637817773 -0.6668397732492128 0.22168771365492143
P 7.255357528005995 5.058148970971174 12.562098352286803 3.2659111376132595 1.069444703509913 0.49401818916737494
P 6.777408143147131 0.2903287889181373 3.6542107535952857 -0.3240968094514676 1.386394103283322 1.8160519238967563
P 1.6581587443207877 5.325448241971338 11.956377053694911 0.452525212129911 2.3467733820224357 -0.6502949815166543
P 3.1606902847951095 1.696993525766681 5.663256942074328 -1.0600306092848648 1.6334529487131806 1.2987025162026085
P 8.943448512345261 7.4073140597607825 1.4711672736980512 -0.6621104860943436 -0.34457693168269043 -0.6997177549241562
P 6.356126501111204 1.1413095281308598 0.38295703754657306 -1.6133888309734539 0.1158672781839811 0.5252774042919728
P 8.524239173794005 7.160598430996238 5.175973827977786 -1.1575898331882775 -0.06880117793411378 0.8054083496854516
