# total energy = -340859.6800094237 ev
CRYSTAL
PRIMVEC
9.35266531930286 0.00000000000000 0.00000000000000

0.00000000000000 9.35266531930286 0.00000000000000

0.00000000000000 0.00000000000000 13.68857107669827

PRIMCOORD
 96 1
Ni 3.2350869204168524 8.19743341744401 4.624355202799102 0.45650836514737503 0.2357403350932456 -1.3936829236352515
Ni 8.970487318843189 2.13603651801146 2.724737228273278 0.9462922045184283 -1.0245223890759259 -0.658434322794337
Ni 6.525410681978493 2.3039075071255457 4.014721357107169 -0.21406696388487007 0.23180320482236852 -0.5471515786572448
Ni 7.858202895066331 8.342427787282757 13.220025107873496 -2.007622249341007 0.7317917526405655 0.9183736237312894
Ni 2.0967927344957937 6.571163920529169 8.928452700007913 -0.8342741248772083 0.2693665077881232 -0.8158470285202724
Ni 7.584272681674919 2.5304197075464065 9.870472787625484 0.17682350615237932 0.09390208676679956 -0.3047104345050559
Ni 1.2991787340708443 8.793759355708765 9.932618442612748 -0.24084423197871424 0.8894186312598359 -0.5426755451637622
Ni 3.3766488620977704 2.047345193159442 0.6318922537922513 -0.4914082623483537 -1.120898905525147 0.4778981436770609
Ni 8.086931677158596 7.5725350867482835 4.957261452914321 -0.28119281099908994 -0.18216600141121533 0.6091444754202735
Ni 3.097883320756502 7.513136309553813 10.929557380755579 -0.13373361694144065 -0.9172557080767622 1.1121643538656265
Ni 5.639572989965535 3.8494354446765278 13.497396166821488 -0.5263791219965838 -0.11578243177965865 -0.5476490871189535
Ni 2.701938236119765 5.704667540315639 4.4598053451260125 -0.39448127271230127 -0.883400192979898 -2.6271267278393657
Ni 1.3763101646365505 7.614734312492489 2.1426310823005204 0.9163185409744736 0.9065753455447806 0.702416641912558
Ni 1.5732679427720186 8.810322925919976 6.249489286148929 -1.0329157553459436 -0.8555952549524878 -0.8405231911107138
Ni 9.50034386496165 7.678416610385287 12.011598090815895 1.3619758223399576 -0.5802622451682845 -1.3525920671322125
Ni 6.694216937620596 0.9076555895785795 11.391135729262562 -2.6523176252826968 0.47838048263011806 0.8261131863329708
Ni -0.17018109743829155 4.338542428169213 0.5491361303270403 0.7919463106432748 -0.8052476557378712 0.020108854934733113
Ni 0.08885219069483719 8.917906634637975 3.52486148405943 -0.3767128929852867 1.765908727383462 0.17362196849594613
Ni 9.283979306369792 5.434693504337747 5.717374071365302 -1.1038229238794666 -0.20969300318689046 -1.3890161142872013
Ni 7.364017414326504 5.050177376673399 1.696451897177368 -1.8949994462362527 1.6890327428610137 -1.3735537569855443
Ni 6.624427349299837 7.876365771040454 11.091548349208013 -0.37592742096951387 0.5415157205277061 0.5246983918600512
Ni 1.304060825347102 0.20014142539684415 12.532885725004649 1.429414572708906 1.135626955763941 -0.7437101013447062
Ni 3.1432343947001313 1.0156433334366801 8.45974200895826 -0.6451589458416696 0.668179832216875 0.43904286137275994
Ni 7.554054220154633 4.184335683029482 11.378583517190023 1.046854991134855 1.3063752022565178 0.8156909625583824
P 1.1895374389912061 5.21380225575028 7.432620149423206 0.825335941847314 -0.46338169522844064 0.6361539141295818
P 7.295612020467212 9.536819259554381 4.314254491703094 1.1103319286425781 -0.9975183496832563 -0.11594415416850355
P 1.015783623415883 7.257266092818444 4.580222781141482 1.13936405420887 0.310675136728923 1.2851085795682577
P 3.5747944287238225 3.0254375754961695 7.345766623298745 -0.6140303427576651 -1.0186577027650328 -0.9383863194077904
P 5.878065954610316 3.1186555903437982 11.30770434336412 -1.9419876420603328 -1.3690283583113647 1.182542646478873
P 8.571455854663988 7.8865882341916995 9.697148259386523 0.7672295246228851 2.0194508665448185 -0.7531015698619352
P 1.616131207751118 0.9673274645992317 4.196121911815574 0.8197095967994722 0.7568443247338191 0.5010763815657371
P 7.06404938079505 6.1652582473690325 6.357464871542166 2.0722248158127408 3.590025944786856 -0.48633547581113656
Ni 5.4255465976937245 6.125892879204724 10.064412460675037 0.15923304676412578 -0.05396308448001674 -0.7054137768676689
Ni 1.8193646242895922 3.829963195563178 5.790689614496692 -0.4174815902622165 0.6074249216260055 0.5229009336399962
Ni 2.511302859713703 5.560402678368747 1.7163141524329022 -1.531767618456536 0.5300421726704677 -0.16111637982976768
Ni 2.6034079073929894 6.677400845446819 6.435421207185585 -0.20534501063083987 -1.2246791706376068 1.1630269450434487
Ni 0.4960793954590647 3.172433415704876 10.589656272277312 -1.0111336264738457 2.360812633724321 1.9169111587076793
Ni 6.897066894882583 5.8557879059129085 12.927938565373656 0.11254978377497392 1.3868227061803085 0.6397202913246014
Ni 1.7173270460827466 7.33838175879351 13.654979224127366 0.25694370864373817 0.2885122274786386 -0.7516537816718151
Ni 2.733063906172229 3.1607987000963234 9.376397668335965 0.19140088974592198 0.11492008377936339 0.24955590082009924
Ni 1.0383890153980961 0.8253895457740503 1.038828590666265 -0.15736514031745155 -0.4806790488563077 0.5543049018725744
Ni 4.146064576702955 4.0112646120196125 5.478015985182104 0.6142260037082389 -0.07397423749462098 -0.32877878830816926
Ni 4.9275452295195805 1.9336728993440435 9.74407245163028 0.6469957419400921 0.8609354362184785 0.148648329269744
Ni 5.4376395939010065 1.1434100938293215 13.26622353329151 0.768850605166076 0.11960180552574885 1.0402737383729117
Ni 7.018408374227736 0.25637806646008354 9.13023551816143 1.2018187210996658 -0.05790432851595188 2.123220847244634
Ni 1.6905410127202896 1.6904287807369272 6.648086786659128 0.3574316761581715 1.658315773393131 -1.4427686254183087
Ni 8.124791266212794 4.09094932020681 3.482838088422491 0.012198341838404798 -0.9125171649505123 2.6138531506589113
Ni 8.340912655507367 6.203127189088512 10.821294668538243 -0.14737614742553973 -2.0878437532969207 -0.4964257701676031
Ni 3.6420868554147714 8.933974513589336 13.18387331549946 -0.8661326641487019 -0.10265232215560385 -0.017426423006563538
Ni 3.526964898480944 8.33554422563654 7.694920323538705 0.9083820597362161 -0.622174054910722 -0.12079454028226938
Ni 7.820015962727324 2.2876245168727394 7.593501891773408 3.1120272709761885 -1.6695890323141052 -1.950188175593254
Ni 8.746846386663345 0.8591807254313676 11.090083721825133 3.442725644904574 -2.431353677167677 -1.4478223857921324
Ni 9.36370142521811 6.018561692449292 3.2477504292062265 -0.42459660404044297 0.28025564389680124 -1.2989462567822985
Ni 5.342812920625185 0.19619085958249297 3.7984550015007543 -1.3853913730504204 -0.5087858343948528 0.5467905957734003
Ni 3.201595026048501 5.222397355142772 10.398988161542768 1.0302955441142774 -1.0616935988095846 0.7894801084909694
Ni 1.8254812673828347 5.135735558656554 12.714437792890594 -0.7010737547314184 0.9445906484462893 0.6409058269922705
P 5.926886867372894 4.737882530302658 3.4784030545466265 -0.598596267590782 0.16927654704305686 -0.5909320661773049
P 3.996599632860278 7.475426363144097 2.416087115562226 -2.602751127208479 -1.2995442953776135 0.80875232645702
P 4.941882865394108 8.262125803187068 9.355700220070911 1.0202888106105525 -0.4457647534776259 0.018399071332477993
P 8.531837964537115 3.317858008146512 5.761327857116071 1.6044953851385657 1.0689579936814817 0.11843606735242182
P 4.0704856885737595 5.696661658835799 8.313671147345765 -0.057440501505655904 -0.059370885759149374 0.5403324988528824
P 0.7332208999708585 0.4926254561710915 7.957180281193499 0.39079739610281083 0.020420986858513217 2.6443397492835423
P 4.985026710331613 2.1326882638411533 2.031123930497485 0.953865388879996 -0.9450189942329595 1.080705878246029
P 9.031700513102015 6.455780088967496 0.4603737252188929 -0.3673854449367737 0.7410839765757689 0.002438177127847414
Ni 8.779851942437126 1.4365600343715184 5.149763621310308 1.3718185194619923 -1.6585942238654985 -0.02456380538229318
Ni 6.981643047011318 7.418103877641828 8.288963276208566 -1.7784163729321694 -0.6042092429021853 0.26675889496194705
Ni 3.707415222396881 2.1694068277311693 11.981921148615333 -0.20601015501866457 0.2575420043493693 -1.3059905652235895
Ni 8.36645478438756 9.186823819439205 7.130746042707651 -1.1984274360299296 -0.39486231020080387 -1.3716855934285537
Ni 3.9684200523710733 6.359905917180295 13.519147660463622 0.21346995373081945 -0.7657861073081391 0.0331245504681107
Ni 3.993382316003894 0.19239461274526484 10.74068217595525 -0.7335524440854141 -0.1916636564890054 0.9427014018433766
Ni 2.5268937527357758 2.9921982030903833 3.5986156671924605 0.8192925638667116 -0.6694466147444407 0.26537949811591716
Ni 1.3767590925699993 2.743950408558367 13.165886269632603 0.49389246222278815 -0.3336759684994705 -0.5981350116836472
Ni 0.49375058180429804 2.99154351652077 8.45072136329552 1.5875991236038594 -1.4749956037728147 -1.7433431833781203
Ni 8.557305272095064 2.484806758974932 12.499965278484918 -1.1793169404527237 0.12613420732762792 1.9954755866761442
Ni 3.6798342124856083 1.5639620408182322 5.305129161678253 0.1096557500566305 -0.7432748135795005 -0.06747834535763218
Ni 5.820818290430288 0.36536280443705227 7.35347321948962 -1.601560470879958 -1.0561796109698907 -0.6139264701899492
Ni 6.98723594084887 2.3143357289129547 1.2108549689643375 0.37619250170544244 0.4734691613714298 -0.008389766725592003
Ni 5.192768111535138 8.820620210393463 1.500158158276793 1.1014973610700836 1.4147862812727698 -1.899828749304096
Ni 5.201989839501403 6.170280628624493 5.102127691238728 -0.1193477805334138 0.811381793660067 0.23014638594523593
Ni 7.979955891683811 7.910811637267385 1.9699219594369943 0.04795364506114322 -0.8729931387139611 -0.30024828496864425
Ni 5.992065591710521 7.106837824451908 2.9668057168546746 0.6993462305173503 -0.7773414162459064 0.823616388053046
Ni 3.322814920745011 0.809864121408939 2.6584296372363325 -0.9863762170235076 -1.0651509612305656 0.38048058755783504
Ni 6.208046691025889 5.049129878162018 7.785512109975657 -2.035887929054919 -0.6580640839391118 2.092497707129164
Ni 4.0833362506687365 4.1008257347426875 2.0399528465219823 2.076168116731205 -0.6183495389583092 0.05901298819909837
Ni 8.624981158062502 4.797477713468013 8.225763575844226 -2.3029306738058724 -0.6532131836047137 1.0284201814684355
Ni 6.738146406441637 4.290357496645687 5.581925031711514 -0.8902622102070539 -0.24690586479176185 -1.6389576805814934
Ni 5.808379245607639 2.3754366911884195 6.453339978595896 -2.1310141180368074 -0.01673145382206796 -2.541874089217448
Ni 9.103164228507929 6.901107246283623 7.593557072498561 1.246853135631485 1.997378717236128 0.0639937292431414
P 0.9550380624210653 4.110028757378392 2.943330527001404 -0.6995796866843951 0.41892757868012365 -0.9909106145587514
P 5.008763774812729 8.346514902010199 5.958347362842389 -0.7933655595883046 -0.20199434899105212 -0.953167591482023
P 5.510730673065672 7.827703853587639 13.142219350141088 1.0267415082144318 0.3080659812408501 -0.6852578707450843
P 1.7629586999847813 1.603860510903512 10.695633193100171 1.6142925737346456 -2.122228144314061 0.6924803566354526
P 6.11274303182078 2.9187891333061917 8.349576964622933 -1.4243695540858308 2.126794937749137 1.7974798173215236
P 1.116446359826541 5.343187027236392 10.734481358874486 -1.0573805732565273 0.428481798027462 -0.8110652908609127
P 3.3459440619829146 3.856057131694901 13.257435768994247 0.9039150251037981 1.7261129355427627 0.9225429246176304
P 8.166831496647237 0.5251334501519672 1.058139038670268 1.0399654631038733 0.8449148924205062 0.3162680574356682
