# total energy = -381169.5330674359 ev
CRYSTAL
PRIMVEC
9.29035642946124 0.00000000000000 0.00000000000000
0.00000000000000 9.29035642946124 0.00000000000000
0.00000000000000 0.00000000000000 13.59737571813163
PRIMCOORD
 96 1
Ni 4.69707405573826 2.5253975398277073 13.345919130548996 0.36896435938811944 -0.6517347992869744 1.558738233508109
Ni 0.7817788333801702 6.166845576140359 11.045148469346621 -0.30626800880016286 0.11697130988143725 -0.35680021322175975
Ni 5.084751331754411 5.8816037681525355 2.5720797219199207 -0.8609310653431045 2.0893190522908665 -0.6791898101741335
Ni 4.888854879836642 2.979426540191611 9.51300985839301 -0.9679244380762235 -1.8420234082598534 0.5687645289413301
Ni 3.3472131634734392 4.348583502390664 8.054174016334477 1.1583961311396567 0.6208085420217632 0.9374501807467662
Ni 3.782178352809397 2.481612090814692 4.307512695474318 -1.2504506231747559 -0.7544125753638748 -0.11839312992962837
Ni 7.1395180045969004 0.601650903127963 1.8527376567631475 0.486790046850052 -0.5548358346753799 0.6757522452474943
Ni 1.6165870202435342 0.629220964339723 6.092113950453813 -0.45489808323746167 0.8091742444857871 1.6072804040828705
Ni 1.7672115661480576 2.2500220901789083 2.629963286544489 0.6814732068916715 -2.2170339738420526 1.7746059980471436
Ni 6.494748700034775 6.680750922544765 5.1659555486413336 0.07236112737123022 0.8232417783224467 -1.2445671678107857
Ni 2.75108816424383 8.997115446715172 8.27162316571995 -1.1219656562267646 -0.9299415310745469 -0.8650106347291168
Ni 3.384848396648004 3.9335554175702865 2.0761558600401684 1.4105848415969124 -0.04664006845604225 -0.5948491418435239
Ni 6.584735090686179 4.734811482831591 12.945436027475866 -2.038037628408071 -2.2120167231331194 0.032962056748317425
Ni 0.6027954750181399 2.4868053999592448 9.970642587946847 -0.7073529028719108 0.5597540979126037 -0.7052219725718372
Ni 4.026356786165875 8.151117025746956 1.101897567771508 -0.4598618550006403 -0.8520507321343391 0.7348243688193022
Ni 8.286245257424085 5.58592889009435 9.149184643016795 -0.025318681270446716 -0.47737235308057785 -2.25660607970772
Ni 1.844358684459978 8.264152790258171 10.728438366663935 -0.20738955186469443 -0.8929248446408816 0.011993424916450312
Ni 8.280671043673223 4.054627340238993 5.6753132656606615 -0.21450970784924348 -0.24073675986657248 -0.08853208070413784
Ni 3.232189262724416 6.106188840174737 10.608835249318581 -0.772286113210186 -0.09484902406110117 -0.6492338872419916
Ni 7.393637119142415 2.539537462042392 0.5055681807043669 -0.7155688630237999 0.7600959989018974 0.1617054195640183
Ni 2.0848767174533913 6.499356716735487 8.333654874410785 0.8550185565134114 0.6057986988764922 -0.3200169829551392
Ni 1.413509122943406 8.601745755722833 1.9380064045100724 0.5475223317331022 1.0346633341646698 1.299645082621536
Ni 5.555623748002167 5.040724333478858 9.245167958628501 1.0670420076056915 0.18945456465282856 -1.8640546770282802
Ni 5.714776840945508 2.518151061951588 2.6978414164243527 -0.025141532262634117 1.028631011927661 -0.7087896353184373
P 5.8451298295094 4.3265003255810015 1.4038750235106672 -0.2032567606432435 -1.148282182634106 -0.7705359632882988
Ni 8.299298207957351 4.593031356078434 11.122163664599771 -0.47989640505401227 -2.2125186024702024 0.9780296448310253
P 9.055300947917914 4.255354777407509 3.5469846229836812 -0.9456129190632165 -0.1614501090201026 -0.1575605441577093
Ni 3.8865740860067772 1.2668236880894912 1.8287109374256851 -0.4113047720275433 -0.28825974514820035 -0.01753389511870529
P 3.9759194420768322 7.985572167702626 11.58259836559904 1.2993892578569881 0.7390427777760239 -0.4033060700927828
P 9.079019227427828 4.379641163339213 13.38820697413428 -0.6627607180838329 0.4401823742938419 -2.5619235516691554
P 0.09847777626521612 5.7029595077936825 6.781921973087272 0.054157202768693825 0.07519165484148986 0.48237983359749836
Ni 6.800540776050774 4.718757747229111 3.5796318638868505 0.583826308370459 -0.9543497847155823 0.976125742940093
Ni 6.570985363434055 1.4523985542119149 7.3497624827093855 0.3204070193047063 -1.549932719401337 -0.9408928878797279
Ni 2.555451842301101 6.1443536236556335 1.3768159318927364 -0.3374655174488898 -0.6228322573200112 0.2618835691475167
Ni 2.480014149539445 6.747483551498825 3.531469728043784 1.1660986419902368 0.6870260183891007 -0.16259065038244902
Ni 9.518713208095768 1.4041723149107133 1.0350367319011768 -0.5906998955618408 -1.1401209869795526 -0.2371618980311206
Ni 8.99029632522662 0.9240095424115218 8.363962803609843 0.17655868252676687 -0.6407057951663224 0.5016119423542329
Ni 6.639343804732117 0.7695731633370342 9.753465645999539 1.822219486160049 0.6723429624556292 0.43977202622930067
Ni 0.48745756022781866 6.231394971375333 2.6746991390020267 0.3872009370008041 -0.10672957754877103 -1.269231503326685
Ni 5.461642504162646 6.149779191706473 11.049267813308509 0.6419718063629396 -0.19369508509673738 1.6048604817874683
Ni 4.331210536200479 4.032358356304303 11.815153634249349 0.11442617486208034 0.5128798019585683 -1.5975770607521778
Ni 6.729915487827361 5.741217194837094 7.144401015842655 0.3061312261119824 -0.9857354981157151 1.287962504077285
Ni 4.364237752674333 2.3997361811707907 7.145841950097252 -0.908249905033726 1.1768900761787862 0.3319240188053703
Ni 4.749657472121385 7.310627786035838 8.864564359862193 -1.6990993830683965 0.38820161035117656 -0.15785493546967652
Ni 2.639473824239084 0.9323615726815623 10.351749724021984 -0.3055542705625899 1.351129366543757 -2.372676475041443
Ni 5.9554992617764535 2.7028154731613707 5.256649864439097 0.8743702215671457 0.09167242610533245 -0.37193578331161753
Ni 2.509027932112678 7.28397375395047 12.97008798778905 0.062280603206776614 0.04592453044625639 -0.7805293270555849
Ni 4.375330438038547 5.602214884603117 13.648229181041957 0.4019037904286175 -0.10733532945356998 -0.0411060260116905
Ni 5.553812128533138 0.2237275721401939 0.08712960610408768 0.45130470945924855 0.6849639936537493 -0.34512971886236693
Ni 1.0963735219444042 4.387890999690487 8.215098780214968 -1.3097412905152734 -0.5916589170410004 0.33500651438543594
Ni 8.05847359320764 6.253719697447533 12.798026873869963 2.2564512992974106 2.2303402040326556 -1.466078760899159
Ni 0.5681916850884181 7.1087762157609005 0.5215940452380932 -1.2507905230126781 -0.8919470541086446 -0.805759048156651
Ni 8.204341476711429 8.703372962757287 13.435729933467249 -1.374906928579329 0.36891319443520987 0.2897198746334946
Ni 7.720090947461607 3.3528988614993174 7.928194927493761 0.6278621064344347 0.7886357582128031 0.5134865823046318
Ni 0.7637230260055053 2.474402774363578 4.740263063879933 -1.1444841490442548 -1.167112942187364 0.29315101180223063
Ni 8.050316660418881 -0.015146996832340411 4.995703267084402 -1.2151203233045784 0.9424887716119381 0.35807368061754463
P 8.709318790758205 1.9008812118937115 6.530112441105864 -0.07752570229130519 -0.06210293997833176 -1.081199530052996
Ni 1.8576346035432791 2.4159757238983004 11.8292406014334 1.8265664502748347 1.0474193482787575 -0.05648353690902531
P 5.707716170194417 8.36866929808682 2.446126646076709 -0.6397375177157821 -0.4678988663725038 0.0973872171019226
Ni 2.090506673341761 2.03730080308979 8.140993324539766 0.4050986432168313 0.07252593508386863 -0.06459691004477908
P 0.09076585154089953 0.5579174801099557 3.39265415397046 1.4190627971609366 -0.38809670934219614 -1.302450670391131
P 2.8909451872529393 8.091695907162775 5.989058815663514 -0.47301510455314666 -0.2608687547297572 0.4381082653736326
P 7.010827989802015 3.1861555474985535 9.94804379636523 0.13697577802782215 -0.23828418456102188 0.6233742458664102
Ni 2.154034129389077 5.933007309291728 5.6010851772829415 -1.067845220233277 0.10981413001136571 1.5351892425435756
Ni 9.458325892461438 7.632770889054364 9.004739113055102 -0.08175568121225274 1.2867851959397323 -0.021745619207207714
Ni 0.6371279865453198 3.8557301032520113 1.5316220671460308 0.5114448692842546 0.7673146281375236 1.7804262042733467
Ni 7.224682700353809 1.1580986488789415 11.953317025313822 -4.171572970204835 1.2134105397023232 1.923249185110565
Ni 9.02181850398774 2.4404743933333357 12.344595243413028 -0.374653953573729 0.704106113799839 0.5325592826653667
Ni 2.9094701576183013 9.376756564573833 4.18362672389705 0.14644746496368327 0.4479648464527382 -1.4939448911818078
Ni 6.486684670808528 6.930772989983396 0.6324177759258419 -1.4024164468535072 1.1651481051515094 1.2960252264807615
Ni 2.0788286955337063 4.859515934794609 12.58732159408741 -0.373310552171957 -0.49018904522927187 0.9330463952521156
Ni 4.615699825331937 1.0844911562988182 11.283061486447133 2.294189951498765 -0.3238587252987326 0.13857706107667103
Ni 2.250040670891411 3.4903311015268024 6.094329700419779 0.9002846274400624 -0.04605359982495294 0.6386818227577582
Ni 8.890703706211232 0.3735401409083419 11.064823585815912 2.821528352084824 -1.8752713716797058 -1.7542744855786434
Ni 5.319667279928209 0.5939269009405196 4.075160885625916 1.2890125426083543 -0.7368501410000794 -1.9988853836886415
Ni 4.24940894940659 6.360846795382835 6.575976142812325 0.7318817412512104 -0.3050958428689326 1.1328709902853586
Ni 2.8706550491998044 0.4317516551085864 12.672251243831155 0.7548157243395646 -0.06592642748948001 1.7514359876885837
Ni 0.8415288305756524 8.162395518236199 4.694738460176649 0.31398877448318824 -0.507102790265475 -0.6645489203325071
Ni 4.484436381855405 7.337318979546213 4.457368928916847 -0.10530827172121218 1.5327880893012504 -0.7029594017899056
Ni 7.611830426063628 7.441064387805993 2.9994453998422044 -0.5672159535072877 0.4715218078370718 -0.8750294524176994
Ni 6.94509871932311 7.737408171514282 8.788310044786035 1.0803798623651781 0.3528833946658567 0.6256134196095741
Ni 8.730528674080233 6.259386814760908 4.568241898492729 0.12616043257987306 -1.1634992566941769 2.2513240053731742
Ni 7.85168884376319 1.979997885730936 3.723641676140352 -0.6785686316503668 1.7489582155720527 -0.1932726528473381
Ni 8.418725737569554 7.650933535525921 6.506167476903414 0.03434068226339892 -0.5204666131668907 1.7526176667015108
Ni 4.449337415937482 0.5297491199556033 6.060323280397025 -0.1990131548755411 -2.124529538753728 1.1060924366399336
Ni 6.319272451157662 7.933639076257102 11.998310220639523 0.6878521138348218 1.6976670214972442 -0.2517469949341471
Ni 4.207834605181416 4.764912237086242 4.366919878524122 0.4132325851778754 0.4266997664263748 1.5930835437571984
Ni 2.130287978810408 2.638944273932752 0.42030593620681783 2.0448417958140976 -0.5627733443549018 -0.7810450903497388
P 8.003818427380446 7.103555035547593 10.635241228892035 0.2912494239041436 0.39405215559468265 1.1665331584244942
Ni 1.9161917189960769 4.320350109742551 3.8869187582237053 -0.0021638404205382086 0.5447218861698296 -0.9320632054032398
P 2.6311682457503003 3.9762260238331297 10.49090532513411 -0.7340119002203359 -0.11339284850155955 -1.049053798558387
Ni 4.769241543099411 0.6983978860235368 8.705773590812658 -1.3975236375375801 -0.8790432015627828 -0.0975453399463417
P 5.259410029281399 4.236616128848364 6.537999024527708 -0.3699748029305048 1.337725177322709 0.173361772856024
P 0.8706290134620237 9.150406324863859 12.918852602098008 0.15646062622531118 -0.16862168706787736 0.1455303524660526
P 6.185091835818178 8.180214421526452 6.859944242958078 -0.4500677517283539 0.33778639112341824 -0.9040350956214301
Ni 7.949488424022051 5.155924750996659 1.5481022301004521 -0.4479972423525704 0.33613548578355656 -0.5172655897310897
