# total energy = -381172.38236164436 ev
CRYSTAL
PRIMVEC
9.16952898865968 0.00000000000000 0.00000000000000
0.00000000000000 9.16952898865968 0.00000000000000
0.00000000000000 0.00000000000000 13.42053254509677
PRIMCOORD
 96 1
Ni 8.3333043518366 5.1926307410731605 7.851991206119726 -0.37884896549168307 1.2349833807770922 0.4021824980113009
Ni 5.018400526429247 8.037587051575237 10.708940343195811 -0.13337032006475094 -0.055813507425194205 -0.9398778163516522
Ni 8.064490448752503 3.6575782820916185 9.784896677632132 -0.08383518944910077 -0.2700321663965801 -0.22666588359580317
Ni 1.1143544826717295 7.073218549690333 7.933533990856603 -0.9215522785695872 -1.1910062038651938 1.2085784084210025
Ni 7.186067939281546 5.426985555339207 5.355812590598162 -0.20976679384761937 1.2667575878648958 0.24090131046889482
Ni 5.589918910636702 7.882576169066138 6.861864581190972 -1.3026059650220727 -0.1945882863349681 1.485530184755551
Ni 1.0551009882751732 4.043752982882546 8.761124301080152 1.582109818354514 0.054411484871345 -0.5723103373110595
Ni 0.2438617816121232 7.353989518186551 1.7458498370894036 -2.039925846569719 1.026038568610136 0.8159583572871559
Ni 2.5940871750648435 4.860959718817226 4.699387121577368 -2.056669641686961 1.4196649495213098 1.528294058085639
Ni 0.41871185639549946 5.876466682207793 5.728755661489024 -0.5891839731379466 -1.0882538657966159 2.520413091130195
Ni 4.010238355519592 7.188745441659106 8.495626099570455 -0.47098727548984043 -0.0707575303295362 -0.11338127853733376
Ni 4.6627420171195535 5.521945194455694 11.245063429705935 -0.42707077661254833 0.5268167237546346 -0.7921322014018358
Ni 2.824645804453116 5.795087115081603 7.072473067007813 -1.1198807486732778 -0.8801328350825358 -0.9434141116396849
Ni 0.6423603289627806 9.167383020561388 3.9392478643994826 -1.2178978860497154 -0.15581810754530584 -0.23668213018122464
Ni 7.542634231931576 8.660949950997505 0.5085365594454325 -0.7780510407184212 -0.2812460328345286 0.5296094560084234
Ni 6.82963918956187 0.08619998835866736 11.47306559449536 0.6928020016409294 0.7040634334873616 -0.36923329677878985
Ni 8.584705319937868 3.723314633272199 6.147127328370114 1.706424713085216 -2.2173785016656646 0.7104906771699441
Ni 4.323671185210569 1.4927717621906849 11.223564552738717 -0.04850051870354873 -1.131069932520878 -1.1895031369571063
Ni 8.375025707377352 6.425785637456092 12.801993467189606 0.45310396745151643 -0.966056274519233 -0.021137039088931338
Ni 3.746339319813479 3.008348142234084 5.764681874897521 -0.23965406832535502 -1.0246969669805772 0.9250736614592843
Ni 4.98446410074654 9.248478332298179 3.0977006145564676 -0.37480667710150933 -1.9322840416193239 0.02353587833841108
Ni 4.712862660940597 4.540594725436402 4.364652559786014 2.034677710796902 0.7617124514593978 -2.2203350131908275
Ni 2.9186059649423632 8.603447836580791 9.8560659745617 0.42695019187428407 0.4821283797083245 1.3438744847535564
Ni 5.888451256205982 5.912502929960573 8.922936223018825 2.219845989369551 1.480001284517522 0.5975020060853388
P 1.7187364577051296 3.599067519518974 6.38786505155746 -0.2612505635492081 0.26970177964035486 0.7468368198991461
Ni 3.207794560776253 0.4390150268215061 6.835842375720841 1.5514807806147475 -0.24919697481878372 -0.7739051368708478
P 0.5596264224490372 5.1519272032170305 0.7730490366209238 -0.2583459883079034 -0.055559225322543024 -0.33900406558060325
Ni 7.398956886883659 8.545688975360749 3.1454371809180386 0.600945741659565 1.6093267450889381 -0.7598502014396785
P 8.177926688179893 1.468059882370394 5.111155810848592 0.574036833083863 -2.2115611236529396 1.596728082488321
P 6.577385455292407 4.8268032244459524 3.2408433760817417 0.8359116604806313 -0.19904426522379268 -0.29248946695883177
P 1.1364897249300532 6.6820464557632056 4.093664561449451 1.9342288240505205 2.172460300996736 -2.167807375605757
Ni 8.609389691172089 1.6119389570494977 10.894720496177996 -0.08956026485833608 0.01962985841578555 -0.7334470288558015
Ni 4.827582634384626 0.6578174034759771 8.43791767075821 0.6841607810261637 -0.8468483619977931 1.0224079138360844
Ni 4.1923268562510705 4.549241590991332 8.566164532926132 -1.3960061724517892 0.16810798065625243 0.20402243516467441
Ni 0.06462958906766467 8.290005837361123 9.715807946762386 -0.3324703782271435 0.17976921904426457 0.8819392921636553
Ni 1.6891372190929221 2.6191750055614356 12.072976507339382 -1.3971405431665487 0.3651293019127454 -1.3521590933598517
Ni 1.1852716175623157 7.016725083429549 11.689525156569465 -0.3594397077271358 -0.190167274449137 -0.7289116028792931
Ni 2.0619610861108097 1.0920175107822199 2.2161861400111507 0.7460186948732249 0.1354734824506828 0.45004538313085074
Ni 6.0583442837793955 7.167261235937792 12.676336996876687 -1.0917289688294103 -0.00017226391180615494 0.7611231546148312
Ni 7.197419815800106 1.6868448369203533 7.474283648121398 -1.1975558320582536 -0.09679303516134942 -0.8358484113428637
Ni 2.9788772770235403 3.9851321859656186 1.0684985866445338 -0.2187697686771781 0.20548744974597513 -0.44686904228539814
Ni 6.471055600599979 2.137884783666286 12.35419036407134 0.2859508945093656 1.4401887805062745 0.28269947745160345
Ni 0.8695124784426159 4.764111156790543 3.086387250058406 -0.11601408817449052 -0.05410629492610037 -1.6381837785299462
Ni 1.1655204527634635 9.115520166289194 0.4081274694283151 -0.1952089506381025 0.1109541571530799 0.02070843619194498
Ni 0.9703745431770329 3.0268797597171293 1.2241568378791645 -1.0322950910428093 -0.5098461573385671 0.08229407021422602
Ni -0.008787159343890448 5.830536512998206 10.139547455738763 0.2199859004724663 -0.7809769561159646 -0.7139151294704608
Ni 1.0139756520992902 1.2781589431948004 6.072509371700132 0.8381616328570726 2.030244357615897 0.2053694361108721
Ni 4.219285270600479 5.93273091025132 0.10331949842341064 1.0913376469282625 0.1922735221588624 1.4017788132695084
Ni 5.072399880886276 4.2521488614264245 1.8059340907852988 1.4298647728724472 -1.1919233163628247 -0.19679737817114493
Ni 6.386943513924088 3.85177056069426 7.951142236800537 -0.19406892349638838 -0.4682845318466967 -0.18595503614000233
Ni 2.0662157474230973 6.8515910412463885 0.8949505849351767 1.3610579385113786 -2.3223317040403035 -1.4275204410099867
Ni 8.703918362440133 -0.053263041303199886 7.0007664356969945 0.2657037142245553 0.04252553206703644 0.9344638444249326
Ni 5.705684210351423 3.5068862475956406 10.34043990895539 -0.7716543931634581 0.5798796650178852 0.4350815627321668
Ni 5.382348289674948 2.3099051418958436 3.7650231514727834 -0.6689321370018673 -0.08244705085232253 0.22757451145300162
Ni 7.336649939433241 7.220141907894608 10.739834319259087 0.44217575057478686 -1.7938465914443105 -0.3581436146235316
Ni 1.8442673054749932 7.9563450273794 5.9451345317106545 -0.2314478783654788 -0.018295970095710424 -1.3076399279015545
P 8.733875212671261 0.5859851496221015 1.9560695348897772 1.4467692619372696 0.7598160057676333 -0.00633776929256973
Ni 8.255115780694627 6.374757210294712 3.3180920705329626 -0.4648657359731349 -1.16441354097833 1.930832910995094
P 7.150701067123156 5.083944317507332 11.078877642582002 0.24815156427340487 0.7014103121352308 -0.3179125350176267
Ni 3.123810847502025 7.7658847469537 12.122203122113122 2.25365471038888 0.34881333836154116 0.8419329269740468
P 5.164131845903786 0.33815296208708917 5.301164033509862 -0.9096419002852462 -0.1371084469509445 0.18906247142073246
P 8.83053121459545 8.542067011528092 12.291369006061398 -0.4565394754956267 0.028112184855183846 -1.757504305369851
P 2.402957519044753 5.501946452382205 9.982983255069533 -0.18928512895449984 0.5208178258587225 0.0028654944732531295
Ni 0.9730978931980445 2.5580509273120633 3.876561298461288 -0.877853809240372 -0.8011166642886332 0.871043728297074
Ni 2.6944384970512125 8.083636424657797 3.2605450254256665 -0.4460480890459996 -0.4890238212765771 0.19040330171934303
Ni 3.354846292382192 2.437453285977567 8.207701981742954 -1.16337352974959 -0.07926093981485705 -0.2303847272082871
Ni 2.9875608206932305 3.1856226404031682 3.2410854516391656 1.618936243154244 -0.7879721564868751 -1.0410196154000007
Ni 0.0022071055557491715 1.8480818294101475 8.584228504445974 0.577513992999186 0.23777973412077757 0.06998439960893753
Ni 3.48986760234649 8.503206548938705 0.9201007682268626 1.1842012651282185 1.355309723173692 0.7907126953464898
Ni 2.8133489451066973 1.024245524232398 4.619159247254677 1.3092620368860095 -0.3580834508095575 -1.0430764979290295
Ni 7.875222207056538 3.1248561737727165 4.000217894566859 -0.5307101452717699 1.4633621332989442 -2.84614049420655
Ni 1.4121349268884074 0.2947792574763508 11.51525918076366 1.0013292387889143 0.6746916651934638 -0.4411015436740016
Ni 7.237793250623387 8.198521449618251 5.512148470003004 1.0952755485300878 0.4096986038826879 -2.2236355383189705
Ni 1.506085917848964 0.11234506551324823 8.323762540281502 0.22139460789453483 0.6993017504326601 -2.340695294149156
Ni 4.1395012014663966 6.965586621923886 5.101077581865111 -1.409306231994805 1.0752610530813738 -0.05508279990675675
Ni 2.3958144561950294 5.047119490287188 12.563295964135845 -1.391324964926036 -0.15413120676118616 -1.851821625297198
Ni 9.001185313050156 3.951058217352557 12.263561493355269 -0.9552046765167097 1.062912301708034 0.4163166234198379
Ni 6.29829251054651 3.327933725676235 5.66574632814093 -0.8457772404208015 -1.1101864042036493 1.2112032476383592
Ni 6.976984346085898 8.602576731355214 8.990642188962077 -0.7329096682950926 0.7246641404568487 -1.2632606304552307
Ni 7.6968565349733105 3.6520398867626924 1.4917594462232784 0.274520798295553 0.501775978735923 -0.12326022821394256
Ni 6.6457626307357875 1.4956785027855022 1.8655341933663478 0.5330205385725014 0.16810540955309114 -0.67075299226069
Ni 4.344100895132501 3.4367485226437275 12.519839733766895 0.04701673506917064 0.634287036124172 0.6785128387117669
Ni 3.4990187919793843 5.863886088844736 2.5836137393948113 0.10774413485621444 0.3379429713059406 0.383779570024081
Ni 7.101433189470309 6.045030128121116 1.2143472760863083 -1.1592124563933648 0.4572742967791222 1.5195399660420927
Ni 4.9845924741482035 5.335161895034794 6.3796106418304745 1.055610368729982 -0.09083604624696613 2.316605085969172
Ni 5.957176873739592 6.947531819932735 3.730424685818638 -1.151086741962437 -1.0213038821386282 -0.7844528304797072
Ni 3.0593673998667734 1.7188373225207227 -0.05311724579702451 1.1542471419682896 -1.8639384631653897 2.2814640192916644
Ni 6.395957160626628 4.472712704542297 12.919087431611548 -0.020034550053371947 0.3925606586508207 0.37832111801267104
P 1.930249976003701 1.6002111298546362 9.747614290930342 0.2853423143910892 1.1715074717106342 1.1286325267239787
Ni 5.298043642896561 0.38229965796641774 -0.24324467233126773 -0.9300320339058242 -0.23614631228241265 1.1589918557421264
P 6.340884971312837 1.6767950334758122 9.601343803168813 1.2051135898008534 -0.9788272010316562 0.10103792648063245
Ni 8.683580347805103 1.728593701047175 13.19648951526696 -0.11603594255136145 -0.38532660279622666 1.2722836598894476
P 4.412817343137421 1.650936962569237 1.7645584264761713 -0.8437080165965986 0.9600463208797272 -0.679976567741487
P 5.264006352398261 7.407521226680376 1.520291351695938 0.2983307562309572 -0.1728310971635346 0.1937498495940728
P 7.9599486521546785 7.2528954643762695 7.443617993322512 -0.9066887311941932 -1.1504146555960768 0.4335558701162598
Ni 3.12097746313673 3.462881679411011 10.444823989659739 -0.19023360891069818 0.34827469224925184 -0.3863144206307928
