# total energy = -340894.1259430987 ev
CRYSTAL
PRIMVEC
9.05151528299898 0.00000000000000 0.00000000000000
0.00000000000000 9.05151528299898 0.00000000000000
0.00000000000000 0.00000000000000 13.24780755786017
PRIMCOORD
 96 1
Ni 6.391609854812115 1.9660434308417776 11.422948939800499 -0.7538412762414372 -0.16603284329477858 0.4283455295599139
Ni 4.570897553522907 0.5405130460549106 5.912099496077803 -0.1496052938663746 -1.2083956029862348 0.31213963708959147
Ni 2.755751934139208 1.5366214422871536 4.509434144073868 -0.06840959892264993 -0.1386657641357354 1.7005723680694973
Ni 3.8530309271100527 4.4880218794955455 5.249072380222199 -0.7665304416733315 0.10667764126491305 -0.03986444029510553
Ni 5.387308026936188 4.606678193478146 2.6404998950584955 -0.7417483496326451 -0.2873827418598857 0.12084776211770801
Ni 7.425157128601367 6.065139801205856 2.6808660326614255 -0.27459227496343674 0.564679303128363 -0.20526479221220778
Ni 5.0825616100343485 4.389550444617467 11.530680074823836 -0.5163140244510979 0.3060769758352793 0.26058104828600925
Ni 5.5698680388909585 7.690248857002346 12.2597723905037 -0.38946325067241955 0.751815246950344 1.0887999681080733
Ni 2.0065127557190534 6.4479012284224435 0.36458779481028203 -1.2719656144283966 -0.37291280251290615 -0.14225579547983885
Ni 2.6618515144843524 1.5381873544329308 0.48240684362823366 0.6619749889577438 0.5505660036554325 -0.8285161393475086
Ni 0.520661262713188 9.065454627060367 4.776483715232834 0.3142713387206136 1.0055491904075327 -0.35294587247267606
Ni 8.716401042796802 2.5376647246574175 1.1177824854137 -0.08661763729024437 -1.109389876444283 1.0841840666026166
Ni 6.856948256051379 0.6127224144604029 4.618079482141849 0.33679214553094905 -0.391591609869332 0.6870632993849393
Ni 0.6869602274431704 7.3594250245399095 2.787060220387924 0.4458321163804515 0.1915638976863475 -1.2919860234143812
Ni 7.4587201473096965 3.7263187645162295 3.6116831336270043 1.4565646507611367 -0.5027769091966114 0.6884676359316336
Ni 7.588455516011551 3.85444296349584 12.495491046625714 0.7143743284950664 0.04281580961394562 0.5402854476650308
Ni 7.76541263999964 8.823263232351962 6.885005238006667 0.35633252955672184 0.7668464302518535 0.16546900037150858
Ni 6.788075276183075 0.44994358402806595 0.24598035901026588 0.8026410713529596 0.18882490148862965 -0.5276129944036848
Ni 1.8133534193555847 6.716378223543195 9.142894866153977 -0.12054668593752144 -0.7311996275825214 0.7694208758472492
Ni 0.05282192779832675 4.946354407897635 1.5308773506818933 0.39299877462950383 -0.6621318262505822 -0.787531983625663
Ni 6.403928967126579 2.0314496803526687 7.023564023816634 0.37218903697300415 -0.709582820643694 0.27256316034854994
Ni 3.5546296224289624 4.361979529033441 0.6463442680181398 0.39366289057606396 -0.5434684733787027 -0.3033081548408905
Ni 6.148857266155514 5.538070065664863 4.776152429773091 -0.19884037674310273 0.4910920166595155 0.6329580329001034
Ni 5.317620410691467 2.830508398948294 9.282076396216137 -0.28378036922060806 0.7441340762560023 0.25682903744274477
P 0.20323819864279002 5.557757111428243 12.607819446266623 0.1581508694435405 -0.5503292050542781 -1.2486757906625203
P 3.984956762512937 6.079477401430772 12.70913848785604 -0.060849784297521005 0.1266836520731947 -1.1410530118755187
P 2.1731239977266616 8.379277355690084 1.4399702671346009 1.1685213924991167 -0.11823834951931894 0.2773924634163932
P 6.240956434266962 7.752070706457008 5.610181677705185 0.056953791677224495 -0.11898808320114992 0.42982288543638875
P 4.643635530421541 1.0851137564163695 12.639561300097899 0.08093652774506706 0.5108545439984234 -0.377765245509201
P 3.993818195985282 6.160108299665344 8.579518597619193 -0.9637114284361403 -0.13048888475189785 -1.89956546834038
P 4.836387548596801 1.0300624404012517 3.7116516891346283 -0.9152443340736882 -1.2220206499688373 -1.9325614636504262
P 0.26318547928016656 5.391082508813581 3.8215416105554665 -0.42763127710170873 0.2619385907551683 -0.7041403094718841
Ni 1.4522070106598948 1.1579512999832313 2.4263229401835003 -1.1556144546294613 0.43573770825892705 1.2369757286167729
Ni 1.870812438438776 6.602727397517904 4.701673846483517 1.2618020436318336 -0.3534667779731525 1.2550564973778835
Ni 6.018108127740786 5.659161237261419 9.19715779518703 0.12998597697355033 0.07130234708941267 1.2983482181869834
Ni 8.486691687678148 2.2352535987013034 10.190080963187487 0.4247362149421008 0.7575176966517599 -0.38661935346572124
Ni 2.203663810326959 5.348486077842331 7.086861270264139 0.9346690184572032 0.12423236231922477 -0.06619356510793761
Ni 0.6265033464947694 -0.056201763608922775 9.017649954189231 -0.02094703456531231 0.4326315585297774 0.4663379496432872
Ni 1.3246440056284814 1.093205811088766 11.43145374357028 0.01626994080461714 -0.09591397499050579 -0.4613492381794441
Ni 4.050634557482634 6.871512144158635 1.5626318766345793 0.31354268808470515 0.47144518896286547 0.38662655255457284
Ni 5.676286704196736 7.754876676197996 7.965522634956994 -0.4354476878223339 0.8291735704258495 0.21896362985553905
Ni 5.328147322977817 2.7342545853171254 4.720789741631877 0.5387276162596077 1.2564628908071072 0.7045941091798511
Ni 0.8195477286140103 7.581440591659082 6.943241782253571 0.2607566546319251 0.5389009086126785 -0.5574740436291754
Ni 5.359610390138052 4.8111157178973265 7.135110372536185 -0.4467870240945531 -0.17394104239826172 0.15975292382333778
Ni 8.117833387952388 7.1782317913944595 9.225932562305093 0.19361486667810526 0.2188618141703521 -0.4512229483787197
Ni 4.557293126036765 0.42812852701918136 10.546275287866099 -0.2666192840602892 -0.7255642836736149 -0.03912447680528746
Ni 8.348981934002712 7.200444209924728 4.741986580146214 -1.4949784746526447 -1.0921871394127514 0.637683720510547
Ni 7.333275196856963 6.365840190771496 6.933147532398251 0.138279070220278 -1.0295005590168076 -0.053123876408173024
Ni 2.2209612560528535 5.428818276072217 2.511956610920795 0.41668994759885664 -1.0664146584343377 0.9594251423559607
Ni 2.3194326909309306 4.928350943978846 11.49097650814039 0.020093428315765396 2.002787546956525 0.6000404562364762
Ni 1.2993993294748865 3.327445640077196 3.831808744352893 -1.7063902603028547 0.45317518700908405 -0.5184369843313716
Ni 3.58604743201273 3.179444313513041 3.029243468732563 -0.04977141499617235 -0.2721391854372539 -1.0953154006290877
Ni 1.047142649760102 3.3428694221373343 8.101298984965737 -0.38341961558150095 -0.21206253186033158 -0.036572914028027335
Ni 3.667855027235459 3.0644629147396043 7.275683120498958 -0.07943268950603095 -0.9072052658192956 -0.44482604371344037
Ni 4.156591595508442 6.863030874328617 6.222654270343488 -0.1435871126967527 0.09703626152040706 -0.9432359341906078
Ni 0.9516491634135886 7.347314097077196 11.490102131763038 -0.5100472176057796 -0.27099684430269455 -0.08057271664774511
P 0.14328820255082542 5.7898922726455595 7.830858716177823 0.671722812373127 -1.24706730852482 1.5467496936876652
P 8.483025823984276 1.6239504618389222 8.042015180399373 -0.030613096900166635 -0.26054813816554484 -0.4034976172782986
P 1.464978698739035 3.2873112212657802 10.313577122397527 0.45373080240223795 -0.9874218846792026 -0.16362089141917627
P 4.011785453842896 5.947225711477322 3.729257791532031 -0.5813518786880376 0.9999277304556972 -0.04476676269272935
P 6.904378196189364 3.993392774766487 10.431800773949098 0.0935740140034195 0.0763980164447652 -0.7301303057777426
P 6.289345835026057 7.728283324265669 10.22868477076277 -0.39083647687086237 0.41736769039217153 -0.13861717028598705
P 2.4220316167828484 8.525124421614384 5.658681506950862 0.979150902919662 0.3349340092762877 0.9203101786323699
P 7.026727528411716 3.9802590260756063 1.4043733729398205 0.3920490091217248 -0.5897462733993197 0.39094112076952675
Ni 5.294448531540086 2.6945274846939173 0.9134590100872183 -0.8306488694197952 0.5247055909489028 -1.6605377207451144
Ni 1.4941336294994254 1.0887977231408275 7.003400868348815 0.8755608994411372 0.019115123562896113 -0.055267405113737074
Ni 6.632407316165318 0.667255983800732 9.227164473536538 0.49380144517087854 -0.16505248165938027 -0.549521364441002
Ni 2.906043294072621 1.7283234846883673 9.298530240716676 -0.8060387841805989 -0.8197116536820012 -0.31914075099777295
Ni 6.554229378575286 1.617216134460552 2.427131240499211 1.2017685845880206 0.7697191238139584 1.2031292123809731
Ni 3.9264387161404057 6.88935268080214 10.64877283674673 -0.16522757378466382 0.05122948759893757 -0.4320643731723979
Ni 8.184751240517295 7.222566113302062 0.27287150579574987 -0.4693880493235207 -0.3263136145971283 0.25146134537292825
Ni 7.674227674932837 4.008463547730178 8.333612461034335 -0.0998359357527313 -0.3545813511935699 -0.9669235076155348
Ni 3.0277318656785477 8.417058380525187 12.623173531659003 0.8195607299264338 0.19892650869900577 -0.6777916442750263
Ni 9.079846536377044 5.077682843291147 10.156603933874447 0.22941053622047589 -0.6253974469440262 0.19934508429366316
Ni 8.86257396327167 2.220970307568147 5.803599887406048 -1.0128701495489782 0.43166970883714045 -0.10424280657117531
Ni 3.348915834353398 2.7240082700048744 11.560646021354525 0.7247196762851326 -0.7737652688588739 0.24816904777490162
Ni 1.0294378858459996 3.231997411307151 12.486111866478582 -0.5896521710236168 0.40587177393742996 0.7852789259254281
Ni 3.188722116688887 8.3259910851572 8.013585276013993 0.17822398604433176 0.9656109594516984 0.021979589594884726
Ni 5.5098655440102915 7.613102792155774 3.484186204657234 -0.05022470048350705 0.6900869167026116 0.46919470236579197
Ni 3.0592401904152497 8.474073875358997 3.4006199000129764 0.7249996694193965 -0.33864565379992 0.22554848216190831
Ni 3.1844226469244705 4.195938532489324 9.36131155079245 0.7737184747813385 0.982584096970927 -0.54189932911937
Ni 7.1762223549993 6.0689233345985425 11.453206345123638 0.6191365536359789 -0.1564652542110015 -0.0026736901774212017
Ni 0.5513078831939486 9.082833536423902 0.34275282446775185 -0.8149936793810415 0.4444321507091314 -0.6040416069760695
Ni 4.782214229565154 0.33153347126144816 1.4150776949259234 -1.4928547434414225 -1.231159636155628 1.3230308085353277
Ni 5.9518238812464235 5.62856711556936 0.4855893564054312 0.18337519122796805 -0.23030579434123563 -1.1002274932187246
Ni 8.08592679654277 8.753285967617849 11.175134743791768 -0.4554372435703834 0.1891779139526742 0.3863781839891926
Ni 0.10116426067789622 4.619296005797296 5.941535928963822 -0.9062305606108523 0.37315191510690576 -0.5726844328210265
Ni 7.93189716079314 8.69815318796509 2.3213208370211564 0.023164868152237526 0.3984639115091331 0.5671982128954748
P 8.636349441541014 1.669008904970007 3.6220959968206565 -0.514496768736701 -0.3734630185894213 -0.8084530500490463
P 1.8758360294266732 3.3240694248727176 1.5091374212499449 -0.7074819722506074 -0.1924000204343977 0.42177507543124776
P 4.646577272891931 1.1119696022922088 8.043538550423271 0.018696805078554896 -0.518595621396423 0.7086245704954829
P 8.360305379634891 1.5442247151337007 12.391098110442625 0.3003346740348634 0.2729534538084331 0.06894464549051353
P 6.244368855532614 7.541097987995915 1.3809245174204576 0.6023837596576722 1.1638239870234472 0.007169264054929588
P 2.009463549704737 3.3897381683271206 5.871918914538391 0.05144700292638236 -0.8709470548182098 0.9125297633560026
P 6.851689325665851 3.7898513503613644 5.9846709250950365 1.1920968658262114 1.056247745203665 -0.7319974408934683
P 2.3694966220193256 8.58801434987368 10.354194892125617 0.6369265306295483 0.1587944165648104 -0.7720896809286638
