# total energy = -340893.9525022278 ev
CRYSTAL
PRIMVEC
9.03932096810262 0.00000000000000 0.00000000000000
0.00000000000000 9.03932096810262 0.00000000000000
0.00000000000000 0.00000000000000 13.22995994538693
PRIMCOORD
 96 1
Ni 6.391559203239228 1.9876472408385293 11.27351384536605 -1.0734401978225512 -0.25672053688933855 0.5513543038846828
Ni 4.658757537490678 0.2854427725192028 6.134335382811534 -0.6254727802666519 -0.30233499229434385 0.23600464449822584
Ni 2.8722442267527826 1.7144156869689577 4.701041672955366 -0.20997685297589644 0.5910873608082465 1.3945992648019336
Ni 3.5361190741026007 4.4098327176124155 4.682519200429672 -0.5493771255536538 0.197687236975266 0.7364958429844541
Ni 4.8474262440234375 4.536663429636234 2.6820433553217247 0.6267336492569465 0.840621664361791 -0.6087912058459128
Ni 7.1223069468581786 6.0325716116695665 2.4561950178556637 0.8284783441310376 -0.4194184022736131 0.4097441124086427
Ni 5.246123572455805 4.556242598779103 11.645539753450796 -0.5749575451259196 -1.1280553140642702 -1.3949353079851137
Ni 5.421450241290101 7.877885705082606 12.309975038698516 1.1848293856305208 -0.354709392131002 0.4197050802760965
Ni 1.6680801278616886 6.452240164668627 0.44464419673947875 0.7147538233216724 1.0568432126958185 0.08797440842845494
Ni 2.732866937272685 1.45482446838867 0.3806033197189424 0.9937401135877465 0.9101859457141743 1.0913913829843331
Ni 0.6860356465514139 0.10650760676808817 4.761515633935378 0.17866287335396328 0.07607225767423027 0.22062867626278776
Ni 8.792529393781207 2.0088354091076357 1.3068272824659866 -0.36171179159076416 0.5715084102350545 0.4414735823014397
Ni 7.066154685216674 0.45503308828883193 4.684781742459433 -0.620906243941892 1.3893722120750396 0.9156559676898102
Ni 0.8267272532953037 7.6007491645695815 2.5611614204045186 -0.17431050992253852 -0.7778978029700087 0.6517967628731612
Ni 7.548040884203899 3.74769341988191 3.53435731045258 0.3677346007460764 0.5857572068445847 0.6195975524327975
Ni 7.612545478388346 3.6087319391647728 12.78621346996623 0.15969584533315723 0.3510031469240084 -0.37064200420085847
Ni 7.9791260995424995 8.987887197805065 7.040389004826631 -0.46940296172185614 0.5731783417383097 0.17939923729935556
Ni 6.732576624792259 0.8829337508624124 0.3526248135642761 -0.45442525736610123 -1.1063104661880108 -1.50434294658668
Ni 1.9244081515848315 6.312302437290626 9.395877852089596 -0.5629512646936627 -0.11886081359466627 -1.1253255738379329
Ni 0.06780665812160708 4.555790632732407 1.4447383940906031 -0.1399950244701202 0.510061872893799 0.8792545462426407
Ni 6.2286977579728084 2.090966679113224 6.809010410813198 0.8507554103616831 -0.5567878161954282 1.3095456295646997
Ni 3.28244861073403 4.420535273598176 0.44760819007371083 1.0382207124986247 -0.1485560266662538 -0.6836630154541388
Ni 5.941717396962746 5.648725887531627 4.718835576213785 0.6640753231301982 -0.04072884517792986 -0.23782164310230658
Ni 5.45514882973175 3.120418782993531 9.017038103884861 -0.5390307493223233 -0.2498595481034471 0.35445485291803475
P 0.10271922736468268 5.524462342653042 12.564890216559688 -0.9760123572906804 -0.7775309065488932 -0.3216406346014912
P 3.8571867143544716 6.148555138572681 12.519987389820445 -0.37760223756877553 0.35839866805713116 -0.5586539228698895
P 2.5756550675899645 8.54931742473318 1.6528316973782604 0.49417811178400695 -0.22441796810189094 -0.9217921624945349
P 6.4104061873864495 7.692362682234851 5.83417388401563 -1.591797477955923 0.2889680840691346 0.8414081648188283
P 4.677884740586851 1.024173140454898 12.4529246678117 0.09328913577314903 0.7588901515192543 0.8482179886518102
P 4.11816094903765 5.907910336669889 8.081454828242837 -1.0046104806433471 0.4755119028330713 1.3487138151237288
P 5.002116143165595 1.0540300174996327 4.0905973477138495 -0.04451556591387172 -0.03747305724479352 -1.1367214743797005
P 0.08727373968489517 5.699273770194102 3.5484468999922796 0.2165208247420013 0.16957428078913375 -1.412565362362051
Ni 1.5633234375585003 1.1326540309828605 2.6668690472699548 -0.4304985713471747 0.9123320455228997 0.2798524949211116
Ni 1.8781720250078353 6.37029872040265 4.960798311108744 0.6031013545499873 0.3315247264844226 -1.5386394058757051
Ni 6.147958543391043 5.647614051056755 9.257757028219313 0.2802834118109431 -1.1440118373935266 -0.8547614461972827
Ni 8.640759195300705 2.2491819134196094 10.315294302241306 0.445983040136019 0.10049516660328499 -0.24667497972787839
Ni 2.28087377261393 5.227502571331932 7.15492081678776 0.404997855972909 0.3799604533883069 -1.1913820991473738
Ni 0.6561561712043444 -0.040210515242445566 9.28306622290219 -0.8990468983782195 0.42102842707321037 -0.6749873420570117
Ni 1.5251503852545605 1.0548164384208836 11.510766190122343 -0.6108915400183672 0.12257451500082761 -0.3072702248124321
Ni 4.157183697509378 6.955097588222544 1.3160302151088097 -0.6212415157941236 0.49903106900093414 1.002748487733944
Ni 5.427949513041588 7.632603731540712 7.996544870982161 0.5131065732573937 1.2866862084680228 0.28002938681860806
Ni 5.425572171635967 2.9865374006412555 4.898789473434153 -0.2316365973375172 0.6065944553049101 -1.3945149326182436
Ni 0.6053841133827078 7.407154028127836 6.80224990268672 0.8167489715092514 -0.17678134006053425 0.4146675178521891
Ni 5.398210147168994 4.64734087515114 6.9988207835799106 -0.8778648649839655 -0.7863942704767941 -0.06858854770267542
Ni 8.224787724563617 7.056139117621892 9.034977540210317 -0.04344778677098969 1.0986640053863466 1.249808361605067
Ni 4.375148843188969 0.17793722472001 10.518863425401538 0.7602569499597939 -0.1868567220186653 -1.5472605718858128
Ni 8.098879023275058 7.377152521948159 4.703224668960908 1.3114194495486446 -1.4193065377406267 -1.091728711719094
Ni 7.431533076686617 6.204038490465077 7.035440880547403 -0.888034863538432 -0.7277342947417402 -0.9061778529960458
Ni 2.4394867370414075 5.325018765567052 2.503901841948608 -1.360107144562335 0.7512855996991191 0.9263728398866821
Ni 2.0189594485536246 5.283392692666354 11.525319496825952 0.45342766933952233 -0.5391791019747295 -0.13405063396122718
Ni 1.0478832792645676 3.540765285062635 3.9633517308591646 0.5106920502786302 -0.33473886254634605 -1.7701312501052417
Ni 3.854257974371882 2.443120544056843 2.72347960248281 0.20839536742138948 0.015219388052915724 -0.556845666016557
Ni 1.2479144122112626 3.3108953537130734 8.136504292730404 -0.6865740184533466 0.5707831020332557 0.8045447161335758
Ni 3.6498066134885008 2.8717018674967476 7.163626586779217 0.4317818089349725 0.02216470902249731 0.02600696558672295
Ni 4.283155674044473 6.816850213859187 5.9628748315406765 -0.8737485288227468 0.14020328382618436 0.004972256403610792
Ni 0.4749340572569482 7.34264943394339 11.228756551693843 0.803207742489707 -0.4665210121883707 0.7271398556908509
P 0.25930286424249566 5.520394648232777 7.936084468983551 0.6171076961314081 -0.4197747571717674 0.5990400399964199
P 8.835077477417164 1.700278189028308 8.096060563007864 -1.266503562872561 -0.6859536112605283 -0.06896547142611995
P 1.6909676884663718 3.28383162683692 10.547572308687663 -0.5986906270768012 -0.613580142594124 -0.30970814482996334
P 3.8273569552725393 6.459580093266969 3.682506356966953 1.3277801502948552 -1.025928782505149 0.43287915576420927
P 6.950704478248659 3.8907045163774443 10.407216060750423 -0.13893958662241232 0.3202560955491388 0.16136063463008984
P 6.241217217466286 7.697144483008894 10.152274668858542 -0.18637335462434354 0.5120624482635955 -0.6922165614511047
P 2.449637894450199 8.243969163585394 5.8965271198178035 -0.1737790628991007 1.4308947567988584 0.8168608144967674
P 6.609226051327999 4.0021683828136 1.5112451978619126 1.144862615429596 -0.5291625982789919 0.37041677556392977
Ni 5.091515027202054 2.742990976718674 0.5324304659213271 -0.1864268335700983 0.2574299042515373 -0.32045921269888034
Ni 1.6015597651089781 1.3078993459287496 6.8645760205260915 0.4679957969616843 -1.37610094888743 0.10223323234031424
Ni 6.606794473996774 0.8604755580020905 9.09022586975843 0.20809249146899 -0.655703039906103 -0.3209132695171634
Ni 2.730055708462236 1.502606318845366 9.439867707414512 -0.12819186118760503 1.0530737183510575 -1.0011991409689533
Ni 6.479195419693574 1.8056133958712672 2.4377123183420792 -0.1585553039708108 1.7957062703608688 1.682480800675109
Ni 4.260168680909518 6.580932976804832 10.301587979909204 -0.9395566855668078 0.5576306238116977 0.5851807655158244
Ni 8.015681113399268 7.229730236836873 0.22667905105988836 1.2848401563982197 0.42587572786318273 -0.471042297097492
Ni 7.657913830155685 3.784474416762027 8.168944607698052 0.8238372458146005 -0.45186186751429924 -0.6902265276042694
Ni 3.0910681079210955 8.434355341095596 12.460598147352504 -0.6588999495768458 -1.3250632655843244 0.36178455381022856
Ni -0.13559071794087937 4.744061609144073 10.059902752166918 1.0355917595162099 0.5629885456895014 0.7398071667458743
Ni 8.703627672396113 2.46082857376639 5.761078319215588 -0.42792104042798557 -0.12205052417655755 0.49790004072028443
Ni 3.514659726205477 2.9065574890179398 11.650289012669477 0.21822315214508867 -0.7596077464115693 0.03908153938249398
Ni 1.1714327177893735 3.1997117062258686 12.898695163939546 -0.24392441356593475 0.3087313827389908 -0.7038837133763878
Ni 2.8271832118971965 8.343419772500372 8.192136793418209 1.0963271297230537 0.21690083378923936 -1.1025227170108043
Ni 5.751276983526939 7.862356151718132 3.5012824351553697 -0.9869462305943648 -0.4380100492328714 0.026748214628121676
Ni 3.3014221453743264 8.62720925322076 3.8240006554097747 -0.23535981182537533 -0.8814340703924626 0.017729556069279145
Ni 3.34027314674831 4.200500123424718 9.437962218561642 0.3421554667253914 0.3346000229756367 -0.09118751604911392
Ni 7.156177282397574 6.139217520047944 11.391590878997462 0.9531588497312746 -0.5181145679949465 0.4801167485949344
Ni 0.8204584842276309 8.978847876871146 0.4214881683030583 -0.9901505964642754 -0.44785197502395774 -0.2795316212465831
Ni 4.75554154673015 0.40385154922888883 1.815798902699607 -0.9927360978032644 -1.2989706822623306 -0.7470620485360746
Ni 5.871183575715375 5.625738894396671 0.27595058160649444 0.6211384145573561 0.39998291925682083 0.9992499876623824
Ni 7.77804640536747 8.877724993583394 11.049582747870074 0.15755463062043834 0.23858628918247296 0.2936320652037072
Ni -0.0031095264012681585 4.99839194294082 5.548115533740828 0.03263938330157604 -0.27486198368505566 1.5674311332964168
Ni 7.8106783539389175 8.90774457840494 2.2763866537023323 1.0751890621928581 -0.9839030728926669 0.5338625748578225
P 8.476487615968594 1.6768121118838544 3.6343755887222073 1.1163004875211873 0.16129121484473513 -0.8499740521109684
P 2.089999471773295 3.325249795356137 1.8481063396495272 -1.5361523777877932 -1.700800167809587 -0.40543725750317267
P 4.579057844816314 1.1718485265523337 8.230967004354044 0.3073134193455417 -0.538010535587925 0.18838010064172717
P 8.472474157473934 1.3680017908183773 12.41098583440669 0.7905574007155481 0.7475934955595125 0.25918108261468914
P 6.29482942992536 7.650158092794382 1.2705615268791035 -1.4369281074771316 1.1528816290793307 0.3765485994932805
P 1.95628079719783 3.3517621236553214 5.907640060973964 -0.6226147419925664 -0.051046425053854025 0.2413530532943327
P 7.095405927758836 4.098156931810887 5.929985262322613 0.2603339652722097 -0.5920525529349933 -0.7860574559626656
P 2.3628061775589724 8.197118363184892 10.338194517895296 -0.05383092977752665 0.5312737310847238 0.7734783337460743
