# total energy = -381167.3222981459 ev
CRYSTAL
PRIMVEC
9.24004770806402 0.00000000000000 0.00000000000000

0.00000000000000 9.24004770806402 0.00000000000000

0.00000000000000 0.00000000000000 13.52374381908320

PRIMCOORD
 96 1
Ni 5.271188607556688 9.157044553098148 6.744858899542931 -0.819315446684847 0.25392857596649815 -0.1444818565968802
Ni 4.169146574212245 7.163236256547266 10.626863593118246 -0.24603271815818917 0.7871229211127024 -1.707526173679511
Ni 7.519597184038254 4.190176923240417 9.47361229028829 -0.6148520673280121 -0.1638378925259888 -0.9508746816827882
Ni 7.637814356914539 7.581949027290495 13.253593918942848 1.780126927865373 -0.6306944336769074 0.3877848345287322
Ni 5.5864220818295784 1.7432274374581833 12.766157367913182 0.43869216290156066 -0.39015642008470225 1.993971491326792
Ni 2.272266380168182 0.9148534468979104 13.224017449608805 2.095472730597088 -1.8230031584036088 0.2001269567650102
Ni 2.6695976800629095 3.8745461269076804 5.471260592794952 -1.6411024948386381 1.0588900679225184 0.669677242698008
Ni 5.836088176179838 0.9387057065557846 4.756747092524505 -1.6086610864804813 0.21909218501360334 -0.648592911223883
Ni 6.393974548444297 7.576811560656196 11.362730844093488 -0.8539672324307616 0.7885578537870161 2.323901619630585
Ni 2.483567795623465 3.7089367483347817 10.672425345325193 -0.3757968089289205 0.18202433362702844 -0.06700166283152977
Ni 7.220792514937635 9.005729528631832 8.733309816319414 -0.09705117391874253 -0.5167308002735423 -0.19487136479302566
Ni 8.360192061955583 4.982501790910308 7.405453948282584 0.5949545570731366 0.8867500832887374 -0.37921791879532757
Ni 8.001530362536645 1.41697058603652 10.226236368136373 2.795806264728372 2.321472184253486 -2.7062130897495718
Ni 9.338084811669749 9.709996739782182 0.7063305138471838 -0.41820227047832487 -0.80181420457629 1.7228820873102908
Ni 7.278404213615425 5.053502319000145 0.10791082344481683 -2.8375866910992675 0.07230224910883677 0.8523852326556225
Ni 6.704532558478059 9.4237400557344 0.7418039817531825 0.5279099568188134 1.1637879915791893 -0.012270589837236933
Ni 5.704094091879561 3.113193899810034 1.4579141623013403 0.013613734128692684 -0.6891942296850131 -0.8092194959014257
Ni 2.057675507659283 7.231150608637362 9.018863332721745 0.12645688077436928 -0.40781089994167186 -0.21488894556553315
Ni 7.8732045772540244 7.585894527745253 2.1681809365553786 -0.5362557576803474 -2.291885985955937 -2.7304683627525104
Ni 7.037941206976965 2.2722386600244717 8.249362307378076 0.15265925020135 -0.1609546574409228 -0.23865262364403417
Ni 4.603410345576921 7.8067501527326675 4.785769158984339 -1.5595224199723012 1.3261305305065743 1.199479788553844
Ni 3.930051094663491 6.1098338353663975 12.478588597063114 0.27266754713689817 -0.9457831260924938 1.4871340389075616
Ni 8.03585714049783 0.7328365152629187 12.2750294177461 -0.7931989521034534 -0.13929928395467622 1.6914922601450997
Ni 7.1247237368858345 7.372042859068627 6.864693080802314 -0.12977488940400875 -0.7911955485201793 0.006024351817208979
P 7.1028340634026454 5.182992350318596 11.325756792407972 -1.0749080406173295 1.9019349970138213 0.7838344801694177
Ni 9.048122868412698 2.798431667980218 6.806797712653889 -0.21945471055934465 -0.4938855202442527 -1.5531183162181703
P 0.9571488421709999 6.672099990337074 0.2945985992949845 -1.0861018524506196 -0.700520967551742 -0.05572531858676209
Ni 3.9314925421364237 1.6119540768943734 11.143713988638853 -2.3507303097876546 -0.63271120699662 2.084375335132346
P 7.92163166831582 2.303433061746399 1.047827900280739 -0.05581813541088451 0.10870932698296118 -0.7599548453383428
P 3.4999730649990624 2.6578812993213803 13.187449036026253 0.32739013549075874 1.1839639523064318 0.832861817910714
P 5.764681085982251 5.785748395202036 2.3629361982300177 0.5682780762232148 0.6873795450737775 -0.2766643270011171
Ni 0.8244441981869509 7.57828072827284 2.5027445910422115 1.4209394453583593 0.04355782998629273 -0.5573449742504788
Ni 1.9102597834082078 6.208674627789222 4.263279562228281 -1.1785227266862026 0.5054855663770262 -0.43391608166915596
Ni 5.350800860292509 7.546374842862349 0.673706676714598 -0.18047472975172144 -2.026677723310561 1.0669263079634335
Ni 1.6681243280992302 4.833228817030648 7.600668440338023 -0.5886355568336443 0.6636220376428636 -0.7961333521414289
Ni 0.8189260415790317 2.8995547522351868 8.798980684778561 0.3059512488906924 -0.656227030730373 1.31807629274353
Ni 4.3265138300552985 0.5717760122728712 1.1708110898656057 -0.30912887528772565 0.5111319660295262 1.255829370988166
Ni 1.0958512012491552 1.6874267881694631 4.814412383480134 -0.4889472024023708 0.11210318315585856 0.04138499070469002
Ni 1.5969759592429384 6.4901911672625525 11.474531727705642 1.357969529394042 -0.20787420481059685 0.05607498861669697
Ni 2.3854015266975894 8.707146620680895 10.714957285824612 1.9989234360154284 -0.7914333755625983 0.7386766526858568
Ni 4.506260481920421 8.867553852284171 12.566506728859315 0.10601866752467547 -0.33574519232367334 -1.9198460729662872
Ni 7.931740280722155 2.0687450850475737 4.77768226905927 0.4527085317853107 0.23668958638039236 -0.17445037793451246
Ni 3.335611092893125 1.3564482722691549 5.553660567983232 1.7785577836060402 -1.3538359668416426 -0.058557131608602375
Ni 1.5452039708401069 1.4731315971934735 10.804105267996754 -2.2476982356951294 1.7306157085091225 0.9292306210504512
Ni 7.1019470188039175 3.0502784136356844 11.540189660097724 1.8913145411854975 -0.5642877241168991 0.8249081102812761
Ni 7.385514848911805 4.359038798675317 5.178376946390841 1.3648575147631268 0.367367961435277 2.1942583707084338
Ni 6.8941013812645116 1.4991423320415855 2.8111533659336394 -0.07054207188462043 0.22250069647452006 -1.128838729197514
Ni 2.216317890113007 3.192353390198586 1.6344526695343973 1.4212212382648364 0.28285425786191287 -1.5246382065006066
Ni 9.127116037938988 7.388203702851699 8.590809797552954 -1.5186495930173394 -0.19480194500767095 0.37850289500617396
Ni 2.147765974717575 0.8398778502000243 2.6329377900061126 -1.340595814002285 -0.8324882366213792 -1.1645876046623493
Ni 7.407672483784194 0.5569013831579546 6.512142749066694 0.1053614935566508 1.3621640270913635 0.08876425131960197
Ni 3.8320603866477803 5.201232204879937 3.658213505368988 1.9642122577864882 -0.03843156450332091 -0.04773278729958876
Ni 0.39453895741831596 2.2416356213683626 2.4941707505926334 -2.6682152703495596 -0.10732350237902807 0.008389252504959746
Ni 0.4433023862237957 0.0661818431082065 7.15136926302491 0.9780376152508253 0.8383434098505756 0.22948124155741123
Ni 0.03105210498421484 4.708876252346494 1.2130307167458871 0.6218066442689743 -0.19081056446009073 0.10180000145763758
Ni 3.3491939633111443 2.834356974228694 3.7048702032524887 1.4048178572061483 -1.1396725865882242 -1.9758894370141002
P 4.499838648627548 0.5024239087290032 9.51920083863416 -1.4059002916370498 -1.2100709338061288 -2.932100700418453
Ni 0.7585571126068634 6.923179812016556 6.419977891254086 -0.36441273546169495 -0.37501519356788965 0.15199153471036406
P 1.9304492880771684 2.0522053993004614 6.904980613665991 -1.0054761710777522 0.34011941013196906 1.3182272164990974
Ni 9.032618068030768 4.850091904454379 12.279965451336107 1.1576255715222192 0.29394599689970025 -0.5255142028931271
P 3.876772978452403 0.40278847218648445 3.514144526468529 2.606320589727292 -0.4608036500886193 0.9741688763240385
P 6.259060609006542 5.331877242186315 7.7641710879889425 -0.15164880665896466 -0.1216841419760743 -0.6408006688729738
P 0.06061379024160891 3.185238553312957 10.959060871337016 0.9381294662019779 -0.5238314158740656 -0.5635829847403907
Ni 2.22807123104615 5.618558968437654 1.8852238736139062 -1.0095020044076937 0.7543051032517333 -0.39697961365412276
Ni 0.4247317379475132 5.146457200908496 9.581086059467275 0.6725291103245062 0.19561467071695343 0.8997655217117989
Ni 2.9283652215980336 8.200967556483944 7.048818591368865 -0.4068999580916282 1.6871617510905461 -0.3918183811681575
Ni 5.052227192389474 3.700084782443311 11.669395097940749 -1.88822818895069 2.377515034080667 2.081070953349461
Ni 8.637458179393342 6.871694265098731 10.987392706218465 -0.7531460499466255 0.7836573311616052 -0.415243187850001
Ni 4.834411543162283 2.858334898538055 9.601669190176922 1.0884670102486866 0.48699702065453554 -3.1030494929576107
Ni 7.3182103399833345 3.9272236400050464 3.0157409625823015 1.5760720968008661 0.44824998179332476 -2.771808359151878
Ni 5.322618714187094 2.32097067266708 6.7180147123739316 0.8040469505615507 0.07416218513571099 -0.5441811831750112
Ni 0.8102792047510164 2.4353624657113517 13.068981457851786 -2.4994120633984958 2.3648667491890367 -0.41747979049000356
Ni 3.262226632444207 6.289063044548929 6.032198028877118 0.5600227781929581 -1.2253124333462317 0.3985472152515588
Ni 3.7442152512300186 5.917899560316671 8.408509196447328 0.6992847811517956 -2.091690894957152 -0.796905454420763
Ni 4.790521315621065 7.832308125233511 8.382706362677043 0.8529531893439504 1.1219288894515582 1.1728627001869478
Ni 1.9967373917362643 4.595981347062576 12.920734129289404 1.5683240774243312 -0.5194363721301635 1.2349838949977248
Ni 6.424531386860889 6.652585009165063 4.466716772912968 0.5582307192895418 -1.0521260097258074 -0.4703972073143253
Ni 3.380425325224685 7.619232620580773 2.797886505153917 -0.11878008095540189 0.2171016369461358 -0.9967557604856186
Ni 4.213193882567823 4.875123194224728 1.1727829160881944 0.22773057741489167 0.142775929649367 -1.0084640500614825
Ni 8.512680572505634 5.956790921942142 3.7250070396484 0.9878911110061375 0.1633514398078735 0.23174921165598153
Ni 6.546952781533228 6.591970294918663 9.493479317285422 0.6469463767593955 -1.1348926487010778 -2.0214133895878286
Ni 2.2603374783248738 0.727857977452559 8.746575753094346 0.5272324711358146 0.1917544164305988 -1.2029975718991153
Ni 0.9163928388786192 4.276950213101382 3.4459178607592973 0.19052028691318157 -1.025182391257428 0.5124928509327947
Ni 1.6541441356213642 8.453359464965713 4.852914739088871 0.04763611382072441 1.161646005535522 -0.6738434582605556
Ni 0.6713532365135985 8.602928120378282 12.177536748312386 -0.6186794114939022 -0.7562599129852587 0.6462115554759
Ni 6.073612847585012 8.449820526618705 2.903777454127047 -2.3470747153129383 0.8713275780860801 0.6422119473982038
Ni 5.214898235729087 4.754152487073226 5.8886575807167345 -1.1320862896005341 0.5457310441606343 0.9156680518746682
Ni 3.6115651235285995 3.5657806861671806 7.493682545688337 -0.038503041171204656 -0.534011698841177 1.2900127017380945
P 5.579501285949921 3.6311817452275488 4.061491700094353 -1.8694036000450192 -1.4155835803630845 0.39699169783898075
Ni 8.534810487234312 -0.05243634784708706 3.431731615213185 1.2000310330716235 1.490392140833543 1.6062843587181883
P 8.611234923443453 8.450051527816289 5.463214359080658 0.5332475669816429 -1.0103602386429311 -0.6744936902500449
Ni 2.7333078103569526 7.810390731606613 0.19096499402465825 0.07544850804730233 0.05791358448733251 0.6950943972195319
P 0.07494048451585313 9.082107764601457 9.951001213227782 1.1140078348322684 -1.3684460034453336 0.03196755404553204
P 4.129405128179659 5.012975468895769 10.269890974456052 -0.20227717033879358 0.13281084801685514 0.39349654020152874
P 0.5179813773839822 4.937872359536816 5.476764889331016 -0.5208527928617159 -0.36756336527553474 0.7839180410221596
Ni 6.132019190382495 0.575609708147998 10.693603535119822 -1.2573980010268666 -0.5104529376846305 1.9335551950222634
