# total energy = -340870.7130718185 ev
CRYSTAL
PRIMVEC
9.26510659135286 0.00000000000000 0.00000000000000

0.00000000000000 9.26510659135286 0.00000000000000

0.00000000000000 0.00000000000000 13.56042002777005

PRIMCOORD
 96 1
Ni 4.760912066764696 4.154964832572731 12.067593757235947 -1.182586869453247 0.22210577502894652 2.717682266731436
Ni 3.4623610567163046 2.400348217168684 1.0282257754518451 0.31693140205127995 0.09322845773854267 0.5600675153879645
Ni 6.039070577272461 1.034708570512534 11.123964890260067 0.7096589252972682 0.5410362097881263 -0.28364435786337605
Ni 1.9075649945120265 6.472881396668741 1.8935774631369773 -0.037381783082567885 0.19332407491056383 -0.6089130761357578
Ni 2.3610641653503026 2.7556279933544467 7.308171519606251 -0.38917425867709105 -1.036112922127003 -0.3024491492747049
Ni 7.574400650592206 7.6768171385168245 5.651413886209497 0.27576649777719603 -0.008870820127068593 0.34721231242300843
Ni 4.556533081136944 5.797482923695978 8.6490668461701 -0.5311819427018658 -0.29311964434366294 -1.413272929952037
Ni 3.410235567204462 6.60619701497409 -0.06056785461016975 -0.4129924441426113 1.847738970587392 -1.8182913547502362
Ni 5.952173142837415 6.0858778956183235 12.930266902614312 -0.3787780030444315 -1.6350326344954744 -1.3116349079935605
Ni 3.152971353326872 1.4629695910788127 9.4615796311382 1.482908430861988 1.6508762863959505 0.1451606278314597
Ni 8.307261314455912 4.382867923758706 9.451789193035253 -0.3421066157653269 -0.30025162740275385 -0.39668290834931036
Ni 7.4538894095540735 2.2183815243118437 0.3139722250944729 0.22734311216848588 0.9583931015470205 0.4961822866982294
Ni 5.488204401585278 8.469159786501757 12.71480592302902 -0.44726370662065557 -0.2086452786486665 0.25529717417925063
Ni 2.203057038060051 4.349995325680495 0.17938358114765016 -0.36066792370728207 1.4961691525266363 0.11385847528406842
Ni 0.9839450516651499 0.9671288832570458 8.702534849622623 -0.244284882229147 -0.794941902936489 0.174139531562313
Ni 3.2842115877625715 8.645910224364789 4.918608812985156 0.12862894872502365 1.4668418643174286 -0.03319782690820734
Ni 7.020699352297376 0.07780743838810876 1.317577832881935 -0.8021795583355088 -0.04057920697394302 -0.36929346059276397
Ni 0.8724376411829381 6.295287834108665 13.054968751349957 0.5699541783740572 0.027736803793636106 -0.0702420241456984
Ni 0.9466066722245661 4.7300222014905255 7.659088357112467 0.009205320648351889 -0.13180297557763107 0.5931401295722172
Ni 8.579414554576932 2.4335172986568447 7.574444196593042 0.23924860535682024 0.4770172837340043 0.7232454057324511
Ni -0.008604504463143953 0.6030074158801788 0.11369490214124948 -0.3178454292251171 1.3836797896759525 -0.2569298246866672
Ni 1.5586966720664333 7.98475222017619 6.536203767459479 0.0047943360648498076 -0.10131843383552873 -0.5802136513185362
Ni 1.2681151349957067 1.6749644942996555 2.1729760165886507 -0.20185885185445235 -0.37491954853028975 -0.07680399363393225
Ni 4.009169115729796 1.5865568474951766 5.8667525663881825 0.20787780435502262 0.4307875633425033 -0.5038652571647838
P 3.0320802429197413 4.931908873453383 3.104061782302332 -0.19190148353142433 0.22003757964600817 -0.34538940028165677
P 2.5864193522320194 4.704450507382334 11.587785389807228 -0.16664810828127427 0.6133338309112727 -0.029234728495401263
P 3.066277751236167 4.945630496270135 7.066117831169755 0.16172341728614728 0.8462492949612137 1.6393667430944538
P 8.153571726823056 0.3359045853455275 3.25780974010652 0.7218408120754407 0.1599681251579374 -0.1681861421923555
P 3.660532420948227 1.7149712244297897 11.563146691929726 3.0550894201385645 0.1626281884886038 -0.2273845069293826
P 0.546100204872236 6.29090543870534 6.006954011889621 -1.0427121726110753 -0.7876057742863919 -0.8588081054628306
P 7.564746409555707 0.23208628679823887 12.40838105373909 -0.3580016897290286 -0.20080058579326707 0.28719916509416993
P 5.284131164474037 7.2786028585276705 4.890552217297321 0.2763143998608661 0.3214118064201368 0.1031482879554159
Ni 7.036097959401656 1.4758295589853958 4.66630328413898 0.6481447679428709 -0.8685677559527557 0.9509497578950978
Ni 5.262543466187049 1.616677708924789 13.185311196959903 -0.9179121107138385 0.3617349315192157 0.8149029194394483
Ni 0.6359921217477774 3.613011689397171 11.57395443873306 -0.8941679730193632 2.233370506218547 -0.7468537891800106
Ni 5.528776303215629 8.941383737699692 6.470937577312257 -0.4289147717998226 -0.5404664533275853 -0.6586965753167882
Ni 8.261519483364555 2.7157787700358487 3.0094094536757803 0.7770259418880165 -1.8516725013138433 0.05673396235693455
Ni 0.8700055507106915 5.703442092102448 10.146421100717872 0.17833042971520902 0.9768407667292468 1.1301160532480408
Ni 7.831229404461432 9.27344515684374 9.094715692219292 1.615943479074507 1.077876122106718 -1.4112877812012081
Ni 2.074142345371147 7.126506869223298 8.520364324421442 0.8191951190568989 -0.5455847483907571 1.0105828961766983
Ni 4.291736335625311 4.956554056905481 1.1051011441199234 0.8481583390584684 -0.9587805667934262 1.2177371921021352
Ni 6.175962526710332 5.307386581941993 10.253861129419828 1.186373075968557 0.6730021933061829 0.2711444256241524
Ni 1.894010143613373 8.728740277019583 0.22541911611698728 1.1263419309175893 -1.0609520926578695 -0.7355586758821655
Ni 3.9533746440198225 9.017274225540342 1.433526008938805 2.879040330258364 1.03943838695581 -1.8038756935455385
Ni 0.1898577841147916 8.281328281191843 1.9962561535772703 -0.5750552470460484 0.18621060379423415 -0.45823717491302374
Ni 0.35313861005952996 8.297143818091367 11.872947766050464 -0.593867751766861 -0.34800986862363936 -1.5731716353246197
Ni 2.7932906515246634 4.112993899851678 9.30303142162479 -0.5134253900493931 0.5124987644700658 0.4172537905221266
Ni 8.86250988554642 6.599340836118996 8.144957957253352 -0.8239573163322326 0.7703102204307378 -0.20830023660442193
Ni 1.879778939935771 0.6302718449570538 11.228624460483088 -0.2933232757140368 -1.5988739251867303 -0.1942851532722525
Ni 7.2307578482469825 7.637051301157275 3.008256874419599 0.5451553741628224 -0.871025730574945 0.17745779730226857
Ni 1.0983505874796233 4.1621174948377755 2.3020435835358097 -0.5295621477102558 -1.0443558788620853 -0.023494997798146636
Ni 4.823442270944473 3.414145442173179 7.772263486775648 -0.12609332678736349 -0.13952811213603067 -1.060031380615813
Ni 7.125895372190276 3.3959487728874946 11.757345178468317 -0.764062439748813 -0.3547638995180213 -1.495750834042295
Ni 8.287860181317305 4.7408345808471415 13.169880161982658 0.1202864902975993 0.4304659183370264 1.064036130899832
Ni 4.869675152683557 3.4302481973760903 10.076978200532977 0.8149144894036741 -2.4882133664691986 -1.111540090018066
Ni 5.520715660507611 9.37684374606382 3.5438393303238573 -0.4656360384802561 -0.7550322112257448 0.3026388966880078
P 7.870847000116007 6.078419484836768 11.42853210568453 0.9858643103840956 -0.4787219251299369 -0.5396095046439288
P 1.8911657558991646 2.1379233389366505 4.8140845133179235 1.0969871319045559 -0.3280308543985512 -0.43409811577297497
P 7.1919833772894535 2.5166438347215885 9.590701862214068 -1.2785283552475788 -1.5286671251543416 0.010369001939149884
P 6.73555643277792 5.203459881647942 7.961349487513914 -1.3270514996589469 -0.30512875298939707 3.1985034975925624
P 5.290097893099282 7.170895994756756 1.0311239007841069 0.3190037111992764 0.8996343954505732 1.7725601712617083
P 7.657045401115781 4.412683036671807 4.202658821616477 0.44366801884959717 0.5905975656560215 -0.5974462131467387
P 0.45974385266034895 8.135069309020862 9.531130933069853 -0.42437188962414657 0.3737926340146982 0.8639986485248345
P 8.202232066481109 0.44072166238008537 6.570498559394793 -2.4988446209308 -0.31728415740500837 0.368347808850043
Ni 3.789363727678082 7.105475077329967 6.715024956638879 0.3075389050927865 0.08447899368068676 0.24718817191887107
Ni 6.098320933729664 3.44130146950329 5.181965760937221 -0.9247874976774332 0.5854934116602368 0.43160671680968893
Ni 0.5704590965316005 8.348324266733993 4.354250789123934 -0.06676614978195598 0.1051915436376898 0.13515723676184466
Ni 4.465466348749477 3.4175364711744822 3.07966675672738 2.171348555989796 1.7561963851917046 0.16776628104611752
Ni 7.948173579473602 4.8886686211334816 6.448590140287271 2.019479148679593 -0.5387170747366464 -2.6959780422851245
Ni 3.504869365617892 1.5141037141886347 3.2834249802155475 -1.62148343505613 -2.437553892441118 1.091248686758882
Ni 0.9019590502180577 0.791815463421616 6.210130386685764 1.3927046188823822 1.6334506347203352 -0.20622612768421258
Ni 2.691874795108626 6.330513769253354 4.621296175997907 -1.4294611096761252 -0.39759230753745717 1.7344759627954773
Ni 7.566108380220165 4.5379936029085055 1.9455000468151349 -0.2674932020248103 1.2897712751512498 0.07956432998788877
Ni 6.806351112010054 7.7915098926346875 10.437631738524084 -0.6830639484175591 -0.6027138893035813 1.4632862857556865
Ni 7.8692441366809645 7.337149066886243 -0.3279727276187077 0.3080068458681405 1.248024530231767 0.7489294407621166
Ni 1.459726803782484 4.178572324090003 5.333327027291311 -1.6360909005566595 0.21135110761560377 -0.37093510996124507
Ni 5.632656677976875 5.900205160137109 3.052721973826857 0.9647851211162932 -1.8623927159448248 0.4399892844464293
Ni 3.7440758868082127 4.035120679206987 5.372190443271824 0.6358091291956534 -1.1878733146631673 -1.5179137432925793
Ni 3.1300494796951095 0.14208504166527844 7.673136111680163 -0.18790033279183124 0.1750371036759179 -1.8192863716736538
Ni 4.029617205909789 6.192046751700122 10.778730342607675 -1.0702188626717761 1.2072733164563336 1.430466153901872
Ni 9.70871986307665 5.84604134718186 3.7566023108786024 -1.6880924904349315 0.4552315553174805 0.5458158905649567
Ni 6.35889279064951 1.7714513140252732 6.8748888112839435 0.18028961032410887 0.3779393091932201 0.6941469457045981
Ni 3.9541065874381367 7.3308487944248055 3.05712845850724 -0.061953044664028796 0.974184302943006 -1.3026368182600083
Ni 5.614728696781459 0.7374135372277512 8.951585546533941 -1.4674604717380342 -0.3448391842051416 -1.54439970539825
Ni 8.965176531348183 1.6537566653816667 10.954704364540898 -1.3112086190894192 -1.5084690529399116 -0.4166269555714051
Ni 6.4132974963753435 7.255597598936859 8.085509327515743 -0.46859563532921233 1.642267975901649 -0.03515057975920398
Ni 2.0964990475026926 2.4401603800610383 12.702777961691611 -0.24344875948109687 -2.0004951513779226 0.9808989959590204
Ni 5.401631245879864 5.448206936561704 6.290909144747965 0.8190449666322798 0.6298107455203734 -0.8065085247281658
P 0.2806762116464268 2.875490676933313 0.4918733891923729 0.44668675107126293 0.166089664674643 0.22104493786459997
P 8.911874373303101 6.220870498211203 1.4063375537357297 0.3572324156631719 0.05518024471656949 0.23983198866411598
P 3.0503139726316695 8.007701889127635 11.765725467352684 -0.3209772899858795 0.28636535633896487 1.0174593115815573
P 2.242072401788165 8.9233075147993 2.4880656135343724 -1.2561245336310818 -0.5877863214594716 1.704137716823252
P 0.8326495675676421 3.0759041969529823 9.335494501993004 0.2784471299331527 -0.34207987629244957 -0.16236285064235909
P 4.085013278037642 8.095692606136872 8.93524560460307 1.8037898186999517 -1.0978237688732384 0.5385671794223433
P 6.083468967912479 3.97180294096953 13.916380915725378 0.42719958888092874 -0.07687752718434501 -0.8838514215847036
P 5.532065416044762 1.7530600775018095 2.1128084145819135 -0.3366147394128203 -0.83880003777202 -1.2260631954693273
