# total energy = -340861.0984215836 ev
CRYSTAL
PRIMVEC
9.33877724566590 0.00000000000000 0.00000000000000

0.00000000000000 9.33877724566590 0.00000000000000

0.00000000000000 0.00000000000000 13.66824447710473

PRIMCOORD
 96 1
Ni 4.427196668827522 7.810635584751068 11.403033372105348 -0.7534121591238186 -0.7431598852681911 -0.35913323223031046
Ni 3.8001631630813044 7.283508315611392 1.7426736931620541 0.2877930899244269 0.46628061404279053 1.1787502693159762
Ni 6.953868164205735 2.0487689199339085 10.04185432365438 -1.4015312160350766 0.8306977203798596 1.8091438839230132
Ni 9.077188541125064 5.2923409723637 5.333198121845249 -0.4880768839822756 0.17264803461845105 -2.9490612395321922
Ni 8.399090602609677 3.2452063384090533 6.324679268722297 -0.7362652150308868 -0.21256646807994362 0.47501567992294325
Ni 0.36983704935158435 1.7463326260001961 5.000909493275486 0.6121261837564167 0.05163932144284656 -0.3270157828704755
Ni 0.9228532761581749 8.487472788368166 10.776057766776681 -0.37979898810977814 0.9460746891909835 1.2136026011084713
Ni 3.623305403794084 3.6249583673273946 0.5839406530450372 1.0031056139630468 -1.2193359040478224 -1.2327467781370898
Ni 4.678138946248945 8.842785237813771 13.360421424978247 -0.09434560206212138 0.8625004667127534 1.6936208764523284
Ni 4.022463411369033 4.331576930875159 5.649673399279674 2.0375370346225683 0.7227700087579294 -0.811755374949402
Ni 5.964938371211741 5.966722077623394 1.5361195568150894 -0.09215630772028645 -0.8578192591870002 -0.47668612564683066
Ni 6.510621790298809 0.5279630896833554 3.799129360464709 0.6827240485796371 -0.9672112140592825 -2.5660368025065807
Ni 9.156362692737538 0.44715465209161803 7.7195778393751 1.8784101744190036 0.8981953490112015 -1.8450925341034803
Ni 5.383431403459251 7.505098816845268 7.251467905518534 0.53048234553168 1.2628484826184767 -1.6748847334954058
Ni 8.4877155965708 6.960003740710737 2.1130421189263244 -0.9495456784587194 1.5343037546148286 2.1218471068255584
Ni 4.272854700946019 5.227838039456485 10.99433953931083 0.7534941773146636 0.6640681240413466 -1.3800810165811006
Ni 4.916352470586174 8.889376396388275 5.135227255461369 0.365478457722048 0.5672550342753392 1.0363638617955442
Ni 7.026719963772722 1.7199132257982979 7.819343060448575 -0.7893510391122729 -0.34667880851704164 -1.6621140640932985
Ni 6.007149643361823 4.259080004835097 7.183701070041307 0.22953472050316595 0.21810745250283084 -0.8033293556692359
Ni 4.983601003938548 2.235404378765628 3.6185585034326047 -1.98955716430918 2.253248733199713 1.7835338966643928
Ni 1.2494349780883551 0.26047903651869364 12.943444096963129 1.3403065648966404 2.0964510353499572 -0.7350930490996566
Ni 6.868773227959819 8.059513992450109 0.6130197369434714 -2.39952264870001 -1.0251641364249828 1.0990373295653653
Ni 0.513963329046146 6.154039267177891 0.5005108207425636 3.295716908120782 2.268439839117854 1.4537945442151672
Ni 2.771683649389171 0.7998895990785025 4.1566905874177795 -1.1780275322173388 0.759761241270298 0.6748495309275668
P 4.2337905966531455 9.281754451843543 2.9365812369413016 1.1171872610015146 -1.4256129395746286 -0.6410402956876057
P 5.810250868580338 3.694382835726444 1.780124990662822 -0.295467061529917 0.5964134010068503 -0.5430326713928648
P 5.5740451813033465 6.774825131094815 12.973268415268105 -0.038469102609475676 -1.0176056073514346 1.8296792848722037
P 0.20619646118693213 3.320850432306323 3.1891017676798405 -0.9663928319230454 0.4086205403271608 0.24696525727478758
P 8.67021397718073 2.535702092760763 8.954463002859512 1.7272154245783224 -0.27238729689231794 -0.17567139482580713
P 0.6202694295474777 2.4630931013964092 13.258962149752556 0.14974927564340662 -0.2026173272870317 -0.8423648723051428
P 7.500672236535725 8.591478748088399 7.612979435152907 -0.9414323053229657 -0.9591284370511483 -0.4710857487409177
P 5.809531782749462 4.387095960284945 9.505307030130236 -0.1270011833136135 -0.06504916709084926 0.4493876949421938
Ni 7.6573115435652195 6.208773839317631 7.056258515500756 -0.34550150037948885 1.2502675606296725 -1.3942213126372247
Ni 5.687539338480323 1.4393203313245502 1.7824073877675741 -1.2508658563353037 -1.301074615979211 -2.9104759230598263
Ni 6.774619678000279 6.744156587346836 11.224922348941458 0.49149388008362443 -2.3544445254144484 2.575455010496687
Ni 1.8386184205548648 4.385583078407 6.041527549343876 -0.3017343825958675 -0.6090331466533898 -1.067717179295845
Ni 7.576129554892507 9.02967284362515 12.184529315956683 -0.2623805633885933 -0.2535061437170989 -1.9674914427583923
Ni 7.087403336876976 5.066249180604084 3.807302658116423 -0.43460745130922573 -0.19826959184129722 -0.07186413313015365
Ni 4.916203050153784 1.1183092098893972 9.156985589165062 -0.3459979803999331 -0.5927377519274759 -0.5304576629413317
Ni 8.924863749080822 1.8758054306658436 11.439063307743009 -0.1790156287076917 -0.1061395093732559 1.2465322619569565
Ni 2.0423811964492504 6.238480489032102 11.2229817510758 1.4602575262316915 -0.7104017170005636 1.4673573705012666
Ni 2.8093469371283915 3.612817957195734 11.70249059616829 -0.20537097877276891 -0.5327068639868245 1.7629676424772671
Ni 7.461290613824023 2.550709507438901 2.773901608932455 1.0826478324637483 0.6622670662768659 0.46937262270455293
Ni 5.386821379519092 4.320379737222958 12.761014823303178 0.4011296312667543 1.2764128515664728 0.7197649033830185
Ni 0.3283915569175002 8.081058551045293 3.9239748011147886 0.09789783818975398 0.06998748493273108 0.837866470214157
Ni 7.8824787963994245 4.539738270748015 8.601808369355037 0.9211146768115364 -0.38921668187925224 1.5319954181966262
Ni 3.920007688634843 4.7082471633754635 2.5657888307001255 0.3224723864741672 0.27625937825321456 1.0277887185320236
Ni 2.301373499665667 7.564129226416212 13.74628941896984 0.19806776024313627 0.09592400229283479 -1.430116483871937
Ni 0.32090652713248025 1.4434854258774124 1.383814376202598 -1.7447984277674078 -0.8317690990671675 0.07477282213651638
Ni 5.321057711713589 7.011058834702881 3.6559406939833923 -0.8645480932704014 -0.24073367454277894 -0.08451833155905444
Ni 7.668611463764688 4.056802094487584 11.341348882104084 -0.6292754418421938 0.5587917339993345 -0.8294332518451393
Ni 0.231991097205901 4.515961744444009 12.832581607151614 0.6681003851291913 -2.0581976482957134 -2.288430423307169
Ni 3.1442728363298325 0.3392021252008926 10.731498726082679 -0.2647920010435633 1.2959802321754392 0.3669018204321359
Ni 0.8840133025138854 7.1045306539396424 6.42892710276746 -0.27352603848245155 0.8873717760331362 -1.112442804337994
Ni 0.2957870846923722 6.410724892469292 9.901193664113556 -1.6168371945333704 -1.0892437405137112 -1.6098059987182018
Ni 2.6598237781914555 5.469525588846772 8.751968432885034 0.043908271347175995 0.8391648773106063 0.10666787107290016
P 2.5891572524481674 2.9132595090783813 4.505668544407766 0.5216809451899661 0.59844431539395 -0.09259725191244698
P 6.392682375258239 3.320364815901056 5.079215138624697 0.7239339471590435 -0.47498739778816906 0.5195230183066988
P 3.5810380989818564 1.380373970746826 12.715458401222971 -0.4960804710130424 0.12274832157453053 0.041504289891373676
P 5.791946865612603 6.132261239157097 5.637317263398751 0.800694232039234 -0.5911596088070787 -0.7624380167715127
P 8.20171555019995 9.482314027218576 2.4097798911197756 -0.0029583112973755503 -1.2568490705019324 0.671000846605438
P 1.2831666407003226 -0.12249020108453765 5.844773525606269 -0.02035002441126173 0.22365152224951163 -0.15013519822791563
P 1.5517965618058729 6.736536145294963 2.332827434561394 0.48964114314560186 0.15226150054229906 1.0516002191293243
P 3.5648073045135287 6.199313658191961 6.850879197303454 -0.6799500853789258 -0.24486132355790732 -0.46045603694121345
Ni 7.381154568178039 3.5498839388286108 -0.011080458939396319 0.08353359904828195 -1.457824748420483 0.46422655972723914
Ni 7.859318629379025 6.017132796000858 13.565076054078459 -3.8206233022265814 0.3443969544614004 -2.782414673912814
Ni 4.7035777748632865 2.0136831346534096 5.915534372997503 0.2963080693739735 -0.12749792044437397 0.2579014445713171
Ni 8.393197834307308 4.736991919056425 1.6993865938987673 0.18527189403004865 -1.9044762753784361 1.7683890706031544
Ni 2.6446949594120017 8.234298543237921 7.439242695147225 0.6603546797455013 -0.9358959488857688 0.5973953053041453
Ni 2.3376453096282583 1.324378663708798 7.541631178686841 0.09100419639371425 -0.7210185732844615 -0.642324561716668
Ni 4.024714056631903 3.235232524547043 7.88557927037151 -0.5646602769649695 -0.10432868141676226 1.6495082024038303
Ni 7.383526617542225 7.433731882825154 4.62890117826574 0.5796264113564985 0.01770513058924693 0.4336507438229112
Ni 1.5698670953479983 4.374357868423726 1.365812949610453 -1.1033889216658417 2.8202397151803877 -0.1633730370744283
Ni 3.2962520936241737 1.0797027056707167 1.169566021465268 0.638567922887713 -1.0118062270608381 -0.5130572080766971
Ni 7.367501276168434 0.8752581990535534 0.42817825717813024 1.4033716116779251 1.8227277932550352 0.8245566404791284
Ni 9.006120447969728 8.412202245551871 0.23681177390587263 1.7137616130662614 -0.4765675977910954 0.7726445249908692
Ni 4.930734187203679 7.059723201776791 9.313364344315579 -1.1897054827758995 -1.0461330253671661 0.9162923157222284
Ni 2.995132567250895 7.7463847988235095 4.5686109676742115 -0.5095471380409096 1.8305825134127636 0.3551763044650915
Ni 1.5604629468844735 3.4135564718270874 7.998328193141944 -2.0508422363719068 -0.16228468910625599 1.2073234529679786
Ni 1.9886925673362377 2.583974231199651 2.1725123848951147 2.2030818825373353 -1.9505681846404925 3.932673263547001
Ni 1.6604812488153073 8.970026074770598 2.174207372925035 0.4115778231832718 -0.5327791119856566 -0.5409109970641716
Ni 7.404183992320097 7.061581618404636 9.221773354771521 0.40315257523405407 0.37262226785568087 -2.5043156713476997
Ni 0.9994545947004406 1.292346658515263 9.634909643796522 1.1095490277299664 0.46267489896940317 -0.21092353315988188
Ni 4.9377476087489685 2.454277295885419 11.32584837999906 -0.9467385480272275 0.18017031113742518 -0.4533633917604902
Ni 7.309993087252461 0.37842965809169266 5.731094460644209 1.227590687857447 0.05437497520645474 2.242722122636776
Ni 8.258878204366022 9.41834340460175 9.872845806456128 -0.6975153479561987 -0.7494452040562706 -0.558262858079058
Ni 0.8893849670582942 3.799453416027454 10.348009318599189 -1.607717234509973 0.7709280565203949 -0.14325466905799844
Ni 2.4463486741917424 5.745860000997415 4.318919152496349 -0.9845337644981302 -1.6190223751101471 -1.8250201888336375
P 6.246997453678314 8.578955448098739 10.38883565011656 -0.8994544182292832 1.856726261687667 -0.7313263829683727
P 4.215486593685411 0.33199445709349606 7.128822680735392 1.5391479700810073 0.017425394565299023 0.41062780056517667
P 2.5780160914581125 5.277454961786879 13.260616047163568 0.1673569614228408 0.5593923436978108 -0.21723250609704522
P 0.398237204160348 5.280023125468577 7.316051151908159 -1.0986475503261144 -0.6155503789466173 2.6839067129428873
P 2.5780627853432345 7.80864642524488 9.69781097644406 1.0236104187846176 -0.8986411782993685 -0.4455930037864519
P 9.421705364330517 6.944127819769334 12.13987501973703 -0.9432549603540014 0.37990440333939085 -0.38251895814410247
P 6.65985544714799 1.780970149983526 12.358224965343457 0.6798899215649516 1.0326416757489505 -0.9911160457013382
P 2.7051355243136226 2.781218540731037 9.731421234954713 1.3049132729990107 -0.9488597081352884 -0.6898244070698442
