# total energy = -340868.3434472316 ev
CRYSTAL
PRIMVEC
9.28084428570711 0.00000000000000 0.00000000000000
0.00000000000000 9.28084428570711 0.00000000000000
0.00000000000000 0.00000000000000 13.58345373424940
PRIMCOORD
 96 1
Ni 9.435091923233667 5.137977488848648 6.460508009261304 -0.4938718933974978 0.11383944912067491 1.0246913105536224
Ni 0.9637599945665803 0.9316204307864479 8.712033409610449 0.2413646232585585 -1.6568317326484368 -1.5190694541635774
Ni 3.2130097318955446 5.895814110283962 13.032645085571712 0.4545111322116882 0.23414573691261611 -0.702898209534667
Ni 7.431162743051753 6.9432594778235295 6.711747888897228 0.006305630503053657 0.21884330222759088 3.0567891764384907
Ni 8.172841414576235 3.4440192271456964 3.7571697628787932 -1.0154839330227416 0.3340796316957924 -1.4789970116227238
Ni 5.799256206279198 4.223443092402144 6.339574895810354 0.16475860456804528 0.09681411820727197 -0.17848006791919585
Ni 3.7780739365601015 1.15630967107435 8.96785060165075 -0.5833874210608276 0.14142095828336934 2.1478342749179395
Ni 4.836535666273223 7.568918314864778 3.479605696495549 -0.4552714074164804 0.2869605667208026 0.4638581206442269
Ni 4.830141164556644 7.08755804486179 6.562207501003345 0.4244557075872045 2.509536039206375 -0.738419028149096
Ni 8.782370144239525 2.720484606210345 8.37534015616408 2.5884717344713293 -1.668404267977385 0.3633063897713937
Ni 4.3696256708315016 1.9876505792952968 6.8479220048430465 -0.4594144830505765 0.23706522455225626 -0.3632246286908648
Ni 8.127977813272983 2.2641733349490782 12.663011331482886 0.04535374554445092 -0.635112617349261 0.9689806472548795
Ni 2.1997549947244464 6.557129951091676 6.570520353234897 0.26375404669735225 0.7747744268496786 -0.30737795403488993
Ni 1.6993597130803813 4.0643044553423895 11.566161245528425 -1.132466298647772 -0.2995278618628519 1.7705356846325122
Ni 4.208463809716283 6.072809091759822 10.904769301797526 0.7808733406585648 -0.3203501979248418 -0.43016304238462694
Ni 0.6441537035445835 1.3331004739758059 3.425393500737857 -0.25988762176341046 -0.7205740295478752 1.0371796728286202
Ni 1.9577569798336143 7.479042618749617 3.3390714399017645 0.8935313678766289 -1.0837845171713527 0.5708520075979782
Ni 3.2081558503312917 2.4152469183198537 13.277866337684848 -0.7290368156032476 -2.026459693762484 -0.99217122643873
Ni 3.39079358513615 -0.0922608730979775 2.479265254155538 0.7099620583599837 1.096275450549512 -0.2626605565228573
Ni 2.7530232462949957 1.485046456709946 4.683575287258064 0.10756107231113089 -0.0037311849076580896 0.6190835889108564
Ni 5.605750602809444 5.146664359105133 0.9952786698636371 0.7694118769861846 0.49443830742392914 -2.3804473772361128
Ni 7.744047846638124 8.277120981031207 12.322121280248075 -1.4302044156000528 -0.3776760282295044 0.6972595231916507
Ni 3.3336514268357527 3.92418226823513 1.253501456744197 0.523800305525814 3.8084874381949954 -1.2274806446421442
Ni 8.584465420575782 3.2417246641322555 10.535748083431914 -0.6093925868753376 0.7024657499829385 1.338094901957302
P 2.2065207302126693 7.5299109263092205 0.33471364935907433 -1.1964296888736103 -0.27967817412677637 1.4293014441698093
P 6.354501277683755 7.12259323206075 4.972291216141512 -0.7990158158955465 1.0272886389671532 -1.5637382578258616
P 8.571323745059562 6.729271051003283 8.783998004328186 -0.39930620490477037 -0.15727412326554205 -0.6259363501666317
P 1.0982579900334235 5.1930221763392534 4.552779420578946 0.6919419676334794 -0.22366232088278898 0.41161638973069103
P 3.8247194599672474 5.682178355546778 2.6829083238444777 -0.04045399424998839 0.24725450638043225 -1.6557685814912453
P 6.330788720519956 3.761377697680385 9.770048730713167 -0.19459008610718098 0.29504720038367893 0.29662277240091495
P 5.825548838155928 9.519826031611549 2.359337256141316 -2.7201309853822444 -2.9095539254661893 -2.58657760277241
P 3.7935079806162264 8.431582072568238 10.860650024206421 0.9625112374804521 0.051838581937846205 -0.9428757226377117
Ni 3.6152044000953185 6.976457057852848 8.784745112293622 -0.07335537296369947 0.8584391521591861 -0.20338223047751425
Ni 4.637944160131937 7.263504290932755 0.9125705697945045 -0.7513339364385512 0.6200292406535773 1.0540309400580041
Ni 4.348650962733581 3.7147507359618217 8.647307873439782 0.24099926949933978 -0.5513386201553988 -0.549381496429028
Ni 2.93862157042872 9.024590899393344 7.277865469388827 -0.5300156903079065 -0.42068235658770126 -1.2029929439134248
Ni 0.4770530301674811 2.854564963684089 5.175078591986812 1.0355632202711198 0.016712941879306702 1.8319241150423224
Ni 9.225261314655839 8.3844075410365 7.241420521942045 1.457037219522181 -0.06627764018131166 -0.2019367562802393
Ni 1.4444984480020633 7.432424937875345 9.057922123580456 -1.388014155385248 0.06687105079093644 -0.8384015167820206
Ni 5.686484667297856 2.806007586352973 0.19993630047906844 -0.08527654988131765 -1.230963975205054 0.3874068823640231
Ni 6.550113632807593 2.2514307357373764 7.96778208804847 -0.6869915656067394 1.0469784040865968 0.7575706613768823
Ni 8.764634450799203 8.09050176402546 10.420967241661545 0.9216628360055223 0.6992498141488022 -0.9238230768816347
Ni 5.90827828416693 8.16048861082476 9.548067640789414 -0.8776311517066046 -0.9163887320907766 0.8289748241514819
Ni 5.5187055642030725 5.762856734969444 8.512085044033803 1.544927552877262 0.061855085633583794 0.4440793953554029
Ni 1.7917783605313078 3.837183633850215 2.9347050541378694 -1.2745387744722114 -0.2082141046485188 0.8044768390101177
Ni 8.318773410209731 7.665485499713832 0.9102791293390282 0.6386669103594227 -1.2989789097924467 0.2978543308151709
Ni 7.606784159572528 0.6236829452916703 0.7876337001163682 -1.6387825884562102 -0.7577768638504174 0.32889731616390455
Ni 3.7675401782896856 3.3255399689253182 10.858911722070696 0.7311448630851859 -0.62017450798219 -0.3667226145417942
Ni 3.8588172818928053 5.362388303807817 4.79968607401535 -0.41529718101638796 -0.676157708216029 0.6992207606830796
Ni 0.17704324186617426 7.252228065119049 5.002595957005291 -0.16197127163089525 0.061587690904810054 0.5187668568669647
Ni 5.4417859267183095 7.841209005521811 12.246026709820793 -0.7741483632299055 -0.5877865785697878 -0.45018576536345695
Ni 5.534984165089689 4.376539899828383 3.097204284915437 -0.09778625231255417 -0.3915029068102677 2.7904054054277747
Ni 7.297518585259692 -0.06360255401144246 3.7737954673418974 1.0841326445393908 -1.2421433888606415 0.8883163993345926
Ni 1.476665854315069 5.518937585310351 0.8202530835463512 -1.7725493726284312 -0.17323090370511457 1.044853130213478
Ni 1.063037185948641 1.8136254679925932 12.047219888091952 -0.5411670789390357 1.352037223070007 1.3391423693852098
Ni 2.8502215285558465 -0.09784422902351246 12.96006795513076 0.7076465228529296 1.5780197074455402 -0.38248399114110904
P 4.345346982165944 4.21433858415256 12.662441487643413 1.4770152053060046 -0.5925608600299794 0.6528601711406692
P 7.001496775750278 3.5967726433331637 1.720860645049608 1.2096503013289424 -0.2537545122824791 0.6961629476933623
P 4.019143867021822 5.287213465049782 7.08754690784864 -2.02873126340548 -1.1398430507278177 0.43254619790482285
P 6.9756032201780656 6.257302995422903 12.843359482001128 -1.4049232724357612 -0.2625751958979026 0.5658283291311417
P 0.18826192644527445 3.9933616815811037 13.578277986543963 0.4069711776491959 -0.7513061685244093 -1.0798023925951532
P 8.937592265008428 1.1593259454689624 10.448962908465695 0.32276883466866346 -1.0414420476494 0.008173536949727857
P 8.743455564126878 0.2556659142783578 5.400156699650511 1.6845153146066345 0.739406588873346 -0.608017560904682
P 9.086893207119601 7.905553098992113 2.961777276935053 -1.006717242573705 0.37027330800753006 -0.37827972325177434
Ni 2.040625638508983 0.49039795617367576 10.693112223063208 1.179395101988827 -0.6251133400447041 -1.1009157775350007
Ni 3.872664301575149 2.5146540415219896 2.7104427326873584 0.3663030105058724 -2.220411632065034 1.408298102445265
Ni 9.01156987485291 2.214687873188851 1.4845768459888156 0.5997458078141928 1.9697812672338333 -0.4455168991328779
Ni 2.127280881655127 4.107683121559062 7.000762660966851 1.1796959210586972 -0.6944981583964297 0.4703681538486028
Ni 8.814036384960811 6.219632048445267 11.858069784848018 2.182427953732409 -1.7571047559385868 0.5635480177373972
Ni 0.5186024419743752 8.794750790523873 12.777017222754948 0.7705909848959502 0.526687654375938 0.44743262809835194
Ni 4.525877965316719 1.1568293983546525 11.538111749827388 -0.78534654593857 -0.5186678693952551 -0.008254269588992237
Ni 6.573120845805268 2.0664820707040303 5.304501821795273 1.2936973496785333 1.1187610332465376 1.1086062042007228
Ni 6.756946528679388 3.9380107262288924 12.008451945319106 -1.3025401447811438 1.8400128055877278 -0.5798647526195497
Ni 9.170476490805386 5.7316081322412575 2.8279530707637446 0.23899020948911098 -0.5051194412868591 -0.15841826417231428
Ni 1.9227774777004005 7.526634788274456 11.378369857888712 -0.3317466126872416 -1.1288384720871978 1.0454185157986446
Ni 5.053104167806399 0.27908241250927085 5.273151129779885 0.5346431617775889 -0.509452264334258 -0.5485440881293974
Ni 7.760131549794627 0.1634393803042574 8.763976438938963 0.6225363233461473 0.5622593808329608 1.0308645292438696
Ni 7.708205225985837 4.723615633783222 8.237155809344806 -1.0622150185306931 1.4095623138696691 0.22417062797777523
Ni 6.177227870879161 2.0226950473385483 3.1166281639323117 0.5651876102233492 2.1069516777709647 -0.6565412195366822
Ni 7.0298961592810905 0.1709104599586052 6.659029909070406 -0.5043609658542797 -0.9209655528281817 -1.2729506040494851
Ni 6.899398207703718 5.899953366837799 10.453214463235454 0.324293498843306 0.2547024780180452 -0.0020375992553190716
Ni 0.4788303118492296 4.832646992515245 9.488667453072987 0.17861016573915692 1.060764916347728 -1.2344856152050674
Ni 2.0938791230514027 2.845776004140402 9.171466756891247 -0.6261878040558055 1.203562700373966 0.09429906509490212
Ni 4.937437005406228 0.3605264615859534 0.29840791457666027 0.4962982434508033 0.6158195734476039 1.6034831418239675
Ni 6.6667738455469125 1.4511806558916662 10.515970604247547 0.44819753128883455 1.169601770047489 -0.6156599079412881
Ni 7.676557546953133 5.5284782932416165 5.052080490681089 -0.18243339613998905 -2.465693330989812 -2.3944434344048893
Ni 1.1328569775507016 9.074048518620698 1.6440598023717707 -1.2115485467929201 -1.4156432299564266 -1.2495674492388544
Ni 6.8998715307625655 6.663636920176516 2.685000226147695 0.13788749120881413 0.1422408830815034 0.5886211586559411
P 2.1462416465418754 5.6711712742175155 10.383219263676292 1.0914397197237655 0.9204225358405181 -1.2294552518700115
P 5.49405564176587 0.3948052599751879 8.133581587055959 0.20747542671028138 -0.7919157145156556 -0.5758517748054147
P 2.0177947615528393 1.6409553599563924 1.6301366797662393 1.2064816737929738 2.337544921445632 -0.023057653150411903
P 7.97799936952856 3.3043889247858664 6.624894963767684 -0.19288621604219686 0.8002322048011508 -3.530940708588926
P 2.126742592686242 1.8884290729789825 6.829543148893351 -0.815414568968544 -0.0994780381926803 0.9052198599581508
P 4.5420823194490065 2.8823239689588145 4.894933522806208 0.5965846364773919 0.8678972122482924 -1.6549561128922787
P 3.273622925960819 8.604252180604439 4.936091282984017 -1.940796449965709 -1.383461245907243 -0.2688240050210919
P 6.471922519654946 0.5976381119575134 12.445268803146885 -0.3287008838823823 1.5332408605679528 0.6341533387597853
