# total energy = -381163.52048373123 ev
CRYSTAL
PRIMVEC
9.34286359078935 0.00000000000000 0.00000000000000
0.00000000000000 9.34286359078935 0.00000000000000
0.00000000000000 0.00000000000000 13.67422525624375
PRIMCOORD
 96 1
Ni 4.572855114375759 5.934446644746984 12.466407705235543 -0.5322852030683736 -1.7207807246965718 -0.14942377398318782
Ni 7.199208739558243 4.0177115181255 9.069935869993746 -1.5148194206379717 1.4321813368207656 -0.028106014207596758
Ni 1.2797013332771385 4.658912228515363 9.246470206914736 -3.519205165319552 -0.7254277580957507 -1.1742629229685841
Ni 1.9213131296535553 9.42694910073397 5.522390868979937 -1.5277878078731817 -1.636213285067137 0.981973974190754
Ni 5.948918740046327 8.033292863411587 4.863634918391581 2.6618075670510026 -1.1746496168840415 -0.036221701336195684
Ni 6.18179895142878 2.954820671301912 13.081159703822367 2.1914175588255294 0.39219247667812457 -0.17549116049420097
Ni 5.919245806107842 -0.06313159609859226 1.2406107931012504 0.042226769879695016 -1.1206240545972055 0.6258257927306964
Ni 7.924046762485044 5.485036232810904 1.2115638310059265 0.5356536053199742 1.2837687777109117 3.193409885119739
Ni 4.05251368403257 1.8160003741892607 8.96958043781275 2.4234418785197684 -0.8028521589225012 -0.4536971209508251
Ni 4.782555681834603 8.191243310881369 12.861811695688184 0.08358964909719799 -0.36519177971956457 0.7125005085111213
Ni 9.405180229173306 5.487259834283623 11.380250325859372 -2.3486279187326717 -1.3060949520119378 -0.41522776123103333
Ni 3.5493631222179745 5.6734350718756215 1.8016889761392068 -1.3903222346931345 -0.5891135249113273 -0.17623883729350293
Ni 4.144961316690412 9.03086775268985 4.806271606113397 -2.3256900789895756 2.9807680837171695 -1.3911514154626492
Ni 1.9545830659743817 4.4554994080781185 3.1550270210440408 -1.3169177536590546 0.886907434802208 0.8474834244786309
Ni 4.486695228739517 0.4905844106347275 11.194978543151459 -0.45578614226936986 0.7931040783968019 -1.0679004989512446
Ni 1.987768916525231 -0.25982502922835654 11.42756352005266 0.26460173940962817 0.2593196650750824 2.092418002931164
Ni 1.922060558720016 9.341405844077558 2.809451323593329 -0.5264210309781128 -0.09886611564029425 0.729063555076125
Ni 0.5511738136210208 1.5355836741799156 -0.009722183581985898 1.166994671441945 1.3203859147133132 0.4894411113196539
Ni 3.787961165958851 1.6368135983686691 6.526748677036331 0.8390823448991291 0.6605529117992366 0.8414377325051832
Ni 6.104580186000072 4.8323531433875395 5.984811218104096 -2.0582716960667584 -1.6167731740646543 -1.298007804128429
Ni 6.631919420977998 6.313608067299103 11.081947648289626 -1.2309459774829252 -1.3230806879366568 -1.357187914033011
Ni 2.7693741770497136 8.925554997225557 9.280326875052733 0.3074383749591802 0.5713939961443772 -1.5135626654127352
Ni 7.864953151918004 3.538889772424196 5.644418941229289 0.1738148012330426 -0.6172388223926337 0.4809569851080427
Ni 7.799571794329366 0.8020287597655174 13.425504011886085 -1.076944354321068 -1.2145366828869664 -1.0474463448619509
P 6.728263027644766 6.722601252466327 6.489472520919276 -1.4229652175391363 2.797861347485188 -0.7414670709468004
Ni 3.9954755033982976 7.098380558492711 6.120815279609929 0.009196578897603518 -0.8575374662805231 0.40372490279775625
P 4.950232050031702 7.864794323241382 2.7680736504740717 -0.8323031171937666 1.3360290205672087 1.6203606343055963
Ni 2.5601407527574067 2.055411247039913 4.754528026128665 0.018955972277212515 1.3423243666576172 -2.2012713116911575
P 8.122984351386856 4.3151322293968235 13.149243951772593 -0.2936739741852361 -0.5754619955661637 -0.6960361923075109
P 5.351638830174353 -0.13259111353110634 9.225616935960486 -0.11606859556150978 0.25976086637755913 0.9299880680417661
P 8.184292220563284 7.723801172716926 0.643512134777893 0.3257723973816776 0.29369454301052644 -0.018274372829155623
Ni 4.942113101797275 1.0844915468442984 13.323303364197265 -0.00520211302622975 0.34494177122127695 -1.9081784068203718
Ni 5.098372491004188 9.134676307157894 7.097401426415647 0.35394011806514525 -0.9795170280098292 0.6629545792621938
Ni 0.6321596215446899 2.3222434237663374 2.9188039331618434 -0.07591747726392085 -0.7106462289112019 -0.045287925303522006
Ni 3.0514445638686025 6.390995004267763 8.232321078087708 0.303714903361006 -1.7391803102496823 1.6719719307239849
Ni 6.719873136373746 5.880687809141807 3.818062003037884 0.3250355192156531 -0.7024590651147192 -0.23924809113618795
Ni 7.829543699894435 3.3064860470716115 11.27465821878149 -0.9486442496903726 0.5854049657114886 -0.2619751004200585
Ni 9.038295329037803 7.932707596792656 12.225071268252423 -0.032487945325376306 0.3003596137355279 0.6114412418742501
Ni 6.686117371159721 6.353857122528004 13.327719735693714 0.7576076852624049 1.1517572856669003 -1.762818261383596
Ni 0.2799430168384759 8.675708146034449 10.008794600383535 1.2293367240142765 -1.3680060876944375 -1.486659413263988
Ni 1.1422397850917085 6.77593031635829 2.456547084145971 -0.6276595035053255 -0.19480245922830322 -0.7215505345285315
Ni 2.8521893176135444 7.156838854353258 4.015777545416033 0.1736718478972751 0.2502087039127497 -1.0335173934856845
Ni 6.3454765741203145 1.1613926549197606 5.576554250567335 -0.1380774957324332 0.476932951550314 -0.9209799510058848
Ni 0.28861319400941854 7.338828489173077 7.829669828549401 -0.689625917905793 0.6477737577566972 1.6522693100887351
Ni 5.354665917893518 5.793210579775928 7.923433870650546 -1.025642361612982 -1.0854037979423308 1.674423734698587
Ni 8.399906820510498 3.977312977083306 3.4092715580049364 0.7918550364810492 0.9336164088229727 -1.2419230453197192
Ni 8.183638220130131 5.579819581301435 7.292013269595319 1.3293598360771492 -1.5641779164664418 0.8377957648772217
Ni 7.362026818823347 7.965127332550383 2.680161977963312 -0.7073403044664205 -0.9676966383361334 0.6522485056985994
Ni 6.29706185634033 3.195875888098777 3.829316416206114 -0.15635675365759524 0.9403627264078709 0.9082738162931261
Ni 8.26235184369176 7.550612515154681 5.069281617451209 1.5484983009476556 -0.5780143296743723 -1.3120611968977018
Ni 1.1940646479874184 6.144763841185658 13.13312190680904 0.22502551977890278 0.6856036841202773 2.8185350737844557
Ni 6.804977278453613 8.628648143437426 11.629435702326662 -0.2510774796709483 0.8164579226313938 -0.41235583899987693
Ni 4.823449394633328 2.2400449121823356 1.51841335995065 0.21007609755792206 -0.10038692316019486 2.0229573370361806
Ni 1.8215033206910767 6.530521325249291 10.37396415081151 0.17554849609469766 3.5889198562068705 -0.7268287522083353
Ni 9.24617403814715 1.75651436336233 6.276345925477043 -0.12755654159645127 -0.823260290265208 -1.2378421903821262
Ni 3.077286923841477 4.312684399204165 6.642446025092762 0.2804183947269106 -0.2047181756801184 0.21370109590501907
P 4.675365010840827 1.683481200705801 3.8656620231354255 0.2597163862928688 -0.15719801861196797 0.2015526334679432
Ni 0.934253633054058 8.667252854720115 0.4775025333990014 0.966032363259833 -1.2243441558956913 -0.5924608441170055
P 9.310770595216006 0.4518208706754161 4.27778973895012 0.396058387391434 0.240835747338282 -0.4668979359118152
Ni 4.163964700705173 3.7899325101216403 3.30417088553825 -0.4711867930951562 0.27528441593445496 -0.17576626853245858
P -0.05848912730953902 5.863665112153168 4.1126191266983305 0.6430028187306152 -0.3800602121909648 -0.022991318688850727
P 2.2288147904587654 7.94718903495533 7.357936513257141 -0.648540974940025 2.657564218393617 -1.9275339285288484
P 4.7140538078934915 5.1845230337771 10.30265287786684 1.8308725338493566 1.578216911058011 1.1637440257151312
Ni 3.226473765507007 8.048643187864021 1.0222998427967804 0.3852826369321687 -2.2016981148159305 0.8569263150590853
Ni 7.642845261955915 2.5199757832984817 1.243272574864183 0.9676668135394626 0.7729309458830366 0.2867376520767191
Ni 2.4720188658217053 2.1405714462997643 10.560002048312546 -1.2405482764593796 0.3542810463443318 -0.9224776185973339
Ni 6.800997218674711 7.427333433505339 8.74174070119724 -0.11385513284995875 -1.3500911550872297 0.029702669270755298
Ni 2.9552597858784573 0.827728173929431 0.8142426849978162 -0.5256054770553529 0.70032916325591 1.3296894515024262
Ni 0.3952881389473376 4.254954846683416 0.8939317034911762 1.2858536852643985 -1.2783992858688822 0.26634983244898647
Ni 2.345049353156716 4.82768171172216 11.629709448222254 1.9949649655883126 -2.2581587689068203 0.3675397111264509
Ni 7.608295353358775 0.05166977136441938 9.24277790732642 0.9597902390048633 1.2667352192673924 -0.6634577441508575
Ni 4.9132997112852195 3.0682056606839807 10.998151507076065 -0.7902630094035809 0.7531000272000384 0.36349356608153527
Ni 2.017049450203824 2.3673040536105794 8.181096961304165 -1.1688870033686514 0.7244833919046103 -1.1285939601765596
Ni 6.985135712060603 2.050020414898066 7.749580001219151 -1.7958016582881524 -0.45897790973379016 -1.042385899619908
Ni 7.006082411648161 1.254092544887533 3.017190824039048 -0.0663095218605116 -1.348746211023561 0.8884740079583795
Ni 4.321522747915061 7.568158412489842 10.530123571380784 0.4494879679654839 -1.418745523030834 -0.8231895849282727
Ni 8.83230387832127 0.15512049416689414 1.9794948767595124 0.6495776437346554 1.4977694071342205 0.5125005642422786
Ni 8.724197606721079 2.380281290777001 9.048166064146749 2.0375504043590067 -0.7832706372461478 1.7406972611148408
Ni 5.603970883011443 6.4094845307993324 1.5370925466078327 0.45271341688131705 1.3093684805568868 -0.21137553309563595
Ni 0.8827193332079346 3.76746292381117 5.161951610256323 -0.07037752128229814 0.30955799240534426 0.5408639458763201
Ni 1.2450766817733523 5.9621575773860105 6.246303948436994 0.1745766190997316 -0.01660212733305528 -1.0062588148800475
Ni 2.7330771530097215 1.9427830295876352 12.669142233794977 -0.5929647803366175 0.2983181578254669 -0.3329545169524137
Ni 0.5926252953605909 0.5757829156342351 8.035452933413659 0.4925367195258421 -2.0522447731463878 0.3224767573495414
Ni 3.311120107283667 4.169944133236857 9.277865964851411 1.9778573593737483 -1.5859500180362105 -0.9542798507095953
Ni 4.102105602592229 3.5876688618740786 13.261291043125699 -0.8430181896184256 1.4480656121511901 0.6818092500748515
Ni 0.5791472807196407 3.278681685799278 11.890695795362625 1.639602256144028 -0.9672837191684308 0.7349932902969987
Ni 2.4230435762418763 3.1635122095210346 1.3642421006981607 0.6330724469907807 -0.6735544662652272 -0.6814801488702069
Ni 6.619586841381398 1.6261907627615984 10.431094825792755 -0.7088150892397341 -0.19692773310142214 0.1556720688857448
P 2.7953006227925643 7.1820085281663175 12.294126239702715 0.43718266823556967 0.8040184113164606 0.3478188356587558
Ni 5.957897231707185 4.280516920756368 1.5643858532559736 -0.37312234742055095 -1.2204260517882077 0.16329796086211879
P 8.446471651350992 6.987882513879846 10.334309301690444 -0.19871490690883198 0.7029087510576282 -1.6443364283949038
Ni 7.82244312376306 8.66917748456625 6.930302447172389 -0.6104981612346906 1.8758928073137888 0.4512985388116615
P 4.937329555771927 3.4506744568551864 7.5822343703839605 0.37393558735046567 -0.4617652426709402 0.004030461315631769
P 0.006826830235784254 3.644987328408274 7.483561587888835 0.7036780251234848 0.6155899739353011 -0.799030985404198
P 3.5491295506347056 5.2665627166844775 4.767039988701216 -0.41257052611384426 -0.2015384924005561 0.11098860993544112
Ni 9.044321475886141 1.0552857560723514 11.161777744019279 -0.5533913889193696 1.480858747421811 1.451858760645035
