# total energy = -381173.9558471271 ev
CRYSTAL
PRIMVEC
9.19497541447514 0.00000000000000 0.00000000000000

0.00000000000000 9.19497541447514 0.00000000000000

0.00000000000000 0.00000000000000 13.45777596143841

PRIMCOORD
 96 1
Ni 6.168550280921387 6.802378313799246 10.037091524577226 1.337875072637012 1.4383252449349744 1.4677913727148915
Ni 5.4748445693152075 7.0709635404046285 4.950685006061533 -1.808327558669305 0.6522533907946058 0.5157879767442988
Ni 0.4876306851388101 6.311587315672272 5.684430237327183 -0.22112052829754178 1.4289636012144165 -0.3677808806029795
Ni 8.114298990334774 5.559944065112291 11.312795032658348 0.6080090762642496 1.0681347264492378 2.1755628511814598
Ni 0.5650689275703477 1.6210373539754388 5.002577768296046 -0.48423796985215956 0.8456695111983435 0.2864178068434551
Ni 8.026155957735007 3.5885597647445797 10.330350547727386 0.10081424050560056 -1.1849499703687851 -1.1745729980098352
Ni 4.060749327971769 6.695597066398756 11.10150737473043 -0.04571832797272127 0.4130294680281338 0.0652175743479135
Ni 2.548286241567586 9.093683387507632 11.07113361303767 1.399920419904531 0.1191012117402465 -0.941001131322818
Ni 1.2722351634225944 7.1460221232454275 12.461537081191397 -0.3525290966502316 1.025100630176899 -1.0151802857393937
Ni 2.269108403491837 8.090557564278798 6.603313536450806 0.8897760145992546 0.01859961737905829 -0.14304152460592787
Ni 6.00507281622378 1.588146927560942 8.389455865740393 -0.014808782878058367 -0.3627795707336462 -0.3378820361610181
Ni 3.708830040814364 3.385525516587323 5.006938945049861 -0.6099960247872914 -1.054212717051507 -0.48920456982881555
Ni 6.557681632853595 0.2665016452172014 4.524208262213619 -1.4795711389586388 -3.1714608916524734 0.2018796777900588
Ni 5.835122088960949 8.484120894274128 0.7006902147944521 -0.9776480931218906 -0.4071737805783052 -0.5079373703516284
Ni 5.300572203692071 8.96507326889998 11.844498153594564 -0.6508734797279435 -1.095361937596307 -0.04571421420766321
Ni 1.703102507945074 8.66749628537961 4.105805626119289 -1.2061988524452323 -0.36548668525216405 -0.2632866201426304
Ni 5.120451833819669 1.9544563509606419 3.5210116376754774 -1.498498571990761 1.2661572352767354 0.11563767867167826
Ni 3.0068948263731343 2.9938655464655746 7.316063880763081 -0.10202343032235331 -0.5156100564055377 -0.3376789190112765
Ni 6.191905518017507 1.5204902997840708 13.040356174727705 1.0840732520563652 1.3526748566540059 0.5760811172074014
Ni 5.686650823846361 3.9321484043393533 2.0679618837502627 -0.002494484287079575 -0.4451500027117623 0.11594621105103257
Ni 7.84110708113681 3.1322131438467653 1.3092853966332663 0.5537377165151948 0.04212778240798551 0.8063259764037146
Ni 4.788504032872017 6.125287922442156 1.4949705655177037 -0.7753089591969099 0.43546234311035326 -0.44106760511227266
Ni 5.783657812572372 4.8326674989242475 10.759370621725216 -1.18258069880566 -2.2080255996958553 0.2052197979068853
Ni 1.468244450500545 8.580907203594506 9.143845655402975 1.1779180032226682 0.5132636676605483 -0.20505756129740813
P 4.7031746626940665 3.146097556451152 9.213839645884505 -0.01753903732502786 0.1846370886595272 1.0297301585291105
Ni 1.1343565097783725 3.926879683529874 8.63924564346854 0.016081993163527143 1.1097572870860306 0.12632446896156307
P 7.882456884767225 0.4166390398443158 0.5073208051063817 0.8837784022549232 -0.11235695103787746 -0.8178931124160237
Ni 7.4748988024646925 2.0715175806735187 4.0423253560940156 1.9986424144399 4.222811199554521 0.477864719335964
P 6.177782036057019 4.021771827951906 4.365729186053591 -0.146876839191618 -0.3457529542686626 0.27387236607827675
P 3.322475571403033 6.434790788841923 5.467853629644271 0.5455101863990799 0.1662452164159008 -0.3567552189164372
P 2.7197633347193757 1.224228197722262 5.718881970536531 -0.25616260750333947 0.8386755963790138 0.5899969559575451
Ni 1.0971260550531003 0.9849657471403153 7.655523056979955 0.07420846499261412 1.8566753538450733 -1.4275695490803673
Ni 2.1001323436038835 4.977672258375357 4.3464041066028365 -1.1188844461982794 -0.36074839923623037 -0.9173554668794202
Ni 1.9615916517427636 6.266430792294694 10.192919689377094 -0.6701366988329298 -0.5611797746155368 0.3699285230736016
Ni 5.819748090368543 6.384365544654866 12.745711468809679 -0.43103670323883186 0.21606522526182145 -0.7173868900691451
Ni 7.676884823445193 7.813016431794824 12.269494506429693 -0.24592884559047323 -0.03148032999646836 1.357843288228823
Ni 2.739348631969272 5.4060293746587655 12.632894639665137 0.4193255854494908 -1.301858288222771 -0.7277615484352499
Ni 6.0860621580909555 4.4797827393672 8.298467907803012 1.4232570377479423 -0.2295465475777079 1.978740019089018
Ni 2.112683484799239 5.145590896111321 6.693803126730467 1.5432511936161035 -0.38699910540264315 1.4253799976282162
Ni 3.0512605818805283 4.108747098696867 2.1529749467801405 0.4421410406821095 -0.003668449990522715 0.612760474906306
Ni 5.331412150629231 6.617614481433324 7.997175234790302 -0.0069540627203299584 1.0101023569958538 -1.3145104297691428
Ni 6.674660107789359 3.3566532943503873 6.545162674071561 0.46971277965279107 -0.4401430364154742 -2.539869142972277
Ni 2.165655737126306 6.000576473334015 1.1982119347932216 -0.3572244452433719 0.9424160093924737 1.4964694573758743
Ni 9.091862782411162 5.8914505072486785 0.44750841070222713 -0.9572520459640417 -0.18315124814262004 -0.9708696367474764
Ni 3.005773039394502 3.9023107097027743 10.802623785229212 -0.4804419931448371 0.24499707780482324 -0.5416666442832736
Ni 0.833668866136106 6.671064872472595 8.069511185464108 -0.4435358641471071 -1.0202204192664623 -0.4351134444113668
Ni 0.44041448730866145 3.5967524876786907 6.227666615700275 0.08619263393768382 0.137285338848441 0.29606304324270305
Ni 0.20607686546241624 8.773633884513671 5.838211600639806 -1.4673311452490212 -1.0399850034878992 0.5620891738036836
Ni 4.6847479323237415 8.739584891219604 7.095208851103466 -0.3197848123396751 0.6174349975638399 0.03756690251018047
Ni 2.794886282386818 8.996124700267538 2.02858440230769 2.568651871531925 1.271516185595804 0.5905479433650087
Ni 7.772383836232715 7.551345826565929 1.5737788592592106 1.5790136959276937 1.2459915589621382 0.04932918525243117
Ni 4.751770106809419 8.531511796633735 9.5961611991579 -1.3021825043314088 0.9818238217661347 -0.9968655465906057
Ni 1.0377908798636264 8.148826122341047 1.1698279657412476 -2.2627692710956384 -0.5633891235620297 -0.11981906374287751
Ni 2.306568732597976 1.961131902981029 3.4909606196134537 0.6710522686686636 -0.027754030184816716 -0.8394785518962834
Ni 3.149398552560407 6.980650493649473 3.296724123760752 -0.4780184713050091 1.1987637363234258 -0.6276872714194675
Ni 1.1256304782806488 2.155035540730235 10.173903561094225 0.7088891370107792 -0.6650685402814029 0.3990753198408869
P 6.681197735181226 8.15682575079523 6.497858204479159 -0.03935793297233222 0.47179563032374877 0.573812889998515
Ni 3.446929561204603 1.507010466090011 9.087806878835138 -0.6643602013604687 -1.4133994282275724 0.44196414878461304
P 0.22655039731998372 2.8484562081041394 2.9364061462239777 0.5937893331204419 -1.420703418088153 0.21888469698848756
Ni 6.689565162644796 4.068905271004943 12.769451055870611 0.24165052993009348 -0.3870883226823398 0.23059787166035772
P 8.87384991959659 0.8041686270906404 9.538306414981212 -1.1527641296648599 -0.45038631141003727 -0.5540215663042006
P 4.109933250502142 2.357977839135145 1.6548353244456 -0.02303579877354097 0.6650667405091901 0.8944448808298338
P 0.05912736874916993 7.004355139804511 3.333396443489278 1.425349915721229 0.3574080220090877 -0.4273841940879091
Ni 0.10118150748256187 4.929849192179718 2.5772853544627607 0.2236245256663181 0.7222809849366529 0.3347535178343654
Ni 7.694888584954723 7.4760205894433245 4.60254577322311 1.372107511457321 0.15043858840094737 -0.16788840844627861
Ni 5.154730701494604 1.5564518479269551 5.79890216201397 -0.5497887591697758 1.038815151549514 1.966883376860748
Ni 6.653667979328556 0.9803682595229687 2.2142612957144165 0.23863488303222127 -0.770602554860176 -1.5388960019712015
Ni 4.027776146780161 0.9726077004248878 0.19421994489727962 -1.0583866459235383 -1.1722911439541939 -0.6772799947459304
Ni 7.620685134810749 1.0633345210656036 6.524907982624579 -0.013528887724370248 -0.03426663449235389 -0.6099564297986076
Ni 3.6032625301448538 7.580696187515071 0.08044407983575873 -0.40043131964814904 0.6792733710268753 -1.2087730409303117
Ni 3.700297103796569 5.105298514632896 8.987748997326257 0.07017157591907916 0.13333175351733165 -1.1464785537664641
Ni 8.242366605403578 4.842533707351073 4.833952036964535 -0.9756346622362874 -1.6188771077815347 -1.9292601671913354
Ni 8.984621786248937 0.502321497071279 2.901267548364599 0.014898514378387243 -0.477158694407875 -0.2662739849057285
Ni 4.688297192764333 4.6974369981476185 6.543978361261332 -0.4027594535606935 1.4697955476291138 -0.8967809851621781
Ni 4.085244741996992 2.01771778057533 11.528831895294985 1.0786595372399617 -1.6155662982407466 -1.2817072671961927
Ni 3.959025316950361 9.163601979192237 4.423920506323869 0.4897506721402727 -0.5651791255829169 -0.07644583896356512
Ni 2.1912821331053953 2.4911854453601423 12.49115777441244 -2.1792935218684857 -0.0030791531459559876 0.7063812829872608
Ni 9.140375471749403 0.4615868372840656 11.847983049208514 1.016735031821023 -0.7195422458492511 -0.044899431615851707
Ni 7.046348591701355 8.949524565778114 10.304739783206196 0.712855834968011 1.3923012127963763 -0.5979776601701766
Ni 4.473769225563711 5.325260712197222 3.7356766100070975 1.1866839223407561 -2.1013376740182967 0.9122711103779773
Ni 4.369801640585036 3.664822889341123 13.242020371574993 -0.3196256610539915 -0.023490884033088574 0.41169635103900704
Ni 7.166655647672079 5.98888965981072 6.397422409488131 -0.18663946380153665 -0.07725522223873792 2.2377987171932303
Ni 8.505811840852768 2.5212438194023536 12.623259225116701 0.8224910161993513 0.35891160313780773 -0.34789571164327826
Ni 1.2274556340296392 3.8613011201560434 0.760781216948218 -0.6272514694336294 -0.005310870689952144 -0.7155935456141482
Ni 9.138757156108097 7.503522760370292 10.369929399127598 -1.1065814604612103 0.2778071823563087 0.3594535916842067
Ni 1.3257131393875687 1.5740878104270963 1.128745735890163 -0.4164387508199989 -0.8375083155437899 -0.024677962362654272
Ni 6.66582373658882 6.116699815572953 2.960266187460483 -0.046655752185326096 -1.0534156750715085 1.6585641419585115
Ni 8.00825334095306 5.841926370634622 9.11536881710113 0.2510993340478192 -0.6225959729394891 -1.927568124200893
P 0.7701895156083559 4.116185833661734 11.107294692143146 0.7822846191837947 0.5525699214593387 0.6419592079574492
Ni 8.340633305736743 2.7022101269963468 7.969573758130801 0.2933898672859141 -0.31914923563820524 1.7373360579520918
P 2.0638305813773155 0.025068260982343552 12.994007063062188 -0.8146535224328034 0.5524776188558485 2.1897221734009773
Ni 8.243902166267773 8.418321651494665 8.034790039480384 0.18113678881575257 -0.49663994306093817 0.5384486515666081
P 5.259167230210249 8.320588259725112 2.7977367247095724 0.011806762826940955 -0.5583158228041804 0.39211611491423437
P 6.903973595167368 5.532543038912906 0.9293370664679459 0.6387422436820483 -0.8704022380583333 -0.5510087476198059
P 3.1544833738651916 7.234486979978409 8.512312688343696 0.4432229608923786 0.28662143821382896 0.25948550122898534
Ni 6.159189796132469 2.2966933291959157 10.763098264685361 0.6802647884058671 -0.275880397647241 -0.30124870120870056
