# total energy = -340892.9112515492 ev
CRYSTAL
PRIMVEC
9.06850217115836 0.00000000000000 0.00000000000000
0.00000000000000 9.06850217115836 0.00000000000000
0.00000000000000 0.00000000000000 13.27266958574098
PRIMCOORD
 96 1
Ni 6.3495836476663 1.7137110746295117 11.406956560772885 0.9793923295065069 0.3056231761273123 -0.0001537519690448965
Ni 4.851040917188547 0.4484383249099707 5.813110120187255 -0.7675694244608071 -1.5223105868086944 0.5751470354289062
Ni 2.9088126636371254 1.7301976110507993 4.982254884618084 -0.7860556561904527 -1.1470665650594503 -1.0185579439623749
Ni 3.647115675849848 4.20476506207331 5.084679985973352 0.45675416260959395 0.5355456189872003 -0.9435886895443362
Ni 5.161455736605864 4.664229778421479 2.6115834459560854 -0.13921083800592798 -0.3886458969774468 -0.3953999278718287
Ni 7.344924277219498 6.025366568384737 2.540176248437656 -0.06251277382224073 -0.08642069078808988 0.2954626906545428
Ni 4.900264745403481 4.917803228043069 11.362878200525738 0.2214120913960316 -0.7239478311161145 -0.49322140429769257
Ni 5.494442057207223 8.26148683092466 12.458895524271377 0.883198104271421 -1.0255631716356144 0.10302461789335805
Ni 1.6325842567940654 6.400213093672929 0.5273977707956437 1.0419236152715088 0.6457035054912299 -0.7022160958659777
Ni 2.5864183532338223 1.40452050296625 0.2783758022685772 1.5643473521647702 0.914839899546418 1.980735966473124
Ni 0.5813671460453743 -0.16414441831326781 4.698379035958137 -0.12914008403348728 1.681249242260853 -0.3939441692619086
Ni 8.839640099903091 2.295627771888929 1.3176823426455853 -0.44360245571898443 -0.787687792477237 0.6964056598317877
Ni 7.099077191201283 0.46702240581654125 4.796848456792522 -0.07015512085884693 -0.022380938798361453 -0.21395460667672186
Ni 0.9712184145473527 7.42254158482665 2.6054912263918273 -0.3598150887886835 0.10767240107801457 -0.2552321252692701
Ni 7.779722668448907 3.8416531782202923 3.563618351622474 -0.3195379864361916 -0.5267917840539702 0.5607308600035762
Ni 7.349485733666091 3.505774005518609 12.659803649213853 1.303478083214381 0.9740560048952579 -0.5927696336066759
Ni 7.734933337654221 8.76011840690074 7.243983689622295 0.515950470464092 -0.662673043466033 -1.1790161213828534
Ni 7.274171825536941 0.43845934543913184 0.5663234082734963 -0.7572873258085087 0.1377720486768724 -0.9629673511812642
Ni 1.8249815927203819 6.447369303458791 9.372933303772156 0.9903069195364815 0.9576649651317442 -0.2635720125935332
Ni 0.024037877938343086 4.644986417428094 1.40556247383248 0.20407128612473888 0.9488504521639077 0.2013289474929113
Ni 6.451604293837636 1.8033441472301768 6.886338298703685 0.02924398446678189 1.3005385409700827 0.4681459493863034
Ni 3.464349088922106 4.739081192954653 0.39964252998386196 -0.7946768222005605 -0.9782960111185344 0.6854424759520646
Ni 5.993046427677657 5.469349512500015 4.771020456582693 0.5527954072065835 -0.25410906740842043 1.1263383313731634
Ni 4.91670593931536 2.77049987293444 9.383139902640231 1.6251416006340076 1.0767132121468683 0.2768936694031037
P 0.14696323464782668 5.381167400200454 12.475566151280866 -0.4287754180084809 0.4928167126601061 0.41481587050459523
P 3.883395492382662 6.475617686820898 12.524568708049882 -0.19134612524858657 -0.2748290735645912 -0.23879146321474362
P 2.651466717232666 8.414798923740003 1.434669644322803 -1.4408829783598218 0.7406869982476663 -0.34697525671153795
P 6.180555841089631 7.583081273641865 5.876779165049862 1.1249584203065013 0.18496618986417177 0.08671071122468293
P 4.690528433878979 1.1845095788095588 12.650260864683533 -0.817725733600224 0.7881369641995137 0.16372347843531157
P 3.8591009758410606 6.268873980917421 8.133518480318655 -0.18453347320212735 -0.7385321566881926 0.8958132219322701
P 4.722921122601113 0.8863426780339304 3.7060473353293526 0.9181859332005154 0.2877509238325819 -0.7865855605519937
P 0.11051148448335547 5.6257448959552026 3.67240137964714 1.029619601093175 -0.1232594568829942 -0.3208631330055184
Ni 1.8049492720632723 1.170290167858745 2.689733074623705 -0.6292394463979356 0.021393892294743797 -0.1605941887777105
Ni 1.6868864460628616 6.797839695688445 4.854133276330274 0.6566515198623014 -1.1579176488413414 -0.10746979814890524
Ni 6.076984481096492 5.855713035178216 9.316258794411054 -0.2802895824585302 -0.8808308895908249 0.3402965591397817
Ni 8.612709908810512 2.5097078958148598 10.406927515746748 -0.4940531561703685 -1.155639394330126 -0.38309745635539183
Ni 2.3073080023128116 5.329930364567738 6.809025692759764 -0.6145589615676255 -0.03291012046445945 1.331882859609319
Ni 0.33733194670316285 0.06261709864430723 9.14417853010094 1.0281661564761002 1.2136164850655422 0.6647993457804164
Ni 1.7112535106195177 1.281760192991017 11.49255233633573 -1.4741576812525516 0.0751605444932383 -1.7354774074767982
Ni 4.226556672095508 6.828681670588775 1.7336889842753298 -0.9165697377533313 0.5778294673570757 -0.10914744296164429
Ni 5.464960357589177 7.695902505554538 7.970556594650786 0.025154901999072807 1.7024433598399649 0.16774416955893046
Ni 5.437401180370094 2.7476291111882967 4.549579429679226 0.7220989508328338 0.7514745757814735 1.9116712504649787
Ni 0.8997994279764767 7.5601742378881935 7.13948824928739 -0.5673301104876487 -0.32159718295806544 -0.1889498571022681
Ni 5.246264366205361 4.632843693408235 7.15550866471195 -0.1315774898303863 -0.1513770410548167 0.20526376377094324
Ni 8.366218959158683 7.161051333062164 9.328124929123517 -0.92564907434678 -0.7216806323484926 -0.18242079773449874
Ni 4.4314322666113135 0.6418903276051516 10.498800508312241 -0.5420697932589632 -1.1116645314110725 -0.30352387039612244
Ni 8.201154087904403 7.0917861156882385 5.039605904219574 -0.5002299744050417 -0.23077887732291225 -0.10637167998872002
Ni 7.240382587524994 6.122336059007855 7.209421815250011 0.9927443253333806 -0.11436009751083531 -0.7823455543287171
Ni 2.495488484864046 5.230711885477908 2.6935155467586442 -1.1679202685800079 -0.30318757010262626 -0.747302703791971
Ni 2.247256382850893 5.1045599557988455 11.56512665004636 -0.30666190180447184 0.4242196803169984 -0.4428573500228437
Ni 1.1677691243355777 3.4990633141260057 3.719559403133378 -0.01736523075132493 -0.7890993281127828 -0.23583495168958094
Ni 3.9141014397547633 2.6825444731819252 2.7165840018458125 -1.0939354895624256 -0.2916132350014655 -0.784254855536288
Ni 1.1245214388608133 3.230263849844711 8.11702015484492 -0.3824212562239736 1.3949805594007525 -0.6248965960482077
Ni 3.8096413665771975 2.6940251965644064 6.9479905087477585 -0.03885811051777823 0.129829396791028 0.7825607556633167
Ni 3.8906774993938247 7.005299813240591 6.025247771010084 1.0702733700587954 0.08839555512627356 -0.8274715001330781
Ni 0.7852669697586884 7.255554191173408 11.429493601649776 0.5531080533509958 -0.17541865538505275 0.469440756938327
P 0.34479532375196364 5.645505161555855 8.088789001636387 -1.1199702230632904 -0.9354550046936082 -0.9855917734489993
P 8.518488174257607 1.8317376266223948 7.991248195394708 -1.6175259930702788 -1.1631277322873712 0.7448020488573044
P 1.7125049638792194 3.212562134171249 10.29655205879162 0.09493284202415908 0.4592283351816995 1.2233830775340029
P 3.9935959272514685 5.970302624957861 3.894294017944325 0.2603532485459194 1.8120199199192277 0.9707819621296765
P 6.644600150888158 3.941025821842114 10.324756006494507 0.6460392915640938 -0.3457285287886304 0.37560423330214027
P 6.295462828435142 7.931175718378461 10.334100190833613 0.2541224371448591 0.05130173559776971 -0.5537719121872399
P 2.4878437377776073 8.728868349415723 5.826595889335823 -0.7209141864961133 0.008630679091804492 -0.2666460235331666
P 6.815142397279104 3.937353078579946 1.461838875960965 1.3208219738094673 -0.11635424512272866 0.46369588403474976
Ni 5.127104251477241 3.10909052769881 0.3266964076960746 -0.019043389784696236 -1.0230982550348897 0.4687745841092379
Ni 1.1592265955628311 0.9600369517269743 7.073191152579409 1.1688453514974384 0.5318386024492583 -0.9560215159910503
Ni 6.721881923925679 0.735937946921924 9.074722874187493 -0.2607173167535574 -0.1820083927874285 1.3960935899592728
Ni 2.7912032627308094 1.8017934334083725 9.057097333929839 -0.729049671119054 -1.4517150359783193 0.13340785817090572
Ni 6.470874860336666 1.9399883335865935 2.649237679470096 0.8023394809521408 -0.4219751072571959 -1.4018613456809856
Ni 4.123338983675762 7.172051425844904 10.32215516015478 -0.28034820361060747 -0.0150347828459354 -0.2718465938974996
Ni 8.307001641869899 7.190505827174563 0.49939967808547636 -0.5761207121960851 -0.7614782239614046 -0.37873557984227035
Ni 7.718764198798799 3.936636666931276 8.248260420929915 -0.3242541609649383 -0.03487367194873349 -0.08444891177369972
Ni 3.0358170324930858 8.4544736194733 12.380639794131739 -0.14759032031887487 -0.5875644352566526 0.10709570263893814
Ni 9.112121375948435 4.781032082660307 10.252818301615987 0.008030069393328105 0.86511733551031 0.017611285323859995
Ni 8.570006333448662 2.268286238715011 5.743574661457249 0.9936118155399984 -0.299752062058516 -0.8335354469389711
Ni 3.4730548507287264 2.979447224795217 11.749511057709833 0.36321177317505837 -0.4862431732076465 -0.4688846273245409
Ni 0.9805136289762966 3.2615501813372543 12.826282299911519 0.5303237084666286 0.9573942279688609 -1.213774093689329
Ni 3.0149050671534328 8.5575643488667 7.99606629044456 0.5191864609028864 -0.4448748946735048 0.8554512731754558
Ni 5.636382248662668 7.635887160100147 3.7256380199448134 -0.1916266326034829 0.9388290633721638 -0.20012824231659082
Ni 3.2204335938047355 8.38155379584097 3.5936677394583265 0.034249408101173266 -0.3753607498327664 0.5505719171927034
Ni 3.207882787200191 4.423506395966536 9.23771105851082 0.7922062491728807 0.17265420526603814 -0.47110657467652417
Ni 7.363859309148898 6.251009032210085 11.418517086971928 -0.17494762928590513 -0.45815207139838515 0.8735001602573665
Ni 0.7035017293907566 9.004188066550103 0.16883918173752566 0.08387195622430717 -0.5301352466049064 0.36855555398547496
Ni 4.795124534584773 0.4082857191274975 1.4628472933702321 -0.22177770226556642 -0.8820351943115714 0.18559919546248035
Ni 5.709837113906029 5.618934451041898 0.2906899209740045 1.641366290022986 0.5932763980397653 -0.14326083970558554
Ni 8.16316613352114 8.767790359492825 11.300761683185314 -1.0448009368193039 1.0508785104719516 0.3513713288967046
Ni 0.1710582441480257 4.6496657643991535 5.72209954215073 -1.4143155122839384 1.2306104485203773 0.6659355162673887
Ni 7.932916870739786 8.658297267770806 2.6322623507973737 0.17880479824846626 -0.16754130951950502 0.597874558933409
P 8.671809335574832 1.6352050538379335 3.370899990729539 -0.03415170618104441 -0.8403465563235335 1.5475439074541866
P 2.1064678911344497 3.2325763178245945 1.5047891145740033 -0.5251303371911472 0.1230015752359172 0.6640524403120628
P 4.679628094616939 1.0110835488201697 8.099128907482125 0.6653156232952026 -0.02816900623504826 -0.053758681778694514
P 8.648784409296697 1.5564269779898985 12.470787957639295 -0.7806486262422685 -0.1839907133247799 -0.40019092150256885
P 6.275865795868363 7.520925761743346 1.4733458979989034 0.5605107735729702 1.5255761449338436 -1.0283278788649453
P 1.8642572743708756 3.368803353094444 5.900856037546297 -0.2460247477383892 -1.020265670682101 0.5563378731422032
P 7.032967812482257 3.7638817060811474 5.948664272617467 -1.1188754473372151 1.2634511491994822 -0.1265890354768594
P 2.25680551533253 8.66396508144699 10.25358821742576 -0.08357165137506897 -0.5878696252018972 -0.8541178990760128
