# total energy = -340863.154804366 ev
CRYSTAL
PRIMVEC
9.38928876357636 0.00000000000000 0.00000000000000
0.00000000000000 9.38928876357636 0.00000000000000
0.00000000000000 0.00000000000000 13.74217318934970
PRIMCOORD
 96 1
Ni 7.57237673328814 8.04814137474408 8.783158357727931 -0.3636771428472511 -0.17351218239095925 -1.2325048373296128
Ni 3.827158527347293 0.7240700114325989 7.146452313453569 1.6291728332805877 -0.5949856674213883 -1.6394179080473636
Ni 2.9490253132373105 8.013945585748747 1.2611495240791564 0.633123097723058 0.47205891128746436 -0.8980097153629567
Ni 9.161532603424924 4.578160774132504 0.7996058991010662 -0.5441950671320821 0.5636485478710035 0.6362382463132721
Ni 6.151439357286556 4.58743739124601 5.084548580280449 -0.127903897633541 0.33686593619167793 0.4527483838843106
Ni 9.059114243633298 1.5244355039794977 8.410086243290046 0.54340291024809 -1.1971557684063576 -1.6039035171908376
Ni 9.399898472514579 2.574533538366671 2.505816152062402 0.8376250436273122 0.2000559943177587 -1.9834898750691774
Ni 8.154099496329016 7.546640693300163 12.924087191793278 0.7434455348294099 -1.3371677621573423 0.7605186882616128
Ni 7.873369157182538 3.8230460189508193 3.4389377347202066 -0.2717792309946739 0.6250380067220784 1.2366885363936573
Ni 5.745362015644827 7.169294574702291 4.628061087200763 1.1680341684500528 -0.13777796221414337 0.12944655953031253
Ni 2.064188147083763 3.5829619100516776 3.456829963031438 0.14586022500164555 0.3370191739400905 -0.12806459158112138
Ni 7.57340016574297 2.7502634633630074 6.119403104663799 0.6382460207719202 -0.08550152140793017 0.041912838183702006
Ni 9.126172542646113 8.257193884898143 10.714978192318995 -1.908078390907398 0.4718539943655099 0.537886351305235
Ni 6.219737042391458 5.376954499771709 2.7715762095026304 -0.2796406360206216 -2.0897723377782014 1.4382180299331488
Ni 4.348113814721558 8.525370745217945 10.925274783209435 -0.012392460127081884 -1.0482320739880397 0.5160684840991951
Ni 1.8211651908602007 6.615345327270474 6.225135883322902 1.2948499752257376 -1.0656569543327066 1.7056754936240175
Ni 1.2382499881701179 8.283765571569422 4.9498892813751025 -0.38021859214570003 0.9741850742739545 -0.8750901304523057
Ni 1.4075576397801814 1.3559634990527358 5.51598451250938 1.5762821559291433 -0.052520695606535356 1.8776969504020629
Ni 4.882796241994556 9.207389888832173 2.743611152406612 0.9968316080288767 0.08690714350620517 -1.133116016416629
Ni 8.496864865099923 6.685746213016496 6.7699437193967125 -0.7850524117369189 -0.1454802159544075 -0.9345692596545453
Ni 6.5532915190688925 8.918068350638269 6.40265728457962 -0.874582594688268 -0.3845832968722989 0.07763060330028565
Ni 3.100211637894877 3.689464610374046 10.501699563376684 -0.4649670374376896 0.23974997047327096 0.6702827374924907
Ni 3.764738536891231 1.9729899871409644 2.06507731271195 -0.5350547953937108 0.4994262475568237 1.8001972162526867
Ni 0.6433164961022133 1.7769416416652475 13.111008209843854 0.15400033761027673 1.1751283562926729 1.2189942044376878
P 0.06621044625436363 0.3112380155889922 1.32508212892488 -3.4953589548295736 0.042300046319791666 0.9581143939643371
P 6.040364073427469 0.8871919997285148 0.6363956514925319 -1.454547620331108 -1.7493194555662133 -0.8856630208721457
P 2.534516390453955 0.9393232077625319 3.699983430366213 1.5354039296575428 -0.40726454051989863 -0.20559517896843305
P 0.5063549436379279 0.7790508685495604 11.358551954928203 -0.7860785390085882 -0.911882873800623 -1.1205338088762444
P 2.149311437317616 1.6685235264732885 7.78410237389991 -2.5914956088993173 0.22889194471284452 -0.010467732300543264
P 7.586610894769998 4.067467979172268 13.302478338209706 -0.29595197158613545 -0.8039348504637186 0.043149538804280525
P 9.047011450658289 4.0630737921185025 7.367948447757965 -1.861482031205097 -0.1332682472692479 -1.2591363238742121
P 3.0834423684973857 8.38239065877617 12.78762796626783 0.5038840262178612 0.06988104126185384 0.4064988659984677
Ni 0.6671089533548699 5.901656113287968 4.415291357699294 -0.6574344207749129 -0.6494691431812493 -1.141625596549537
Ni 1.8825054131299737 7.9661353283176 10.81125595738164 1.9015457319952027 -0.2736520225373545 0.279963309467363
Ni 8.608137324019115 0.3616378388095168 5.648005421324753 -0.0563737508040384 0.5226908745117193 -0.4223725998059306
Ni 0.5699720683874834 7.753561834947378 2.133733668640472 -0.4679186638668457 0.7093938445613396 0.22415751535165265
Ni 3.808577125254551 1.1166493118168608 13.692234279519038 0.14954384450081987 -0.3065135491520657 0.34695134545213796
Ni 4.076171849682613 5.042930558665453 6.52904368132028 0.39191402620575727 1.161736251256483 0.3287178531632468
Ni 0.30778557417944136 6.944524395471295 8.779791358844426 1.3640764136227281 -0.5071765809262039 0.19006597298458233
Ni 4.543805367231371 6.804398652756755 2.549461321081048 -1.6717006793404694 0.7555896263911115 -1.222331496341037
Ni 1.8679614051250941 4.007845996711981 6.182356406711002 -1.4342325629228398 -0.01440846211584615 -1.386270176110948
Ni 3.403063140927409 6.081357707352132 13.208784505363294 0.013542771681441192 1.283493155452022 -1.0867238023053347
Ni 5.30804651090934 0.9495950894651389 12.096850494269514 1.190182422412318 0.7969507058364016 -2.1171522724530507
Ni 3.65884614032633 6.110492669804773 10.406054636364091 -0.1883047673191015 0.22978206062728168 -0.7189994859719037
Ni 6.088117995127156 1.5229426070958465 8.062711672756974 0.31738880130367275 0.4272237572506449 -0.14808242946394498
Ni 6.151627143058083 4.274586295879589 7.863972357175255 0.8097103194949152 0.7295718621711113 -1.1357938203591085
Ni -0.027125654697286686 3.6459640363994774 11.388496274056132 -1.5743864815683273 -0.7716693055617936 -0.34700045352251857
Ni 5.9270541388871925 3.088240294959938 0.5695007261009469 0.15800354523239885 0.20554144291236212 -0.7365567781293766
Ni 4.618168532756643 0.7945272329100789 4.983296370130017 0.7400205683082611 -0.040352949895749855 -0.2873362048926664
Ni 6.134670087889063 5.731878997249083 9.78743666386216 -0.7845394766562424 0.505817238684832 -1.7765237838951466
Ni 0.887931875668337 8.657074296079433 13.435296397625217 0.41957909622119355 -0.9426260685207507 -1.504266327712474
Ni 3.6895866711255394 8.101162687335144 4.372992612662507 -2.149919696692059 0.21978561153620213 -0.39968955638611814
Ni 3.1437967154666344 3.5192461977720697 8.04607009768412 2.4680944842321364 -0.531176286274911 0.9675791389216627
Ni 5.7650701323667395 5.78819595013047 0.5131020864089456 -0.6438119448954719 -2.240937777042844 -3.2926768357428777
Ni 5.675655937253461 8.147179590648193 13.257898934977707 -0.4928051426958803 0.3166706921907256 1.2491110784277262
Ni 2.7320576328133233 0.7763223412892518 11.573355404335324 -0.31474904968798056 1.137222325275519 0.7470257959815005
P 2.28144689545362 6.997630211659545 3.178248832040104 0.017474245525363453 -0.8318331195358836 1.106838313667023
P 4.285308863433864 2.9928169551577484 12.138255379033824 0.1934094355355185 -0.6590645001791682 0.34206830632822377
P 4.924334454656652 2.8906614954462637 6.711553611597652 0.31516325440726367 -0.22202632794126276 -0.386794702701321
P 8.480931242385733 5.679552492012677 10.115324704883722 0.9866847494028621 -0.08703801265711462 -1.8716078067851896
P 4.90977166807462 3.6487432658180983 2.579873226780083 0.36464593451842364 1.858727865498728 0.5505575190150002
P 6.827458745500451 0.7893978645607789 4.316031554584778 -0.5635459608548681 -0.23449566405286712 1.6805568441795187
P 9.261368908858032 8.827940569593181 7.4072651547428805 0.3465638802057322 -0.9762141888888414 1.079067828421974
P 6.435765793957803 0.26913268989687994 9.737208664622583 -0.8593441804719587 0.010594230576078528 0.998119730712681
Ni 1.1265737898421402 3.981574767275149 8.790689506095081 -0.7715677469869229 1.3957896855656091 1.3133971421003057
Ni 5.253109783448687 3.2272017658910017 9.695776550921401 -0.19076299905160693 -0.33307767279383926 0.37676688615167364
Ni 1.7955887687780239 5.901984738388143 1.3347934700994744 -0.023465687222107973 -1.5382357426793831 -0.5917247372819293
Ni 1.228888867459424 5.5563462473128515 10.94840247883088 0.5457858086579697 0.1298723342138215 -1.832031072933832
Ni 8.278038105537803 6.198498471631588 2.528876244806097 0.43715695720395675 0.3411254827989803 0.10324907519933832
Ni 4.870731006173852 8.262254711440836 8.662955746443703 0.8741812454847913 0.08129031154006 0.28856210687996753
Ni 3.6015996478758776 0.9345431209482747 9.35455853690789 1.2401638965367674 0.4522979266104533 1.312945656385184
Ni 8.037362471458348 3.2546372671113106 9.368190844991998 -1.0853156091038987 1.6812081046102723 0.16516355331594781
Ni 7.96471754574256 1.674344885390671 0.6679455389670291 0.6133844816435501 1.6488808532324761 0.19308496231656425
Ni 7.2213957370128625 5.37863518242689 11.669962733427 0.10709878796273167 0.14558614540465248 2.773429953915701
Ni 4.262286327844474 7.764425241830301 6.490208644839336 -0.5045676825484471 -0.5721455295984211 0.3694143024413444
Ni 6.548840996283668 3.073818347706552 11.633367981200392 0.11529906438533691 -0.6236264710865325 0.3842071444798028
Ni 6.748015974855334 7.915198437790504 11.042633378983863 -0.3155882577598242 -0.008842537992294449 -0.35069512876528636
Ni 1.6461019053527899 4.157192020808569 12.90818830944682 0.9865734206359783 0.6140275145441877 0.23433522721560285
Ni 3.8295340173571275 5.427844443855923 4.2132676689735415 -0.9520681877702573 -0.029713982124664952 0.07915475325429594
Ni 7.497910285588528 0.34447609714953037 12.49476854413833 1.1107232505437257 0.4026113580186034 -0.4467350878106951
Ni 4.1340662030448385 3.0882121270942084 4.703341586219952 -0.23718143841514636 0.07698628484806742 -0.636708243971155
Ni 2.118138999243891 8.690312377639971 8.360037579462281 -0.5531206517564862 -0.8338995151466091 -0.24108025924892024
Ni 1.5631757086458198 1.9465685290869092 9.889966756187842 -1.0639497418336128 0.2605067434046481 0.0035437514872003486
Ni 0.3534954477560426 0.6267857146345628 3.5511697789319085 0.2708384643479594 -0.8189344091963445 -0.7643426899933933
Ni 6.160406127877039 1.8557928871300495 2.5750630942423807 1.0665090179203567 0.3528368576986375 1.1608196529794848
Ni 7.80750329781893 8.593743544631458 3.2833074597794187 -0.4619611607318302 -1.0537979981115915 -0.3548006662932277
Ni 1.9880128488632414 0.783850672869828 1.2902441125909192 0.8837380359352909 0.9817461744506639 1.4617729344349535
Ni 3.8455051972256236 3.9955648072540195 0.3649616469655706 -1.2665465002953542 -0.45728252430923827 0.6648083446414809
P 7.68423132809907 6.261021744261991 4.768273211370206 1.0085105870287019 -0.9510384609541621 -0.8637109420810867
P 0.33722474958195875 2.9669588544182792 4.719295865369009 -1.5694075402964973 1.0769955192739775 -0.06667667539194323
P 5.301361337442926 6.434601522174327 11.907894817384426 -0.7676704688150456 -0.2211634657203352 -0.2659060600433485
P 0.9741293005153326 6.511621856366727 12.739777334895805 -0.41822849573057 0.04220491550282409 1.6260641124482769
P 6.389410876256002 7.274802010435558 1.6556573843370157 2.1222129748054095 3.260736792501171 1.0584149280583126
P 2.3675278931222676 6.23752974424378 8.263992668756332 0.8976232785578153 -0.32731223106497176 1.2365206433572253
P 5.889609656044417 6.585290214537343 7.405794792151812 0.4672216377998211 -0.1521558282023702 0.6031021258809355
P 1.540857369699662 3.541404918812428 1.2390461998413986 1.7781993718253568 -0.6106087186706258 0.29827264929951214
