# total energy = -340889.579939785 ev
CRYSTAL
PRIMVEC
9.13315905985248 0.00000000000000 0.00000000000000

0.00000000000000 9.13315905985248 0.00000000000000

0.00000000000000 0.00000000000000 13.36730147795879

PRIMCOORD
 96 1
Ni 6.396124686624892 1.9353894298074275 11.734726387596838 -0.37236695731176517 0.4503094354255147 -1.2801867167866081
Ni 4.662285806758903 0.32903666134313125 6.023520117524572 -0.4503271760373277 -0.5374518348709776 -0.44144247195318814
Ni 2.727216037511923 1.7594665236549902 4.958012011071655 -0.07191272697990195 -1.1600434369350925 0.483017210071181
Ni 3.6077073515256215 4.4112883346957075 5.228592802383738 -0.18235934836894402 -0.0530112620897087 -0.22152264883196685
Ni 5.235994314331922 4.7006633403303155 2.315069457084276 -0.21792310440616663 -0.5248711699924896 0.9359291161165494
Ni 7.289311091467782 6.155310686701659 2.8013590212179498 0.8072160923181517 -0.39993278274517574 -0.7256401312168729
Ni 5.237382554480151 4.583375314122778 11.70740362952158 -1.1576600243045805 -0.5322970301429155 0.4362483293467584
Ni 5.743450887462528 7.953702733460257 12.564019952933418 -1.5876834557875494 0.6854915840224453 -0.8497989599856848
Ni 1.857912843113879 6.436730710960565 0.3527299020834828 2.0142572381590216 -0.4008103002541226 -1.6332932832068645
Ni 2.748286235024833 1.9521213768571244 0.06949237920946237 -0.9763368305096348 -0.3151971929689926 1.7299690760640594
Ni 0.5120733849393507 -0.11147111732328478 4.8828077543049435 1.1513901321354685 0.6905206618059204 -0.45357087978560595
Ni 8.756215137042561 2.284111701778788 1.227670082136043 0.1487925681570921 0.8366341404689527 0.7627869154704991
Ni 7.30481006207004 0.5321489814513262 4.870977573620733 -2.451148086185785 -0.9321038288331882 0.3450482148921541
Ni 0.4344397079132399 7.100455632355536 1.8697649433793768 -1.4736558019154686 0.7457829247133348 1.7069057664866925
Ni 7.689882306343691 3.7164832736663924 4.023771143792579 -0.42913640089232546 -0.5158178015409698 -0.6943019832252236
Ni 7.706349391786159 3.9417435040341484 12.319251295219507 -0.42350748474132227 -0.058732995064834335 1.3385281328399787
Ni 8.01527849056127 8.983247200231082 7.227792873267648 0.04375323382655045 -1.2817851716219795 -0.8473705530498503
Ni 6.7558980808288585 0.745460300069563 0.33945302903427726 0.4117014932453297 -0.27860550988788796 0.7415004952878972
Ni 2.1799936906616777 6.513796305504967 9.33144522888331 -0.5499918763195172 0.4117971382829295 0.141458239279208
Ni 0.03778844482430219 4.75510610035392 1.352543196785051 -0.19756510957510492 -0.30466775419257847 0.4172417063372685
Ni 6.370268713864143 1.8338287031738947 6.839526763337187 1.3972654987801871 -0.1056967654088825 1.9846872378113882
Ni 3.4043849687634187 4.344123084366301 0.695364010352154 -0.18387141413809624 0.7841054744426172 -0.7983133905118832
Ni 6.419569505443982 5.598443724084776 5.017242372974874 -1.777577936191274 -0.21144135333656489 0.24855394191814614
Ni 5.294163403174455 2.692345636946561 9.275623361870345 -0.031226305004133318 0.7962387673710416 0.5406793406693398
P -0.027931939771882394 5.759077722288964 12.730776820844 0.3125111614963973 -1.3190543403860833 -0.5455762637503249
P 3.975974583478616 6.175686764140455 12.73054940518814 0.896526703059527 0.720099918124934 0.6714870422132371
P 2.2356146281795026 8.393464333047 1.5072031957724228 0.28259534777357137 0.316851440742964 0.6782444155417287
P 6.311761698143423 7.804950974945838 5.927395447050417 0.9761044027838544 0.17330469436584348 -0.7176365441861061
P 4.623086288889199 1.0647801936909842 12.79747993333459 1.6053659606689772 0.7485131791603045 -0.6374335521729538
P 4.1713511180239875 6.073605447451337 7.990090151713913 -1.578082699472992 0.524056130290362 0.6144543176689612
P 4.769134632378121 0.8954285953454559 3.831256027921154 0.7143457892499762 0.10493623309377412 0.4356950279464496
P 0.2551594525602193 5.7971538616176685 3.717272378592754 -0.17288020523391515 -0.026943618468379404 -1.4057097728927983
Ni 1.4868691308644286 1.2722033647857824 2.524334786323137 0.32966659022976125 -0.34770750689187213 0.4391302788802437
Ni 1.8884175937394185 6.647761479808983 4.902149958159665 0.5294662455623398 -0.6911978903786031 -0.7463264559216308
Ni 5.882028306995854 5.526045173722904 9.118103770840802 0.6164530932665448 0.866426798350353 0.27566648186422205
Ni 8.501473069842698 2.5536677526656657 10.417017972057558 0.549991362098885 0.11776423809637782 -0.8556353641618037
Ni 2.2379527168502027 5.251812945494627 7.187664513140872 0.288512998809587 1.2961334699238516 -0.2855660003661211
Ni 0.7879358820259093 9.002783027053844 9.218384941916659 0.052730240514180154 -0.21017045704394127 0.18433986913408254
Ni 1.3097771803766416 1.2017410441043344 11.366750503411795 0.8903977073436536 -0.10724585506355723 0.2795483334171315
Ni 4.297005117756374 7.0062927644066395 1.8795365100543062 -0.3469971110884089 0.19088795466524544 -0.8687490187256264
Ni 5.6050561311066 7.809755016511417 7.908109091065719 -0.7377317722740843 1.1955282601052637 1.8817662353754303
Ni 5.339801798047455 2.6275550079233345 5.026278720360773 -0.44735935165825536 0.8243391251516834 -1.2850615283804063
Ni 0.781056786765084 7.3532066709217565 6.8111482120965645 -0.3594839307015099 0.6544162027738795 1.3519240945309106
Ni 5.254708156856392 4.3115085740418095 7.120306553159311 -0.685245272339594 0.4412866631016142 0.31238594877244263
Ni 8.24826537333298 7.3216790065027855 9.300981577472685 -0.31611790501104914 0.5370605129698299 0.5600500318864677
Ni 4.596444864465636 0.27682969861088325 10.49537682189794 0.37485552806157374 0.053125676180385925 0.2581762954992586
Ni 8.254338923981479 7.211597042643616 5.03975286964157 -0.596836861697514 1.0685340187701855 -0.7828006395882647
Ni 7.357937647216376 6.379575402752593 7.2413081217633595 0.6126494032497384 -1.3006902360565986 0.0217751868935625
Ni 2.19727362724357 5.488644888150574 2.6159805556874822 0.5480108413337464 -0.5953695331233682 0.7964064032971575
Ni 2.4637335372735443 5.340240189673212 11.479584288038474 -0.2150632663598683 -0.7265551868319745 0.24840044705941736
Ni 0.9486977444542758 3.3016095320001866 4.221219992085535 1.6589354092550008 0.9698825902438587 -1.7199240331232315
Ni 3.749189115579583 2.601644236209366 2.976429803647823 -0.47867153150797564 1.61692486915117 -0.9536841261071253
Ni 1.2075405999867348 3.480455048990999 8.354790885128203 -1.0773899264989186 -0.753920723329121 0.45742933429974764
Ni 3.654533057051712 2.612540094741183 7.267120255361533 0.05666274279936693 -0.571937527352673 0.002562104300221394
Ni 4.126799569056508 7.029125661581444 5.925216275344054 0.4007393378068711 -0.9319516195260401 -0.44630751335497326
Ni 0.7199787868224807 7.5033375364255335 11.620476050029438 1.147403893794211 -0.40003434132004656 -1.394122325165515
P 0.21445296347697707 5.8181327275418795 8.251273835864732 0.8828936856571246 -1.0222155953196201 -0.12713436645736814
P 8.519255330162435 1.7281671882077674 8.052141746392051 0.8945896339378141 0.7472381691026228 0.8794520069654272
P 1.897696883151259 3.1843671715869983 10.37401449351853 -1.1483243487259516 0.21317247709505865 1.5839712970432849
P 4.289552460118517 5.933310994050466 3.88352144287017 -0.527347142336808 0.6352234318955124 -0.4335754105002856
P 6.782073714150056 4.060072710352857 10.285430159007385 1.2163619090211635 -1.5996043755948515 1.0083123549749666
P 6.497904609071302 7.938295094446699 10.419663848182175 -0.9890949015062515 0.48953958457073116 -0.1731393724325728
P 2.491690136574375 8.624478453502807 5.701595446993449 -0.47195298183721945 0.5767542320150261 0.8663946595608369
P 7.2007377167472795 3.85722525185189 1.8825303595318668 -0.826273366059919 0.6645422354642878 -1.1993129239586764
Ni 5.247054569723398 2.952083542048272 0.5859679467241155 1.0788212596288065 -0.2697154064871097 -0.49977874580023596
Ni 1.329970594638039 0.9320845284698879 7.173521816630799 0.353131763231237 0.8222472756196614 -0.6523868310486765
Ni 6.882931187550604 0.8594512559250592 9.15595980104074 -0.4420667358007483 -0.9546205218784657 1.0685874977159402
Ni 2.74397538403823 1.4372852113596224 9.292038388307256 0.46264533128304836 -0.4424868540573024 -0.14192412317203298
Ni 6.468450171715805 1.9009482877089514 2.606784378021358 0.5971646773505779 0.1905367419734138 0.7038227782314652
Ni 4.416028444149196 6.941794396467251 10.477090411208582 -0.40118850952914775 -0.047314725925563676 0.38790516215668036
Ni 7.950743589986402 7.456457031946225 13.17557444423162 -0.24401851594163784 0.5621251692479415 0.7686824550193276
Ni 7.922997053339579 4.05504033981553 8.328242618925113 -0.3294074230311036 -0.2629891435068697 -0.5557215797144429
Ni 3.2856630366133026 8.561213062010857 12.924977004526927 -0.7694134196480814 -0.9804688504001373 -0.3825117590552509
Ni 0.10894488557986436 5.240679624832192 10.53638744517155 0.35819632223833797 -0.9660652733802976 -0.69567829474746
Ni 8.801917464027651 2.322827162228388 5.850533521948814 -0.37818587798638736 0.39402695878370203 1.9914258420868025
Ni 3.723241811230135 2.6936060128706103 11.463102589541812 0.6097867369899627 -0.10249522775244929 -0.502466062824412
Ni 0.9028072743964659 3.527253355040479 12.58421793377425 0.7566167821040453 -0.1851507950711521 -0.2839395205062916
Ni 2.9512341582733694 8.290999423685346 7.836580017428264 0.8266893705514149 0.29616665870010284 0.3969050516624455
Ni 5.722490287856056 7.7488916458022565 3.8164447841818014 -0.5619863296772322 0.7887386023392545 -0.2286582314354836
Ni 3.087172094893288 8.545458362960241 3.552467266732673 0.3153835979481859 0.0929356090884722 0.05634958243432231
Ni 3.5213350680927693 4.309161352212239 9.536312942126303 0.5171239219469029 0.5906453881748214 -1.0272547004054242
Ni 7.074946719631844 6.0575128215225345 11.370520671393301 0.19245195671825566 0.806252957073934 -0.48476941687559744
Ni 0.6204474480898449 -0.24328725934520776 0.11402840180686294 1.0317381900980747 1.090401251156922 0.7534898064392894
Ni 4.55733667818463 0.7282305958614551 1.6851353968762428 -0.7504533336058108 -1.733551136988363 -0.8088726540849682
Ni 6.105279242412227 5.94099198066007 0.3621626285643383 -0.33846079148262354 -1.1590615326377975 0.5311261497632659
Ni 8.222199337918223 9.19526435023745 11.137848882602603 -0.7969355363277502 -0.26896027348864004 -0.1091315021220443
Ni -0.3032409674309236 5.093928028110286 5.629104651726991 1.0085548100030757 -1.3665372164583949 2.011198910948672
Ni 8.277747210165089 0.06284800613159414 2.2140530667193907 -0.14780166499873254 -0.44655999568541155 0.4552377259650676
P 8.676199532183174 1.5802191476739014 3.789349441762404 0.9809637877586849 0.694924704410887 -1.8892170352265205
P 1.814731267976888 3.3581255190872636 1.803489262723901 -0.2533271949370734 -0.3568889162808241 -0.30145644634413243
P 4.816234332670308 0.8907578978993778 8.202389516329363 -0.7214458906298672 -0.41994522131136064 0.2740664843669538
P 8.706886945986113 1.4522179261119448 12.68234733262035 -1.1899808479244731 1.5550684979660057 -1.0602980040136385
P 6.556384225315413 7.90189032319119 1.4888099271242872 -0.44535517674403297 -0.2385770332110923 0.46329067817653113
P 1.9081634832161898 3.34221555633586 6.304460650942807 -0.9918624369490595 -0.8923234636114568 -1.6928539163793168
P 7.016777630789311 3.81979756680295 6.223012966772617 1.1690736654581608 0.3525740909555541 -1.1431160650521346
P 2.490530225397895 8.475808893418217 10.577759741536411 0.2005041375987708 -0.07328903850213829 -0.4990426389651599
