# total energy = -340888.1179643765 ev
CRYSTAL
PRIMVEC
9.09267947570312 0.00000000000000 0.00000000000000

0.00000000000000 9.09267947570312 0.00000000000000

0.00000000000000 0.00000000000000 13.30805551481988

PRIMCOORD
 96 1
Ni 5.692399234102273 2.8689767790968554 9.402659813354216 -0.11683349875199232 -0.23799904922043527 -0.24811248350535334
Ni 4.684375696557169 0.5324309384228098 6.101091534834314 -0.18679681531500733 0.160289255942782 -0.6716901593629787
Ni 2.7917071890511385 1.9499251100616772 4.810968526330233 0.2945682038647314 -0.9156122589360683 0.7981367557247029
Ni 3.3467516212893984 2.9661684298380506 2.8640530931696078 0.5363362332092957 -0.07425063108445923 0.4851810504917193
Ni 4.84056065163075 3.1410115631622566 1.2125579063759337 1.3261613837445096 -0.5002806251373191 -1.4666202352249258
Ni 4.9960000069886625 4.82152967352229 2.89234587457538 -0.2809688679137419 0.03421264132596689 0.7327374043832864
Ni 5.34819585316786 4.679874820224781 11.65270608506334 -1.2455220755248873 -0.33558964058241564 0.27836742573515283
Ni 5.888491959323024 8.108242332341476 12.600732486463743 -1.6882596121404148 -0.21180156488946106 1.1049076723032134
Ni 2.3487936799058162 5.493624168441007 11.7517180902323 0.011240348800509673 -0.2584552601922581 -0.15700415743360702
Ni 0.9873740624928773 7.722558147713421 11.367994287295687 -0.08656081591037995 0.19055911057091698 1.139662045065263
Ni 7.921642364476305 0.46570158240639276 7.075387596460781 0.48069370414432694 -0.7947254160503088 0.038888449535081415
Ni 8.77460843920079 2.537312203136913 1.2507271562104727 0.11450793594260925 0.032544509594924595 1.401536358241399
Ni 1.386951861334847 1.2031342533842435 2.6646851848075914 0.18199168061688012 1.0198164989598244 -0.0847903542735185
Ni 1.7587878951462819 6.833894213431455 0.5246048692121309 0.22106807779305154 -0.4495432466834516 0.13925377542872147
Ni 7.528020270680223 4.040068430066284 3.9716032815410727 1.5492117820749125 0.18891026211358436 -0.364708669435559
Ni 7.281899623074024 3.917317257364802 12.928229887427458 1.1348970195764518 -0.0321668145405317 -0.7553278880892926
Ni 7.347448749296614 0.8460601846750944 9.610106567415883 -0.6896207756994703 -0.4936168399638982 -1.3221422352827874
Ni 6.919219917478173 0.8845549524342787 0.49537463255409747 0.18408430147985072 0.6241322070783574 -0.2780077284028889
Ni 1.9949793367828503 6.74779563163069 9.546693311598297 -0.2597716650108365 0.18090924618597876 -1.4936085908883114
Ni 8.90590673059408 5.101320513166534 1.6601132283852638 0.6535654247378099 -0.5773394150945348 -0.14504698507173083
Ni 6.149242728179349 2.3249708597222694 6.947337210170379 1.0695290356936031 -0.5855270931116497 1.9836960775427126
Ni 3.322546908568558 4.789341588236124 0.6992434172485013 -0.4851175442436355 0.7338758888631038 0.4918828879919271
Ni 6.036338927332364 5.670722286271138 5.103319993379649 -0.35214934471330966 0.6966105767537423 0.024626026078796298
Ni 6.461658101723808 1.9994711204357787 11.584875605564394 -0.523100194134996 0.1713812520908855 0.7497025714827154
P 0.12334219686634018 5.9554777289001954 12.559929996657772 1.9078282225698049 -1.0856606511481433 0.7463061442066568
P 4.237834208307558 6.256481789723146 12.713211659179974 -0.5864586037869836 1.0593700928827303 0.37443515269470357
P 2.6569627721427493 8.686218502176265 1.551360235711481 -1.8930119834925785 0.6324222150012916 0.12077654256014037
P 6.412712208194025 8.223792102911137 6.25720829481195 -0.4573041215757931 -0.5136786437107799 -0.6295209821940965
P 4.746296843675472 1.6760990681427803 12.961433625009235 1.0181051726956725 -1.9048663117280031 -0.5871638573841242
P 3.8059592120259103 6.20210756655612 8.49286812908046 1.4733722092367787 0.3730207888456802 -0.7308970087404381
P 4.9002722776404255 1.3074727501805028 4.012125716819697 -0.7763463993224888 -0.02149776486245975 -0.774951318747175
P 0.06078728998971942 5.782916858120291 3.838122747077536 0.10302924587904835 0.14846012451833787 -1.0228835679209223
Ni 0.3801531077129197 0.17382293468886487 4.8409116290578815 -0.5112510081058936 0.9773902114748134 -0.29372231092466833
Ni 1.7963679393518537 6.678691267739485 4.957090613046131 1.0344005674215864 0.6381010105536237 -0.031594486976829456
Ni 8.108869727224173 7.462889407712763 9.417618180332823 0.6142956806039098 -0.18259074765345973 -0.5540084536780782
Ni 8.475259246039444 2.752235867518017 10.646271038619787 1.1466685582900833 0.8454178001988537 -1.2944622528690157
Ni 3.7197515180716327 4.4791721065181305 5.023112558600609 -0.6660735845071496 0.9146396106101539 0.04096924332351008
Ni 1.7406389069453814 1.4801427331139196 6.9593013578030165 -2.556143711762585 -0.24663847006298814 1.0379381482611996
Ni 1.1399128531032512 1.2438421793238386 11.391296096946212 1.1516639546221457 0.48371449324852184 0.0006204071928182864
Ni 4.0022156054769304 6.992234133536906 1.8641129476638822 0.6291360880508521 0.03622401532904084 -0.09814877785829548
Ni 5.478348466949267 8.057486995599279 8.563853768351807 -0.18475253119146892 1.6390240150430548 -1.5006151041131317
Ni 6.963201208023141 0.543235769424378 4.526442219223552 -0.09263736112176303 0.8533853917853625 1.622271221064748
Ni 0.6079929232660579 7.709937508623818 7.076452349225473 -1.3331696967415427 -0.06456425703463074 0.353131763231237
Ni 5.058512178271824 4.617662707363778 7.373633847603705 0.3446936597662128 0.7787814911265426 -0.22326997054037678
Ni 0.7409933642541398 -0.04223731462466077 9.238785179261848 0.4373788434067758 1.2680786206691645 -0.5896161755793587
Ni 4.638121236147359 0.5705465414485386 10.961299648240868 0.7287326540992676 0.021570012861291885 -0.9606731558304488
Ni 7.994111019767477 7.417125951993759 4.794839022237259 -0.015412735010644423 -0.4970145527915376 0.1845249885616951
Ni 7.277416932100554 6.472460204921538 7.125611920722552 0.5671701878710168 -0.7983339593371735 0.8493454173880339
Ni 2.149191180413748 5.523748215489897 2.7111969680461017 -0.10811025994638154 0.05148685502538229 0.836548779843998
Ni 3.7872828484163663 4.2202489662331395 9.593897047743665 0.01408270334531123 0.9793187959560941 -0.17077987106146075
Ni 1.1205363531753358 3.5522643624300563 4.058651139077396 -1.0234556383743083 0.2573334878829891 -0.7156182282044966
Ni 0.6912409500563106 -0.13210026572160438 0.380033993612002 0.002503226037827947 1.3315622430451068 -0.045910132268553186
Ni 2.1041187683336564 5.716713058976627 7.178418565950783 1.4119405842938586 -0.05731066079601097 -0.33423955431242436
Ni 5.645853807949764 3.158905956338295 5.009271681927557 -1.040448316277563 -0.1488175078577566 -1.4641491479766138
Ni 4.33407112770552 7.267596838284436 6.304744823025532 -0.14244631422409015 -1.3265763597947413 -0.1315486934749799
Ni 0.9972578050652112 7.8576208084028885 2.9417327630589427 0.10318993982662873 -1.11049982167901 -0.6693224304617504
P 0.2286763420634001 5.919497996279473 8.239349677466118 0.31657504715312573 0.294339375683377 0.4962085119504745
P 8.841694228252015 1.9728386622992868 8.373534894587756 0.9788115173023723 -0.18577840135282198 0.0672330621160455
P 2.051008427611482 3.5437899851739245 10.59285245606394 -1.1457607017638332 -0.508512526128808 0.6456384565812494
P 3.9675179406599783 6.586900668597155 4.12743998699136 -1.3606954129656372 -1.8862199002714095 -0.08962145711357469
P 6.9520899537237915 4.243135240432371 10.408522930259775 0.7283559874861392 1.180386519367819 1.2734977348022067
P 6.327450152903521 7.928180001007592 10.521069388804007 -0.6833439415518232 1.3818728183742006 -0.6028542715361876
P 2.0030445434633104 8.74810327857673 5.9488473470384235 3.2784684054529794 -0.3689651307190678 -0.3355634153301705
P 6.863318124161973 4.121029647972504 1.6879404646027167 0.46649067317106757 -0.9138240566873939 1.737764403738762
Ni 2.518453985938182 1.739275005026476 0.3462046796834197 -1.5510071834124386 -2.0795863983841345 2.930937790458604
Ni 1.561794994659053 3.6519019439458216 8.34170233306845 -1.1665077045031975 -0.27206822299000244 0.4925878844787517
Ni 8.062260652315448 8.927538215027917 11.656618665034706 0.2078073561284034 0.22124805501434155 0.4662232784422938
Ni 2.931998140429742 1.7534050289063354 9.270644109551585 -0.6104729644237099 0.1820626430641316 0.9600249807234887
Ni 6.4742696481339514 2.15940225944662 2.716200669552592 0.3280802195792479 -0.15761736553757372 -0.3030302185891555
Ni 4.074975226510801 6.903926030627514 10.646364693218219 0.8386313734046396 1.4215541961242226 0.28698756330399605
Ni 7.347103227477158 6.481507420983609 11.651295810479192 -0.5532828883659633 -2.109968353110102 -0.041939063435947124
Ni 8.079318518981223 4.170675677820659 8.571199744087032 -0.39350271084911587 -0.5164657195376138 -1.3135112990806668
Ni 3.2675089198009983 8.629434718952506 12.727611735639778 0.1204852365719667 -0.5903988193816543 -0.39171065194569954
Ni 0.15276065198918257 5.433967098508089 10.510609170353948 -0.07944451658057286 -1.5190733108183194 -1.0791066520797092
Ni 8.467439541704389 2.596487361058486 6.040646129592267 0.8756305763368082 -0.10636165268639103 -0.26765158197954547
Ni 3.3530073847574444 3.132509907867747 12.374042894862216 0.82251235635559 2.655509906967749 -3.1382838906798725
Ni 0.7850955874359171 3.750293828375653 12.689443395073186 0.6133428297723372 -0.026891939294837557 -0.16731376688973118
Ni 3.1925943337352574 8.743893367987042 7.913236182316119 -0.8952084984687356 -0.3716858720843405 0.7768179396422686
Ni 5.475666126508754 7.975216431850908 3.8352085433108085 0.8411862786160094 0.40755996027313035 -0.2770695328593357
Ni 3.1799373239278155 8.900360196123863 3.767430801352726 0.018250204459439538 -0.6404805665293937 0.28505563638860587
Ni 3.632516351338447 2.7074089577833282 7.050873732638323 1.9788253797139728 1.1797229176418909 0.26263664526345737
Ni 6.004450900468357 5.991321071329028 9.365504397279397 0.24460009947672065 -1.8099704935893668 0.3480558913702264
Ni 8.272437938018761 9.186334057800478 2.3845242731093523 -0.9452951307124817 -0.32045021383781586 -0.053916804623113594
Ni 4.756326069119155 0.32049330997616204 1.479257106134577 -0.3150030746803155 0.6010678690597261 0.5672552913856553
Ni 5.877317056267461 5.666812434103609 0.7326044581849259 -0.3334738797909934 1.7111177476855113 -1.5583805930583743
Ni 8.150041379816194 7.209203650796368 0.5033480031720181 -0.2455670913756803 0.8440337753671335 1.034168139695806
Ni 0.13491172221044126 5.080007272513773 5.916761099762202 -0.6686963668419774 -0.5057131090068001 0.5330444498319014
Ni 6.998708121311976 6.246025208344872 2.7783891414470006 0.7420494258128317 0.4010216449339803 0.38827668656348613
P 8.516921903322274 1.83158388689799 3.7112444071694473 0.4771908331973911 1.162109575435502 0.06231325621692495
P 1.7344467922335511 3.5514005578814163 1.7356370239747825 -1.477863412238913 -0.1902462073161885 -1.285926961704495
P 4.779285084754062 1.3080637743453616 8.255465542539902 0.34866087194407697 -1.8252798702529274 0.5653809571810778
P 8.57822474823734 1.8086885200192988 12.57185413650079 -1.0622962653905899 -0.4137362642871713 0.8869331458338209
P 6.476133647423122 8.028835962622807 1.5683680926402308 -0.6989495092995639 -0.045121832039302937 0.8704395190541719
P 2.0294133138954806 3.629861288936311 6.060036268539371 -1.8104096380093142 0.6713137498601665 0.1904495815762462
P 7.120013557979418 4.2565833133527775 6.467568343372397 -0.8127215955174132 0.7998519386435967 -0.6698394793074851
P 2.645014991333139 9.018228599955664 10.489901502153183 -0.5607753400882665 -1.6479418863579747 -0.27750250663169623
