# total energy = -340863.5160939913 ev
CRYSTAL
PRIMVEC
9.34502959661456 0.00000000000000 0.00000000000000

0.00000000000000 9.34502959661456 0.00000000000000

0.00000000000000 0.00000000000000 13.67739542471385

PRIMCOORD
 96 1
Ni 7.357304567444844 2.8771197342692156 7.405994976119292 1.13954403143016 1.2244747679362846 -0.4913113317591732
Ni 5.310444004179466 5.141784906669452 13.612181578495743 0.3665431515411364 1.5770822832329356 -0.4748837823307692
Ni 2.9676450377698536 2.8879973489357527 6.429155274968979 1.4362465080290747 -0.4438549380494227 -1.4832740417315229
Ni 1.4311352409726117 8.911270879875326 7.185720475612986 -1.519580589472041 1.430724292659265 -0.7722151507629347
Ni 5.6184748758619305 4.115709981608386 8.558917466438636 -0.3967795818281747 0.05354682287820456 1.062972208411692
Ni 0.12017521399375483 0.5396848149546133 0.20729705764769796 0.5241638595128199 -0.05383890019732663 0.44860196581610484
Ni 4.1023559340495535 0.3725760578854735 6.392541448282131 -1.302146251776835 -0.46916616312070164 -1.4802766496660957
Ni 9.178118205307422 7.9050167629824095 2.9004832432278143 0.8253246289934044 0.7535952216689021 1.733949400868046
Ni 8.595754639337281 5.0178511216972765 7.436646673805066 0.7308975229610702 -0.5531368497064023 0.7648144874234892
Ni 3.2395386792843635 7.460548456479122 5.763982596589403 1.2185116083743144 0.3427841014483258 -0.5414822961866094
Ni 4.528965888638964 5.05818427023746 4.646689901320836 0.7390432919966562 -1.6378893872179792 1.331236741384888
Ni 3.584874909857562 3.654504726765093 0.16410432999414695 -1.3710189063788325 -0.8847209686738505 0.37993551368764245
Ni 8.40079862802002 6.898071113885606 10.592869740065796 1.8737654765581409 -0.15683883550033634 -0.6139226135352072
Ni 7.3480062628115075 4.851154480441534 10.51013445339164 -0.43880760543350233 -0.07536957518025085 -0.17706853228364988
Ni 8.361315877190021 6.8841096393909265 13.090239237085706 -1.8932554669619521 -1.1069966936217581 1.059467537692543
Ni 5.148064766683123 7.4161782550730075 1.4575041115091814 1.1090885431537802 0.2987336480963307 1.7347150753894771
Ni 7.720826225974298 1.3148924155112267 3.914033024871732 1.5983748740631247 -0.9070252885980056 -0.35852773743582766
Ni 8.991582065823966 4.6565535802559985 1.1563511817464522 -2.213771758151013 -1.0292665886291306 -0.09320968868546527
Ni 0.8997020873157235 8.597754475710683 9.910763867720787 0.17982321221065162 0.29739178935645555 0.39348317046509007
Ni 6.832945601333118 6.340032660438657 8.554992553930093 -0.4403590090810222 -0.3678155904956569 0.8760057002880398
Ni 6.306072822209967 5.165315691661152 6.492919216682193 0.6473258715860013 1.2676052805771718 -0.609813219352524
Ni 3.2849648690558717 1.922693152548647 3.777764735089968 0.09390080121521893 1.1676032515602215 0.37223480260927505
Ni 2.1831671676692497 8.285593100864464 13.559879315810457 -1.7532054208841805 -0.32892148453362063 -0.7349017590244569
Ni 8.600520604526228 1.2692512900547268 6.190512183922686 0.6898609167347345 0.672312623438326 -0.253834216480479
P 5.508437150175958 0.7207699985660834 2.188301327031617 0.27135679874527463 -1.1569385727575237 -0.09103530674196579
P 1.3029868475686426 1.3592065467386476 8.781763719141018 1.0564848009151353 -0.10793928158615605 1.1890771051632811
P 9.340983384352443 1.5867019517576966 2.2846719466610512 -0.6723013105844162 0.16754208085045338 -0.4626862118233128
P 0.8390668615736064 4.547842848799106 9.748399582272095 0.5036868226053907 0.029059122149485434 -2.097333437954911
P 2.3154647542965368 0.17562488270970247 5.234818416163645 0.23823121983589937 0.316851440742964 -0.4873240649766511
P 2.070690389210111 7.932986437120677 2.1168641813641993 0.04360719516698942 -1.4389785622482574 0.21192832027531244
P 5.39583888632965 3.233557860223725 6.475344019170719 -2.031645865949114 -0.5451841705182289 -0.05930069464284626
P 6.688106984738054 1.0609505762084155 9.373447083312994 -0.557225417953479 -0.2823891453000363 -0.021147580611892612
Ni 3.357005703647223 5.965502556825715 9.464812504991057 0.02890279907727926 0.554032107827162 -0.09364574778161937
Ni 6.6159353197297515 8.519620681701305 3.4932067092145553 -0.6680646467952494 0.7299259030764204 -0.4702707090387901
Ni 7.640963601455205 8.796822300132133 1.3961203488815062 -0.7751963448784457 -0.16127810221861258 -1.0423383342114243
Ni 1.5342763346792845 3.356519762098546 2.3256629852979045 0.23013867263575208 -0.2947229842750408 -1.4953019194303345
Ni 3.029490444868772 1.0174681526316147 11.160672815132214 0.04882833435661268 -0.5229600690127058 -0.5354805700772196
Ni 8.456364175105268 2.799443846719169 9.393211821302451 0.44602160668343827 1.7678491389392845 1.2829493671334098
Ni 4.323431303608198 7.709098213597577 13.133992666526192 0.6281528982019763 -0.1811974668503589 -1.620348293010422
Ni 1.0812386358656763 6.769305948516008 8.157485825591538 0.09872984717274609 -1.2732372820519684 0.28107325470209016
Ni 4.7391823335906365 9.081939158788524 9.743694359776732 1.255537293669044 0.46291221179118985 0.819265310173202
Ni 0.7919324003579031 1.9891923844791248 10.96194047727995 0.08507471828315671 -0.4571678531082449 -0.2737666937383479
Ni 1.750445563602249 5.788890838971007 11.757075419344229 0.9827311640717526 0.33630646414378207 -0.7787614365218847
Ni 4.944501982936411 2.8067610050386693 2.3761738057739334 -0.8657079179064574 1.265553797364782 -0.5513411912585601
Ni 3.382246629089075 0.23222959710673605 1.281448422926517 1.5838581685041886 0.1046878645283939 2.6004823857789603
Ni 1.5558166283273664 5.813234641553764 1.0947319243682643 0.5822728478404101 0.9149023773532371 0.4215768433775127
Ni 5.926608542871998 1.1567277864466767 7.143840724643841 1.0521969721730589 2.7332466968285964 1.1323691109482759
Ni 0.994656934933147 7.235239788429118 5.080892692608322 0.15522932492137137 -0.000598038595315099 0.44672737450121125
Ni 7.1265757821211375 2.4697231609121073 1.8086847237081976 1.518764778438965 -0.8616275771894966 -0.7619595344731974
Ni 8.078955802319394 7.075112703110297 6.474756216797416 -0.49314504253380226 0.019037476247425276 0.2732838405646584
Ni 5.95251296542839 2.85061722980676 13.367602524531767 -0.8718168590176727 0.5140524821104309 -0.38721944894356536
Ni 6.865774690958156 3.342390077067787 4.88564791987079 -0.20136879959191126 0.468734989120554 -0.2488287928460876
Ni 7.9317809282787675 1.1658391904843688 11.274140166748273 0.9575747194107831 -0.720829597202107 -1.1070933671006222
Ni 1.6272406909530892 4.944604778264016 6.30393935191068 0.41987631574663814 1.3035369614767742 -0.9434027987857753
Ni 6.802779845196021 8.38969673263871 10.959492079477 -0.9160076946022739 -0.0486378156123614 0.28020987826053034
Ni 3.11498812234656 3.92995882462664 8.552338565471935 -1.040872548299175 -0.35932786473961986 -0.07705287641994471
P 3.3954698462309563 1.3344515628454723 13.284936391077999 0.4572516710713028 1.4679852338932524 -2.3086380086032947
P 9.304425627844287 3.4637913589689724 5.554198826516649 -2.0272317960418182 1.261809499831001 1.0987113136845141
P 2.5122523914511183 4.32131932687741 3.934685540690501 0.8098514730584697 -0.3957909926626603 1.149937201739026
P 3.326195140455151 6.152319047202639 7.340165782824201 -0.9460790600663578 -1.2227071345129006 1.2381424952313644
P 3.0596842360952157 5.986239177912524 13.403191201451502 2.867369321678339 -0.5253571084899726 -0.24535883201961617
P 6.424558454819091 8.098262633849519 13.21775310296746 0.47975165194603187 0.1957563385011403 -0.17531606836891744
P 1.1495694936334746 3.6862404479056075 13.591214135173313 0.6685552132784228 -0.31070419019464557 -0.2234350353633313
P 0.6844206362220727 7.613470523835831 12.124778978701237 0.5604938042921057 1.589532078960514 -2.0445142372713496
Ni 1.1240388722683727 2.1302462640123783 4.47893633719672 -0.3458802238751463 -0.054290900133080695 1.3420405168686111
Ni 3.353183586466283 8.291947721116394 8.147897825034951 0.1661752824099138 -1.3853376369943498 0.6142851390809485
Ni 4.411620349663274 5.231805578561849 2.173844565958479 0.807628754375538 -0.9621754514075881 -0.47716357950388144
Ni 3.108483981618116 6.388290394234186 3.5813714581921974 -1.6637215177897346 2.0105597347027757 -1.0031989450078012
Ni 5.95866199502511 8.444991273860273 7.786924556127117 -0.048308200187084545 -2.101643892404806 0.7970118980916403
Ni 6.912789535792646 8.954940204047771 5.718382589263945 -1.7197656531684964 0.8659285185576958 -0.5859829497021457
Ni 3.4346255210185763 1.5321923930378432 8.456091300235625 0.1354595984936119 -0.5407698435006171 -0.10164830637112171
Ni 0.8295293241778439 5.69799173427908 3.3661713088576524 -0.16485013584058705 -1.0549046009122092 -0.7149831657236589
Ni 5.199088629294197 0.49815083008741134 12.147770555474503 -1.1601298260013118 0.28474890378146445 -0.33193250344580255
Ni 8.728575547632374 3.53660783103225 3.4406586722459958 -0.17415958616697103 0.199156879542257 -1.0702957386562986
Ni 6.293055195723295 2.706021583986034 10.853929688553746 -0.40169938772729524 0.014695140118329529 -0.0156706166577214
Ni 8.697232317742714 0.6917901267083536 8.526406107826196 -1.3116202527055412 -1.441210022681937 -0.46729028625422747
Ni 3.220502853617924 7.621675459984645 10.969394073034268 -0.3780568086076908 1.3707494547675296 0.7574835009797148
Ni 0.0724725749672909 4.2984520390002485 11.634539650827477 -1.354093077157771 -0.9767960295342404 1.4398121138931461
Ni 3.920174578444626 8.667318877409738 3.616933034525564 0.19948032431994678 0.6471176122299371 -0.08678861565046987
Ni 6.382094639488556 6.321398671052854 3.7132074003482414 0.17649183384457345 -1.1188260821565181 -0.7405440449118988
Ni 0.8219719985929398 3.1236322748951397 7.489563839450025 -0.28673199564976426 -1.0329409521569244 1.581801800195792
Ni 8.474923404252813 2.578461927458347 13.17456037531391 0.8864320378276863 2.1123175700685684 -0.09093271972583049
Ni 8.49004366244049 5.506773734874718 4.947907311789062 -0.0947297248744175 -1.3296462569693164 -0.17951082317655537
Ni 1.6873198874231625 0.4627303637037562 3.110937051935956 -0.9140546846409612 -1.7053098827544824 -1.3781035811397557
Ni 4.890852166956525 4.766479165584584 11.090412208714381 -0.10700005760133831 -0.05322029277672125 0.17787148780091946
Ni 2.699554823376719 3.3761630147008317 11.474459290657565 -0.10292588753196469 1.094667996853076 -0.07208139134728231
Ni 5.418883729772674 1.3959512038424475 4.224988890876039 0.6104603660182196 -0.5284324049811867 1.5993107556138328
Ni 7.078944165321018 0.8777197737589412 13.303127426052123 0.09920087327189366 -1.4172589111829785 1.4943302995456844
P 8.894197510463158 8.706231581423019 5.248564020470354 0.42997972272922724 0.7460729451499281 -1.1295640373993128
P 8.111560611229658 6.5463428829413495 1.7005786156782163 -0.19491275955392237 0.3508535087200215 0.5034595370859328
P 7.245491286100245 4.550394041929659 12.676894552272197 0.045429335977392724 -0.22081996633798745 -0.31757006407654337
P 5.634454876789575 7.141312894087743 5.596803751796896 -0.37159691191496 0.01514379761997392 0.3048279339195267
P 4.310862238551074 2.79791126183488 10.027377690864526 -0.7907558898795994 -0.06688981984401383 0.6579545549444411
P 6.719898776057262 4.449888246621581 2.617702642016985 -0.5682803902160599 -0.41782817496835783 0.23580358423101327
P 5.374167762264617 6.775660568767937 10.285237901155034 -0.27625937825321456 0.25443148374484564 -0.44637436203716674
P 8.388080042486381 7.846311285890327 8.3972503202117 1.0654366107917845 0.03510507123324922 1.8081146713275507
