# total energy = -340887.5931110685 ev
CRYSTAL
PRIMVEC
9.07184397337998 0.00000000000000 0.00000000000000
0.00000000000000 9.07184397337998 0.00000000000000
0.00000000000000 0.00000000000000 13.27756065108361
PRIMCOORD
 96 1
Ni 6.581287283578206 1.7752419691446268 11.41066991712662 0.06628123972573746 2.371273166936013 -2.182296056140235
Ni 4.907767903057344 0.6558752822671987 5.928709616665038 -1.3164179312045003 -1.9521285871490766 -0.2878439977670204
Ni 2.969405103979254 1.8053514199287413 4.857264039405568 0.050792400061518986 0.09601167691063466 -0.5046340170100084
Ni 3.3055895050511785 4.515764444837286 4.857967107328367 0.24361279586278692 0.0046524111703468264 -0.2515891292000441
Ni 3.996827743058527 2.8681179638754166 2.5108270101688674 -1.1021329377715534 -0.981328113076639 -0.04610605032944318
Ni 5.094021935611925 4.817412335172505 2.394010687223135 1.4892742251790156 -0.1888907217295586 0.4326027621743711
Ni 5.280103603127369 4.901744198531689 11.618025059209327 -2.360621600759438 -1.3175638718834857 -1.5825157955436808
Ni 5.672352001139886 7.950373717605149 12.1761076757451 -0.08506340542924705 -0.16408086177473033 1.53110787338535
Ni 1.8025210045492164 6.453954878876238 0.3767464307031179 0.3891814577659426 1.273300016969104 -1.4916134148351539
Ni 2.840339977041744 1.6522731214860933 0.3640503847939982 0.3989742754866483 -0.649670460558778 -0.8490263434857185
Ni 8.117921607491203 0.11110015393727483 6.430522305397671 -0.13221975140007552 -1.306541552631053 1.0736625982460024
Ni 9.030549130504737 2.057240245018143 1.210157703282194 -0.4834782088679996 0.49106090631126387 0.17958461383728425
Ni 6.907401937626819 0.8171563422039703 4.57943064718827 -0.9991617988239502 0.22736239544219555 -0.670595126526587
Ni 0.9793418650040066 7.265331549162594 2.404486852865044 -0.8964827371954689 0.36382703816155404 0.6334149179318639
Ni 7.714814212013008 3.692295006278792 3.906962054758606 0.12258325675157598 1.347246743659899 -2.7933817144472792
Ni 7.467461309006178 4.06927549056137 12.442840759441928 1.9951925082180861 -0.6039840142652566 0.43179595000235954
Ni 8.265738236318066 7.454352494187545 9.112071443725975 -0.8810820863696827 -1.5022279571262063 0.4516212122584029
Ni 7.155471516322695 0.6898348237150006 -0.07646748165241929 -0.4166997177908694 -1.1921513732132307 2.731605818791063
Ni 2.151387843764012 6.517348925902268 9.062970994366546 -1.1604550705512142 0.18481578032923654 0.0008235243425598721
Ni 0.08830079518143374 4.8235539736723085 1.3029989564682827 0.6903820793455272 -0.22205486718635306 0.47436441949218944
Ni 6.396765973259168 2.180925768365723 6.8471050181987705 1.5497542848419439 -0.18330242900850366 0.5711165741132744
Ni 3.57003376246514 4.273528061939598 0.22671264316229253 -0.3851579384288464 -0.12574648497090604 -0.20435616435500936
Ni 6.182688594650088 5.881067919847364 4.607167810723199 0.06028902669804456 -0.58724716112655 0.9338604065129789
Ni 5.377408203642709 3.0975630465002504 8.830733598107681 0.2902654627243195 -0.09028480172918645 1.2620223871727556
P 0.14159969402049055 5.672397360360711 12.463779482959497 -0.6650549134346482 -0.036876304201059064 -0.4983828938939739
P 3.8225031855811107 6.343523319853935 12.615209427317339 0.29601367806200635 -0.16243175620708153 -0.15836555655750792
P 2.4297664538156356 8.63979758677947 1.4886007234273897 0.33814403157315315 -0.5051901466237945 -1.4319514801981468
P 6.44277836686478 7.9597177170952484 5.571994725062975 0.27029467602934737 -0.978561091854463 1.1522635358793576
P 4.761566062491876 1.1842838965387854 12.517367773627424 0.06171958849698403 -0.5463743341715881 0.24887147315856495
P 4.146177513549301 5.9585505408618635 8.145451932979167 -0.871027530347158 1.6492274379386178 0.673558322919969
P 4.966081717350893 1.1454291879794718 3.543462330905432 -0.2789510661527647 1.4281997264651984 0.7040796314372778
P 0.5048753433227855 5.482432943542586 3.766525371160087 -0.8576135709340972 -0.11292002263019908 -0.9858095458867604
Ni 0.6550288792065907 9.055006822373967 4.582125892089734 1.5606269658903897 0.6503600304266348 -0.15705377972461984
Ni 2.0662667299624613 6.696708356891339 4.687948047091729 0.16335555357293158 0.2113261679149393 -0.4092635732277984
Ni 6.271320512143549 5.674583674804511 8.935015353970433 -1.1303358825683307 0.6280680517976538 1.4817126107816738
Ni 8.849184821955168 2.295866033938103 9.892406984832457 0.011638869790508988 1.1010137365654458 0.3367936881928458
Ni 2.2040136117660154 5.532763534970807 6.848817782377149 0.902565453054439 -0.6984759120972551 -0.31503212814603804
Ni 0.4898287825904768 0.04566947789617031 8.674841213605005 1.8418223479926408 1.3599757611907932 0.2082516427546736
Ni 1.5216204218196827 1.240892204129287 11.161184223556564 1.2451726626052684 1.4375608559651243 0.4582407744574495
Ni 4.275133778356829 7.278630872708697 1.5519739052118395 -0.004433610291321397 0.4080273868278521 -0.8784847579561517
Ni 5.689615720586155 8.025098497993444 7.885862019377974 -0.4333458109879827 -0.458405582170088 0.20800275996866113
Ni 5.229754868010818 3.137352155008574 4.870660431684237 0.7233631622572381 -0.3393467936320027 -1.460587912987917
Ni 0.7958239006496329 7.519615341111594 6.80402010870525 -0.041787882570063516 0.18961191616629927 -0.08117949699380857
Ni 5.335650504950548 4.771000780423626 6.922163642452342 0.2761886729162792 -0.5502700696815684 -1.2618020436318336
Ni 0.8743733705379529 7.3998125670666965 11.182348835993846 0.03572496420543525 0.5396012771138126 -0.4462051834491541
Ni 4.742678482940045 0.4101816195581744 10.445111812147134 -0.3454027700180955 -0.4217257102505511 -1.4575216153577673
Ni 8.387854330625077 7.319617464646819 4.290258356948958 -1.2089530181516017 -0.9689287109710216 1.1888264226050558
Ni 7.418917870878491 6.484399987894462 7.089341401096458 0.34047062282380075 -0.24053415693746316 -1.9420030686793008
Ni 2.82566173318254 5.564487774016318 2.1990295405816846 -1.8881888510723221 -2.0539686978160305 1.626148444631967
Ni 2.1476956031887986 5.364571544149029 11.467696436733133 0.8399662901659792 -0.5153429187870803 -0.4045628253180194
Ni 1.4052468048692095 3.360056857418706 3.755943064941446 -0.8915367060441033 0.9272066486418871 -0.5271625371298276
Ni 1.806467256761054 1.2585006536538323 2.5683452237291333 -0.7212841682410224 0.6657275140216405 0.7272745814965023
Ni 1.2088595223821619 3.720853171710667 8.149275715294776 0.06354532885181315 -1.084706771875306 0.673454450352253
Ni 4.012159159697621 2.7915243835891017 6.848619108989933 -1.9726025387327122 -0.22148022562980568 0.6704161777465616
Ni 4.183426505691384 6.888677651269961 6.015491785133226 0.21723636275178718 0.6693653678845439 -0.01962985841578555
Ni 0.8878060501932824 -0.007552310267482775 -0.258484962981878 1.5786956504666425 -0.4489755471054397 1.9161084603007257
P 0.28837578232161254 5.69618373576172 8.046919004763867 -0.3345473153608303 1.25451348039022 -0.8706758034346941
P 8.446422156555249 1.7452595241788242 7.770055392687823 0.8298793382436225 0.8541019582364129 0.0870503539522888
P 1.9458107831376734 3.2000204545013924 10.28066921451881 -1.1361584027873786 1.2131146057284592 1.1562328049397506
P 4.163241652423937 6.2679004268932905 3.6796769782294927 0.17509186817325328 0.745859029366909 0.967506119591882
P 6.7919990080020165 3.958771356785746 10.371461138107993 0.24798829922266322 -0.8352984523766647 -1.2230866293395064
P 6.463861332704576 7.964743518762739 10.222978635919405 0.014567870511845878 -0.9149044342357662 -0.7123950932815086
P 2.5814749037893465 8.668183387172206 5.691798406292289 0.059915445408709724 -0.14120292873529228 0.864557349241782
P 7.131993583623301 3.953709267741595 1.3913950060134501 0.22532685306940547 1.0143521334111434 1.7216605561983638
Ni 5.690985569055092 2.97757883557205 13.524656361766574 -1.771129866573085 -0.7543094741271074 -0.1823536919419892
Ni 1.387955869890444 1.1938637639771779 6.635858962153633 0.09177295623893872 0.6634400035390445 1.0471205860914161
Ni 7.044205347637199 0.7591772789601153 9.104463795209085 -1.5822609992203975 0.19495826807987715 -0.9651671870460604
Ni 2.9128965866745693 1.8568250637217711 8.96608460586722 0.5630515377169529 -1.076970579573313 -0.4002665119355106
Ni 6.734755671319955 1.9674924906923683 2.3081574755974574 0.09716790200226492 0.6036793385406442 0.36083247430960436
Ni 3.940110573338044 7.135867261081819 10.378511775393141 1.015677022870154 -0.6988780326316802 0.02477926382720894
Ni 8.307804377711841 7.626263941117032 13.165246225263047 -1.2869836851037835 -2.007398820476291 0.30206091269735075
Ni 7.800833438386908 3.8835476249683683 8.300308312878183 -0.34502430363275416 0.12341475151393583 -0.6903365708195723
Ni 3.216077618673698 8.455503072564559 12.30755506896038 -0.477884516830306 0.6387684689342935 0.7444765471970856
Ni 0.05878917892780225 5.251536365851329 10.075265426116024 0.3857176675870583 -1.4715176725265433 0.5110730877671327
Ni 8.486102402933591 2.3511952115013193 5.5047968537785 1.937144969256051 -0.5613384116805881 1.1456830544483625
Ni 4.052465363323358 2.646184368219322 11.09806233185549 -0.42099885938685555 0.739962718487132 0.7152644444095037
Ni 1.1336176468764536 3.5828159908938284 12.727670357879386 -0.8081514596482277 -0.8579776391417352 -2.21172181760052
Ni 3.0214502739546885 8.596697255150868 7.98574937392713 0.950772094666653 -0.11799615160152581 -1.0141269047742147
Ni 5.692364489368194 8.013695189877858 3.4912284665713633 0.19089438242314866 -0.1561199550564408 -0.6022235799307242
Ni 3.3298385445046095 8.77265474457801 3.6419154268920786 0.026712990514812057 -1.1512479501306494 -0.5091455317271167
Ni 3.5094792026628006 4.471856719077987 9.663567901397855 0.8227977488064927 0.8847361381825021 -0.8883565085439087
Ni 7.210065874508534 5.993604146715982 11.187380987952253 0.9048791887892803 2.7772655256117074 0.4224656737403692
Ni 8.006138343688292 8.795715372445807 2.271047282671101 1.0638378988460968 -0.8018954514361868 -0.34518576891128294
Ni 5.011694949813239 0.6131042585817921 1.3960025956649271 -0.5859446402650426 -0.9198329818856351 -0.5946977038673242
Ni 5.790975435443315 5.675690439792659 0.3203558473725799 1.088557513079964 1.4000214642587696 1.3383661533408178
Ni 8.312911825976817 9.182883537725843 10.890839638697592 0.19706245890707352 -1.2642574471508614 1.1368945096224548
Ni -0.10068930557335504 4.8755537844269154 5.982417655675942 1.0149141765622005 0.1668226861859256 -0.6622842926680464
Ni 7.45718290956707 5.945668522147359 2.551322815337656 -0.26584769600158725 0.22514739006874773 -0.8219896510829006
P 8.591190645742625 1.3550432192592998 3.400848404707278 1.5747595486370298 2.6255920363623946 -0.11331777228925001
P 1.847843937998278 3.3052992060378936 1.3702576091086636 1.4508200349678755 0.24714831981987112 2.3232081931079858
P 4.99887643400789 0.9976579183734333 8.140538622179324 -1.3573804896597914 1.042684147586617 0.1779653330663064
P 8.84650862792645 1.6332585361159506 12.33606243206493 -1.161562187572464 1.8654528429273871 -0.2796043834660475
P 6.487774713923897 7.814477492011285 1.2540899230207392 -0.9911908648033317 -1.0081496041448574 -1.0800173368194368
P 1.5884708414726323 3.3154052404378644 6.034491855552704 1.6777988218184072 -0.18858578889463004 -0.6696947261995048
P 7.059563979808788 4.014281971232265 5.873846731891909 -1.3675584586340574 0.9651707865904862 0.3853582273651105
P 2.361591544914575 8.84710736964135 10.009355756703 0.7018779958002687 -2.1314280656457747 -0.2785378898747461
