# total energy = -381173.04366276326 ev
CRYSTAL
PRIMVEC
9.17959674079130 0.00000000000000 0.00000000000000

0.00000000000000 9.17959674079130 0.00000000000000

0.00000000000000 0.00000000000000 13.43526771800244

PRIMCOORD
 96 1
Ni 4.698071752363369 7.0032980027414515 4.870983227784959 0.274518741413024 -0.9093446807598016 -0.13894575726999941
Ni 9.536040560200153 6.8259298330657705 0.46453808666404406 0.3400703020615885 0.5411048582425325 -0.39347957092066427
Ni 4.022058704054386 4.466663296232832 2.4884803775320807 2.052901947114413 0.64080092598329 0.22192168404259843
Ni 7.795974546982958 6.292613617259037 9.413756397137291 -0.6461909866506097 -1.3816799856371045 -1.0361324625110284
Ni 9.081053844022993 4.753140153661598 5.825491474091334 -0.02920618925031099 1.3079597731348183 1.6248376962403437
Ni 3.115454183731477 8.545314214656878 5.855358210291354 0.636738068767826 1.6411022377283222 0.23656463076675385
Ni -0.1403376761205779 2.0699440043912607 10.486334453608377 1.1894874532278223 1.2293989447107794 -1.5669948170899464
Ni 6.5477146127712595 4.279867680627282 1.6181435262688777 -0.8896091500040872 0.08505697767134383 1.044341480684382
Ni 4.954843434496074 6.729801095210283 1.4955068666882863 0.2801296598418982 0.05248624282417412 1.3848568407031892
Ni 2.9870316242778605 5.3208614983341045 8.484962955391131 -0.8948693699617621 -0.6404584550422067 0.06361834818159366
Ni 5.629222514571836 0.6672704003015751 12.323459097838507 -0.9966017514062578 -0.8345854854700402 -0.20645212765208965
Ni 2.3888707365640265 8.676867016624696 9.16790476337671 -0.8072055507951904 -0.5860415708542229 -1.1636499233394282
Ni 8.868766488059853 4.753957137778208 1.3211101325018932 -0.17761334904352635 -0.6270478380632555 1.2297586420430433
Ni 1.7893971665055268 4.359720993328283 0.30800760176032255 -0.28481215291923206 -0.9532979464123001 -1.7222701647579048
Ni 9.184186614248967 2.5812383674367916 7.268627822985565 1.633100193359452 1.5718151212967253 2.350443631785171
Ni 5.738459716680345 3.583475927387133 4.895475310049304 0.5709116571913201 0.860670098372234 -0.6725396518474677
Ni 2.763884805281581 4.788986479227458 11.455312498375562 0.21196714393304786 -0.603036819860639 1.5257322108957336
Ni 0.5980920407377155 8.085104307891502 2.825262343471339 0.7301765856346456 -0.48972650377055654 -1.3623938837139826
Ni 2.2512226823104897 1.3431218877065985 7.217950022844351 1.4446087639508411 0.5641360290303833 1.0733566369698095
Ni 7.091330336205367 5.767953761249642 13.431103214146106 -0.3853790533007169 0.5222275617220554 -1.8400850535865598
Ni 4.01838686532805 6.221783848228008 10.287989069289136 0.8895919236129066 -0.5172815305706897 0.3357799022163508
Ni 7.754427691794461 5.0119956042715 4.0462460237044455 -2.365848910596648 -0.88744325270102 -1.1518675859925194
Ni 4.1074197748448915 4.825438658183162 0.010662101701599376 0.3328305897800397 0.8894654253373713 0.23551433512536857
Ni 0.794204029151662 0.2908371659162919 0.3708896758681969 1.2225963199666494 -3.237986386178533 -0.9790136060108493
P 2.678321783361126 1.8915201810817583 0.47178078855174266 0.22367646195017607 -0.2891434333047343 -0.08352794262132711
Ni 6.921140611239674 2.2988739693815208 3.03066041202419 -0.10770865363258869 -0.19382081204132423 0.6683163577947393
P 2.4061375581746236 5.672706264688475 1.7788158452559069 -0.45997729753258204 1.2481060342019794 -0.23439693369147377
Ni 8.250575720093853 0.37768716731032714 1.765971753391182 -2.1684504085063945 -0.8447395431849064 0.6365519208989489
P 3.97658298142871 8.196599690816708 10.45728653744433 0.8312245394176072 2.5987222085547437 1.0964405153724666
P 0.6048362905183138 5.361885116504098 12.112538583841244 0.31747699014210484 -0.06104004593145616 0.2160479988706408
P 0.3932126194049591 0.9056480063346987 8.551762881420006 -0.06770408821519308 -0.5091848696054844 0.8965981797274107
Ni 3.1042275368257033 0.27380993178258833 12.074785656016735 0.11385076197458457 -0.3274220171699587 0.30418670079110194
Ni 0.9464898684877386 -0.21769781032639676 11.09464246764244 -0.49208729069324925 -0.018179499122504172 -0.2231660979726608
Ni 5.4158427865876115 1.43116340076733 10.088193308672993 -0.8434354796615022 -0.8512477766170695 -0.2661356595556513
Ni 1.8878208035649746 3.5971902450299993 2.5543935545085454 -0.2189188926605327 -0.673244391223976 1.1865517676382662
Ni 4.273809146728827 0.2159389995764816 0.826314258813474 0.18168957599542904 -0.34704287672467976 -0.4894215709356281
Ni 8.506989397950742 7.043724947118415 11.559529378985488 0.09447415722018568 0.49495921292440564 0.12327462639164577
Ni 7.672150965534078 9.393481421650144 5.704507141937594 -1.2779583416767215 -3.1523377976697775 -0.1734301642001142
Ni 4.8437152354435025 2.4547527029113176 0.7969937086239961 -1.4870756748658 0.9363417781739359 0.7675110604190459
Ni -0.05904683855821594 0.8555769775430121 3.8820404779029998 -0.2512901099023866 0.49322320406990533 0.16471232471114217
Ni 2.0768562407935893 4.030907835384857 6.7671161562666775 -0.5980059423049506 -0.24326981070107134 -0.9353750433852922
Ni 7.6518824157647 2.311734584520514 5.86512621926309 -2.1980129526548597 2.435726352314076 -2.469588295168844
Ni 1.2108622567839606 7.515106423208669 5.2358712832549585 0.4425071657722766 -0.6245086165811696 -0.5311806571502852
Ni 4.20306199406914 2.6166440723554905 11.907355317853884 -0.6717899181656366 0.5237085171429562 0.07024073859411774
Ni 3.4532633465544276 3.552393812568695 4.743441909625663 -1.5263150799823972 0.4351152441835797 0.8531491074048403
Ni 8.454215895856471 7.30736296766937 6.75961917954718 0.5396197890565739 0.2554918066885599 -0.37529750069499884
Ni 6.512501679385694 8.100783059252958 3.796188298682846 -0.6901995310210758 0.8515012873887723 -0.6670364626410512
Ni 0.557703650667378 2.2436862333246843 1.1308877734049902 -1.1806240892999218 2.461355622846406 1.4577046779028509
Ni 8.45360086286981 7.183484308639596 4.425147651673509 -1.9855729828504514 0.07284680875839712 0.2750249916254812
Ni 0.757101016781714 5.573933802950026 3.569078647741167 0.8338727756737316 -0.44651397293882455 -0.3769967427742927
Ni 1.5991041245131419 6.963137266672147 7.3931453819537225 0.8683738947743948 0.10791871276086575 0.3235028846212106
Ni 1.1824789434293803 2.0094596409716843 12.234853957533282 1.7163268026902765 0.9339797056996625 0.15578391187326074
Ni 1.2444779403235706 6.336996967863629 9.775917194393303 0.5553210018419146 1.0643693458695347 2.21786829681789
Ni 7.042448983161013 2.140278075194235 0.5616866777257715 1.1968294954151906 -1.3418461414696181 0.17185407796224597
Ni 5.691662132113187 5.607375074150134 8.607465592858212 0.4051508366110054 -0.1711341690770859 -0.31269345271053245
Ni 6.890242088357553 3.0793691886484056 9.519989117207974 0.03407945818221227 0.2465186566556722 -1.4711461481197372
P 5.9722456883861845 0.47403896936843953 2.1687072865328947 0.5726479231561364 0.15545558199956455 0.12551637123797094
Ni 6.233047213521045 7.489128164219839 10.572856743396086 -1.3474274922121374 0.6149302288641152 0.6583497335003307
P 2.6683619208159386 1.358268222452736 4.733245213482626 -0.2191685467774935 0.1630094830874225 -0.004773253018927263
Ni 0.6442736743585301 0.5020936531570129 6.145438977430022 -0.5054079190615554 -1.3257528354521813 -0.7461264240956827
P 2.649653902505255 5.69834487859512 5.397498280310835 -0.26131201291476286 0.6067430650676324 -0.27548984707704166
P 7.388694195457721 4.158127867655598 7.778966590002567 0.9019604724805886 0.5032813596368558 -0.8357756491233993
P 8.453793634402942 0.45114138307100565 12.357396985226352 -1.462751496298139 0.035797983535215766 -0.7642452451835805
Ni 4.393079648157049 7.302020442322551 12.830573072494103 0.8520242497717778 0.5403389266107856 -1.4521269267047572
Ni 6.96617571321819 1.3366961699355098 7.880482833229272 0.27997050855621464 -0.16831958244642622 0.29970372531908385
Ni 5.5864455934100175 1.0542399759120809 5.035376955321129 -1.0916590348234232 -0.27435264814880495 0.02295789434775401
Ni 2.8138034527661246 1.733484242300239 10.10842697597447 -0.10711035792695747 0.039634326562170454 -1.0183013478668785
Ni 7.7028567168830655 6.862427910005554 2.022356974497941 -0.512483080740782 -0.057341256923630284 0.5081955091090216
Ni 6.877546705961245 8.23554872010632 -0.19883649274888818 0.9437339568729489 -0.423658922717522 0.7114892936377876
Ni 4.159706758307923 8.677023069770565 3.018286315516436 1.5339890515878873 -0.22710271402290563 1.520664052344207
Ni 7.711623231842194 0.37840592974100756 10.049970385491513 -1.3541938644016935 -1.189578213169416 0.47214272925052236
Ni 4.45823642635589 0.5202463058603386 8.204474866925018 -0.3666951037379685 0.2727354242603561 -0.9613683821252603
Ni -0.2375780631504637 7.980961782015786 8.808322514866266 2.0729177281147075 2.127422286920491 0.32713045407146885
Ni 8.438665658850436 3.5379267679869293 12.774977762338644 1.539418964354207 1.4198282145720513 0.5465198586105169
Ni 0.4526275597954903 5.052422548648464 8.216714023359579 -1.8133157559125157 -1.1930949680734226 -0.9169528321243627
Ni 2.4197692594461473 7.9919864777916105 1.0530815107939215 1.0257236084728787 -1.9690801274017509 0.16250811797097173
Ni 4.4613024116923805 5.28573118131988 6.6256962056815105 -0.2563004186327844 -1.6282904306756343 -1.4581584776108178
Ni 1.6196297029933626 3.8079996859057887 9.973765044565127 -0.8024544092634504 -0.9687541330663704 -1.4668783739823188
Ni 6.892683861110567 5.729720740511664 6.3637756876948 -0.949320449821791 -0.5883843600547867 -0.4586362101236553
Ni 2.350362327921573 0.6979541206182054 2.614677802717537 -2.3387847073900043 0.6328194504397102 -0.5439770375840051
Ni 8.555999265350517 4.4643683970288714 10.588374851813265 0.6275810848589062 -0.07423906112023343 -0.176854873610947
Ni 0.6699682838057508 2.918863938323425 4.8647759844180865 2.1727878595394836 -1.356156130334387 0.1926278201744876
Ni 6.200689134745205 4.915527221333827 10.796406546692582 -0.016142928308449617 0.6521387195936124 2.068121849387961
Ni 2.6837469250792885 6.93560765582144 3.438850461593875 0.7116497304750518 0.26303773735661795 0.2989938437362528
Ni 4.126091074768313 7.221882562120258 7.7843944855997735 -0.5288324686330828 1.1908894757816717 0.7736745089172805
Ni 6.974272117609762 2.3415866333656288 11.626746058709804 -0.3417978262756565 -0.552740642709248 -0.31782743150298814
Ni 2.2445674746190054 6.970306531785318 12.073751115455591 -1.0674168744466068 0.9621394559633301 -0.003954356662057706
Ni 4.328813290849347 3.8587261379101263 9.737627260155069 -0.03882494328699765 -1.7844888043784946 -0.07513689034415447
P 8.850875453865779 3.3916957907105814 3.093591137995188 0.14052724282450638 -0.5066515616606693 -1.1214694333166364
Ni 5.280911892991564 2.975860054952982 7.215410946365091 2.052692659317084 0.05828793710761575 -0.356902800237895
P 5.3060089106860735 8.387700537328888 6.460200926527439 0.2871310308603958 1.4934311847701829 -1.70102642488778
Ni 4.106951615407285 2.1641083085281583 3.0679699653224946 1.3068583125405235 -0.9115396315285914 0.10503290657263847
P 5.855196649387396 3.8400181195994425 12.788131206616061 1.3376495868897673 0.6376330697782696 0.04736923331258294
P 3.417233429052251 2.9030658522033623 7.949137037814947 -0.49307767963097665 0.2961257781598384 2.3638303375047225
P 5.774388658617546 5.639935104055923 3.3075207238286826 0.2085015539819506 0.3931214162502971 0.26909217108081396
Ni 6.526078303076323 8.230105219194527 8.093942423705794 0.8450732723752414 -1.1627775480368039 1.1132326472291407
