# total energy = -340863.6246236026 ev
CRYSTAL
PRIMVEC
9.30566069523483 0.00000000000000 0.00000000000000
0.00000000000000 9.30566069523483 0.00000000000000
0.00000000000000 0.00000000000000 13.61977505807832
PRIMCOORD
 96 1
Ni 1.8323776258865276 5.699614746339004 6.337185567390638 -0.9005239971443781 1.7121955541307223 0.42672856278178123
Ni 1.7437132918280904 3.013461373056016 1.0743329311971157 0.5458369736108794 -0.35865706392484037 0.5079198868501317
Ni 5.3898293054484325 1.6482186028999124 4.852017957571301 1.7921216383334042 1.2959799750651229 -0.8512439199623274
Ni 4.6368990018168 2.665150497341564 0.6204093217998953 0.04952793152679857 -0.2253911306484376 0.7868843227393351
Ni 3.9720188586449625 4.513961919822046 8.915749684682503 1.1669846441396161 -0.16076670979983282 2.437080038128493
Ni 3.4158939707356093 1.8792781552373379 9.712615734202414 0.269779941176458 0.8071865246317971 3.5385645436827704
Ni 9.048787130676734 0.8282754456940747 11.926946059952012 -0.4892467359206606 0.1695398280067725 -0.14356782942304305
Ni 1.641751168793005 7.971452193374744 13.406093837938606 -1.9558574580638899 -0.6170711864665179 0.17465966573184113
Ni 7.143583405048254 4.930632178197421 0.9432934105305864 1.567557888682268 -0.9995441218640333 1.3444581251711685
Ni 6.212840538949303 3.188203067530127 2.8550864744196445 -0.0362011325109054 2.296803220751896 -0.1866165809834012
Ni 0.5169722515620115 4.717625607395824 11.19485578320156 0.9273470308744932 0.2800887793016338 0.6457099332491332
Ni 8.775796271741145 5.56149082626875 4.893612399256272 -1.2418016892505064 0.8242046564563483 -0.23226754605329675
Ni 7.600779815273388 2.0311279246711726 6.874377158272777 0.11853222661065395 0.7054528576357206 0.5208553639648772
Ni 5.78531988033126 5.756565389122131 11.255259756627957 0.12084441968359833 0.9478924591260127 -1.148225361254242
Ni 2.5487646003989877 1.8372258750515618 7.769278342060701 -0.09016010322586408 -0.0774475407552021 -2.85547411290265
Ni 4.011716806702613 7.243209807276385 10.606372321738322 -0.709962572580616 0.6108100360481545 -0.9647049026976611
Ni 5.1611426965603036 0.47028947466890114 10.819903731796941 -0.2832774614422605 -0.31710983661067327 1.262105433804865
Ni 0.9858044597832267 3.9279565557727225 5.233085689112695 0.22374176797047274 -2.762602267172578 1.1654203849762896
Ni 1.3003916215359055 1.3328404599974681 5.448808582239193 -1.3545175662896995 1.2898512364595656 -0.3444931137196325
Ni 8.006953288508344 6.795877397271859 2.134545453021827 0.3599701263093091 0.6725154834777514 0.5221547995025911
Ni 7.103578370191283 1.5846609411010957 9.208683504818833 -0.8646056859812141 0.034686752748908 0.2822014547692624
Ni 7.936444298252175 8.485413133171294 7.655825589334667 -0.019484848197489024 0.3431193733005574 1.4869702596361876
Ni 2.2242762157833598 4.666574753423889 12.855269454298742 -3.179713618579569 0.9486537627720694 -3.557116595653345
Ni 7.974523061367951 6.27952490270484 9.263639944538491 -0.5661702858515927 0.7816120185968023 -2.1006948982279754
P 3.4503621375442215 8.270805988748995 12.4682088773403 0.6528190334900886 1.7184402494888535 -0.343812285602524
P 0.3843582131244191 2.428991443003296 7.1651315926999875 0.21719034000520013 0.8940142210503185 -0.6864050969756501
P 7.403704535394128 0.6632721250226667 5.180581290957309 0.011997281571192241 -2.4056174487438375 -0.2642348429885127
P 8.191140228476716 2.990699727263936 1.7124146330148928 0.020573453275977472 0.20049179630359665 -0.1446335516833961
P 0.4922024442155854 2.5580888723056363 3.3952195846128523 0.8056464338381868 -0.16091017735623256 -0.2959738259630064
P 1.1618210297575484 2.45007806988999 12.200322173235842 0.012094983491321104 0.5226124558652999 0.44844949939864065
P 6.311806239275864 8.848557231859 1.2083725968364036 0.5318985091529161 -0.8662643046305596 -1.2842632008488268
P 2.098500907310035 8.758348158143372 4.777068306083742 -0.17103132495063447 0.2054681664722655 -0.19806621758123955
Ni 7.048795946324573 6.512724756976925 6.778970873120161 -1.6736323491455436 -1.1492067513309048 0.8954134153906903
Ni 5.7742926725374675 8.315231212384068 3.247553640178249 0.784772675712971 -1.2731069271216915 0.48589864538403416
Ni 6.23080976953986 6.915920418824529 -0.09774014482745398 1.6077478306375923 0.3713593419828572 0.2619748433097424
Ni 1.0700206880818053 7.1018009890194564 3.7736994119454246 0.14931604476072996 0.29348859764730745 -0.5801773987639621
Ni 8.524980801980748 6.1923587800006645 13.066131070335386 0.5088632246000074 0.7018615407400364 -0.11649488446565098
Ni 0.8967930245849515 4.639914035846495 3.1141207036091343 0.41577694886628386 0.6121416103753845 -1.0406329214845433
Ni 1.5990009640633178 9.039323273861303 10.774890390412866 3.6728090388223587 2.5989302108004915 -0.5067770314949401
Ni 5.054034543221449 5.349805659270291 1.8284822763654465 0.6920810643145049 0.044430719509549285 -0.395776337374641
Ni 3.609516850537656 8.600207762153754 3.0259328193726738 -2.132480932390321 0.8030743022356363 2.044155054159718
Ni 6.434603736361835 4.015736852075539 7.9972865682921475 -0.04513443044479323 -0.7213083366107385 -2.0168373401813717
Ni 2.3357021956338766 1.5905328129305325 3.2662124202181917 1.025138682503686 -0.9059945333406461 -0.4033718903337117
Ni 1.9800026254145549 9.040039809726386 7.095004134527823 -0.6172398508338983 -2.0423054025454888 0.6515599642720069
Ni 4.42667482353026 7.599309520900882 1.2006340094935197 -0.2799849067339178 0.8789840661900733 -0.8629820343348623
Ni 9.352188888405667 7.803196544328711 11.151517460722872 -2.2792999217608103 -3.6208758402881767 0.9299153058223016
Ni 6.022214081855779 7.9723548424515345 9.284301302736429 1.4601680518416789 -0.38955323928306457 0.7839900319106756
Ni 2.9894992970484093 1.3425183470063655 12.616882624816311 -1.2914039256586662 0.8244566245661543 -1.6682538584424496
Ni 9.304981272255537 3.854283640917491 13.432353481544768 -1.4834144239641291 -0.09698998166350394 0.9433323505591561
Ni 3.5891002312131164 0.838921121403862 5.831551332685974 0.21961411895534436 -1.596032341972877 -0.1810426864400495
Ni 3.4831366741262757 3.248168744342949 5.438511868801362 -1.8160755780458402 1.3236638141336363 -1.4485307247130668
Ni 8.61297512847703 4.463590379072852 7.224092258169578 0.4643155198966197 -1.2304284144165583 -0.4999792918468164
Ni 0.4550160939499557 1.1181681759510698 0.793443427556571 -0.30061183895565 0.4228515963248782 0.5264865941087256
Ni 6.049991478703432 4.093504257588381 12.811495626904652 0.4147294814383761 -0.008059379969366764 0.6225090696526376
Ni 0.049774117339606204 0.8398535485945269 8.811544897446318 1.821681868489024 0.7372049532363368 -0.8747959962506547
Ni 6.390076150460322 4.546280479035412 5.418069193627183 0.07478824875548411 -1.116212298682755 0.36927957663569305
P 8.086172377072518 9.04237553053334 9.991057849108977 -0.7463362261136436 -0.6583546185963371 -0.6392988875164668
P -0.1107978477609971 6.477688944872599 7.015845532757453 -0.07309569154440959 1.7746836453626147 -0.2053236704746012
P 2.8376309162934037 5.313885809410345 4.488478368308714 -1.0709313153577684 -0.9653543633562021 -0.9908221686100032
P 4.971735281003479 0.8215874674312916 8.831307328831697 1.0762568413357398 -0.6108442317201996 -2.7733463930629587
P 3.356970527908361 4.4252882801030236 0.7187078062624779 3.0190836914679164 0.803767471647919 2.279222017335023
P 2.5971726467646454 8.27869718892548 8.988519950460944 -1.6942019457667787 -0.5401640915958181 1.2522298265623661
P 0.49289106309891084 8.363118141756939 1.8673799376127456 0.6656598940084988 -0.7579943791778623 -0.7156925330858577
P 6.735641856302057 5.383110618505717 3.475276182629722 0.851262689015405 0.4605545101922907 -0.7099815987440095
Ni 5.989476767916067 0.27618549221458544 6.716333541153248 -1.4488737098747821 -1.1210655130099982 1.0943851755053347
Ni 2.1823821318275365 4.079824936527728 7.979512756573885 -2.90442483176974 0.364046867481844 -1.0398065689285059
Ni 5.9458053027884175 3.674349387836683 10.087608730513608 0.038530294864714286 -1.1023787352337724 2.3851249852174408
Ni 8.373698677842627 8.77067815841913 13.807046835585108 -1.5621865970680258 -1.9712074581573984 -0.016061938558869112
Ni 4.131210794280739 6.313202088363686 12.832620406999746 -1.150705190253302 -1.6209350187518279 0.44257350023383774
Ni 4.3252245118273756 8.03217162869499 7.895655726773906 -0.17132880158639527 0.0015627165014295667 -2.105685923684664
Ni 8.616427528554244 3.8071504700520435 9.580830830122986 -0.7473276434926355 -1.0279190734623005 -2.089464833840111
Ni 4.078680340275715 3.880711716980249 11.81228077965169 -0.3256302153768585 -0.7097188320009261 -1.6212065272456595
Ni 6.93493188340066 8.341119560132867 11.54435313064066 -0.31175011496065663 -0.6492110044238562 1.5044221365640478
Ni 8.003547416734058 2.4792327045042932 4.463771839454269 -0.08977212375882604 1.6111013204908575 0.013658471323699059
Ni 1.1073643040113295 6.479010348675737 8.90459498933869 0.811659729911802 0.08477518476486691 -0.04947290991914706
Ni 6.76391245316074 0.9923835618171599 2.690681507723882 0.12174250601783551 0.8277769471886389 -0.458647522977565
Ni 3.3777965962986616 3.69462642225244 2.696483587098928 0.7652487467474304 -0.3528052331297537 1.9786484878164763
Ni 7.86709851556919 3.100767080668973 11.674340181094971 0.21875768449232003 -0.7062912943766159 -0.18482220808713976
Ni 4.982948602008981 0.5063275064182828 13.21607131821708 1.1350245462932516 -2.498749490113832 1.2926755932822382
Ni 2.744974453843797 0.2779023865926062 1.0322676230865198 0.40308778343438967 0.3078137560207279 0.8973417427616546
Ni 8.715523508129001 9.381501719249925 3.5122671140230564 1.39317230254742 -0.21590298865234428 0.30536632292149984
Ni -0.019968086484319286 8.490624303099162 5.839982261176417 0.9625433762699682 -0.306698154359046 -0.7610737894341344
Ni 4.796025797828478 6.1568949075094075 4.257541650691016 0.19497086648536743 -0.38183504470320045 -1.2232622356854224
Ni 2.9043059743883557 6.065169011118348 2.3007613012675225 0.9085679504947772 0.9653741608505438 1.8875476179438975
Ni 7.392156210607549 7.5863839583476524 4.798627660528178 -0.5843199601774259 0.3605272843643597 -0.7181687625404921
Ni 1.1545905314826317 5.766531751609179 1.118134675572962 -2.251725097466335 0.5447596813863005 -1.6713157851972247
Ni 4.125013224330811 5.7171186939002885 6.716401472475523 1.179845302152368 -0.15178636067809342 -0.5331208115957915
Ni 7.20516826680295 1.8096066744338621 0.21542138972352937 0.12269561395972417 -0.8500262455051425 0.4360570392715587
P 4.88682112816099 7.7018206779105105 5.587172588352553 0.90619019429122 1.6925664670458853 1.5537415516244661
P 2.3854502571238436 5.595298291175793 10.550708651814167 1.6611437297602294 -0.540413745712779 0.004892809315927058
P 5.523421368813559 5.822868220793664 8.514824604017758 0.6610342223110293 2.7051923617945413 0.3868332692487403
P 4.854335067057085 2.8358349238004066 6.814218854285836 2.0460034202223665 -0.4553788795286221 1.3038933163749287
P 5.9898955226424135 1.9881543840874338 12.08426755781011 -0.40138622736225066 1.819358876782802 -1.192051871520889
P 7.868987564668042 5.542479361692618 11.117400117318331 -0.1747260001934023 -0.744473461873292 1.9544937449471436
P 1.3306815467416373 2.54707097017243 9.373047526608017 -0.785494384370344 0.9974990664095466 1.4821959781759957
P 4.6170500277879745 1.6061197944112087 2.8306526014203537 -1.5726993236738913 -0.15446313617930815 -0.6239077497723771
