# total energy = -340869.3600963701 ev
CRYSTAL
PRIMVEC
9.25162000653027 0.00000000000000 0.00000000000000

0.00000000000000 9.25162000653027 0.00000000000000

0.00000000000000 0.00000000000000 13.54068104763446

PRIMCOORD
 96 1
Ni 2.429308869870234 2.950665408946779 13.393439754652155 1.405549078945218 1.05307886055738 -2.9934955585861673
Ni 8.580100368111953 6.271562145076941 10.03770696875998 -1.4583716220628884 -0.020773227991609383 0.7561077036781106
Ni 3.394604392276646 7.108056614531004 1.7668965820547675 0.5735812336036832 -0.05730757547221743 0.2883132240939551
Ni 2.1461260348021107 4.493835616707992 8.585509790297072 0.7185035201720916 0.4983322431616966 -0.7366107712957637
Ni 3.0214217983290195 7.9524242125630344 12.226165640970082 -1.3538123126925588 -0.28011680432609176 1.6808558634771762
Ni 6.771371661288522 6.3328541272497105 4.319896835178629 1.6541457011758416 -0.17094210767093787 -1.4439317924884745
Ni 9.28307545843886 3.232062681364435 3.2337177961735986 -0.7594491093465179 1.132323859532637 -0.3161441302632942
Ni 4.074764987805357 8.295307751172423 6.2466549338459165 -0.7953774478120108 0.027730633146049014 -0.2554028465191795
Ni 7.481128189039223 7.961601819554036 13.11160395544884 0.01400788424331781 0.13279207896377776 0.46113866483053484
Ni 5.614465838085093 4.949598170334735 2.553934666738873 -1.1894774259254934 -0.8524549095512931 -0.3734280515864279
Ni 6.363597260345577 3.21750063156218 13.478122607546045 -1.002072544712842 0.21323444068124567 -0.4049037535972058
Ni 2.585346691957168 3.8507740171812155 11.008586768968577 1.268263482986461 -0.8784413063127258 -0.5695006357764063
Ni 8.808189806374212 1.3329456476235755 7.495593096831997 0.21943748416816403 -0.5439826940109599 -0.2528271153722033
Ni 0.18358174500388078 3.9799636381714882 9.936503498120292 -0.18729586643861293 0.224846056778245 0.9351829819791443
Ni 3.3721599622764735 1.1190019362657933 4.823759486090571 -1.566310132318096 0.06115188891897211 -1.2177518473901543
Ni 4.59000620609455 5.085004879931816 7.4727767517098105 -1.5526848282251775 1.5169727195355487 0.3848866870453307
Ni 0.8184158789085834 4.307572752242426 12.314490856638525 -1.0857904918577883 0.8968439771896296 0.04903710793330909
Ni 8.70097278276663 3.004371062760051 0.2562846752237292 0.7454273411461292 -0.027061117882850167 -0.1482428663012092
Ni 5.935478547131248 7.283393315834904 9.542646309069044 -0.4659998495775781 -1.4242422844793472 0.46832412683538055
Ni 4.091547426395757 5.649547980937793 12.03624376081405 -1.5303725378812225 1.032580997714344 -0.09304668074503976
Ni 4.4704197666130066 5.799590753296735 4.464308146473636 -1.0864625782241484 -0.1864944535832401 0.8949992106714071
Ni 9.255690663385064 6.4459644327658285 5.812011978242419 -0.8614434862031486 -0.044253570501736686 0.9067967175269673
Ni 7.039576123656612 1.728526413471621 6.05612337193514 -1.093760654547458 -0.34798184359918133 0.55014511406793
Ni 3.614210095044199 5.1394229084812855 0.8268052478797936 -0.15499509742337825 -1.669214936804138 -0.5535127449885822
P 3.678471847221114 6.898479667789908 9.180676678501554 0.3396118743679312 -0.30698971745753584 0.3361696814556017
P 2.8205783808212965 0.5594732132730448 10.168469365141856 -2.451286154425546 1.1361206075709078 -0.06273003203936939
P 8.734010317610247 8.981250609170264 5.872836753607683 -0.4111713317734725 0.23060429941826094 -0.6732451625549245
P 8.25119602724793 4.562963720978926 1.692625502253291 0.24229484838231177 -0.8188984137520865 0.40894192822232145
P 1.8499446737033844 0.7830867178032013 -0.133316768650239 0.5274469011394658 -0.21801643545092128 0.5492755669787831
P 1.1449989883269984 1.364299387636182 3.6750357955714588 1.2638877225162684 -0.7549265388858161 -0.683677413631842
P 4.706308320493628 3.58052494680404 11.96871618679457 -0.6949187908736161 -0.23458153889845407 -0.6206033679894924
P 5.903282909703136 1.5649670243648433 8.174265106710655 0.09984287773126675 0.4740612864294739 -0.7445991888178789
Ni 2.0897929209228656 8.073241117498009 8.259679762742637 1.1765208657648254 0.5812603474154958 -1.491924261207353
Ni 8.266840516584407 5.742304722562578 13.23142538607713 0.12986616356623443 -1.0784466498982073 -0.10794776622658829
Ni 9.076977120799192 4.410386004753519 7.301649537483437 -0.3020408580926927 0.08968650602355521 0.011239320359245158
Ni 5.898453564088919 0.6807221688597123 12.645208515012866 1.202819394450038 -0.03301425014249153 -0.2847483895608322
Ni 7.236163795987057 3.1840375222008355 8.872896561470752 1.7380724218974841 -1.7206177167561465 -0.6428387823489252
Ni 7.8367419567006475 1.0873428927948168 3.769183980836814 -5.270761480636084e-05 1.265028778099247 1.0063135793773832
Ni 7.53550921110889 6.737334951490239 7.679692007391117 -0.2842969038457104 -3.646994905972732 -1.2797732833982733
Ni 3.91198273477443 1.1686276256808483 0.8141601337313042 -0.45049121241901774 -1.797013933428699 0.04575586607887604
Ni 1.6461869959112205 6.041011775907819 10.534392212914241 1.601535016958661 0.26238082049890943 -0.37411273635827824
Ni 1.256601279791168 4.767156224908769 1.3014651604176457 -1.4785367841568535 0.8598296047488095 -1.1586699536263336
Ni 3.8507647655612645 3.1077671673280327 3.5945494774871647 0.7231122225886967 -0.7080555853658903 1.2482795836653662
Ni 4.464248936105951 8.777585447577605 10.73815266619239 2.657833412894603 -1.065679580040526 -0.6265595855729273
Ni 6.075400047264224 2.4063741040126794 10.70978534909984 -0.6041768470023531 1.7483910302146728 1.116276062041155
Ni 6.242447297092381 8.551189055766306 7.531245139473655 -1.1620378416573018 1.7642020291050005 -0.8325502002075662
Ni 7.05905078365264 9.011133341610725 2.133388404454115 0.020532829846029152 -1.4269694536025233 0.208322348091609
Ni 4.082434580744409 0.34979819936047263 8.421220448376193 0.18420128667368924 -1.8199605149225433 -1.3242623669495839
Ni 9.205657902692183 1.0292612227449074 1.9060677758097504 -0.20635211173911558 -0.7663882596685123 -0.7847634197415905
Ni 6.322797616363401 5.265920308065931 11.414293432852563 -0.5800982087865945 0.7898094668059301 -0.9875861781712088
Ni 7.247608049865957 6.349451533441099 1.736456902093281 2.5022073667554454 2.499453201049076 0.998415407576229
Ni 8.835361814169145 1.6058961910263279 9.768734621935987 0.08570232456482658 -0.2926943838807863 0.34809754324143916
Ni 5.757495882521473 5.810563174558155 0.19006620542726108 -0.21366201513696753 0.4340654627628266 -0.7364009692778027
Ni 2.4589325569520772 6.250783006667877 6.403022113603092 0.1567357342635688 -0.5330791597245786 0.541323659121558
Ni 2.0184259246238847 8.934696457578811 2.086009933525063 -0.9281394448688016 1.1039496792653183 0.26791846248768697
Ni 0.9717809079917873 8.441548107731666 10.281479753162508 1.0756845137720377 1.2578983377020532 -1.1558620518638931
P 5.558752582742538 7.292589426065808 2.545309381458922 -0.8082041672630339 -0.8095246858466704 1.79988354166701
P 0.9354960545455074 2.7539759687968783 8.348087317828641 -0.27592102107718935 -0.39240227869608546 0.11283260512271535
P 8.358339037895908 4.318267624905327 5.057945741900282 -0.47211881799112243 0.16355969916393767 0.49717678940101473
P 7.261735273530534 1.3256461194825466 0.7529486406521045 -0.40600701396371364 0.6308245314968685 -0.3069179836793359
P 8.371430080126016 9.148066568499654 10.948371675358059 -0.7465475707935014 -0.45209558079166007 1.43817612095162
P 5.559242918599921 7.630440083422066 12.294220557326744 -1.2195701315458156 -0.8997894329711987 -0.7603978464130323
P 5.707305844289431 7.054804290095311 5.9584410678486535 0.39202304097979584 -1.5134233116213935 1.4618606090527533
P 6.4823603056515156 5.00912309309694 8.64644280961576 -0.741180392944317 2.57061465168525 0.16916701804838608
Ni 1.4082723372614159 4.205730919826146 5.313322833206856 -0.23466638530277648 1.5587832278134315 -0.9153754603349139
Ni 6.410206921656734 4.874983855433091 6.2524362711530515 2.457278624563555 1.5571878583018537 1.3213670476796597
Ni 6.54950856325302 0.4118534401791677 9.84978898948525 0.02087067280142212 -1.28781209454235 -0.007648517684193278
Ni 4.2108470656588315 9.047742001755275 2.9832422131168554 1.1092199265253218 0.10885536564252221 0.5057737870414064
Ni 8.71012263489778 7.985480250646553 3.7775789007799943 0.033117865599891355 0.840923511872926 0.04121066991035483
Ni 4.32701040575865 4.860505070210391 9.669495270211813 1.030002952574523 0.2869052880028349 1.5343937432254735
Ni 0.255427050054308 7.4595071532146555 1.2321353708317886 -0.18562182117029968 -0.24920288835605467 0.22958974211081748
Ni 2.5552419206378936 4.790692346063112 3.1608955200563873 -0.42449196014177865 1.2358554989694006 0.18863695384753965
Ni 4.6213969525869585 2.505560721503135 6.648704432363426 -0.008627079547378692 -0.19787672727825276 0.070411202733711
Ni 6.490122414790076 8.78053671434185 4.916336746288313 0.9729288332693501 -1.2369045090592052 0.33389476937849594
Ni 3.8415964101902134 1.4250917823316192 11.996109308306323 -1.2034320883333725 1.2669393648583986 -0.8933483053315454
Ni 1.8209593483981334 2.509242866243477 1.78401207896339 0.007962963600818542 -1.5537592922362788 3.5190717250654813
Ni 8.250011819894253 8.513470201227683 8.613322010192586 2.197776668274338 1.6172740249604727 1.6578529748240998
Ni 3.7033402016483454 2.4402812911316536 9.144888637046622 -0.32309793587330804 1.3068043193741365 0.6894096881299289
Ni 5.9707364707630095 2.560811395848159 2.490050380655943 0.3580556828954156 -1.4820985333661831 -0.681428469696665
Ni 0.16093933033676572 5.763222635270899 3.5680916947524195 -0.2242559886027299 -1.144128565477049 -1.3558319142257487
Ni 2.1649345781616938 2.485077634932492 6.559837071765878 0.3128299782883967 0.6285940995044529 1.200175786179604
Ni 0.42736470618835504 7.384615289714493 12.13159743215897 -0.2163976689005757 -0.30328012981643254 2.0091672252306236
Ni 5.1985777664454655 8.473910274318888 0.8532528538325933 -0.36652823914280097 -0.578935555937061 -1.9096927865823692
Ni 9.393724833048118 2.1471807194764794 5.3502886058815005 -0.7351105326011533 0.3347144370663139 0.6707655906661804
Ni 0.9637134953948582 2.0674502587421504 11.707543880750936 0.7771069316375971 -0.9061724536794071 -0.7092850868976172
Ni 8.975116785143012 0.5689524230744365 13.05547807785649 -0.3802111359465323 -0.8828641179707698 -0.3428699762939127
Ni 5.967877720198272 3.4322862403354675 4.791478733758915 -0.10426440383773011 -1.196483167819365 -2.4175900477246812
Ni 1.5452055641503473 8.072399220082504 5.1786470015858725 0.848155767955307 1.548428881162301 -0.23323505217288865
P 2.053184260778315 6.888006834005822 3.4062799366543115 -0.5780063592545722 0.6561074744333733 0.03159371564588107
P 7.987774652394304 4.151137110497616 11.59576488334571 1.3000610871130318 -1.3415514930473347 0.453199098268484
P 0.4517390241102237 6.755588397652787 8.32865614044638 -0.14286051894337332 -1.1305438848140787 -1.036733586430137
P 5.394906393417291 1.1603844323048575 4.379827904056665 0.8535067478545751 2.7056890989253017 -0.543840769116457
P 3.972775129469867 3.0651634574554887 1.4814045426469726 1.0997310131982803 2.3045034176096313 0.7788195434533297
P 3.501719648064771 4.271028853437529 5.918008713178516 -0.6217590788604904 -0.2932065476305144 -1.4375408013604662
P 1.9657101941453272 5.938439065515442 12.980015389405375 0.6022822010828014 1.401193887300316 0.13554110246382464
P 2.4342862414036603 0.4667377503741475 6.531645535452388 -0.3699174673300081 -2.432737701999397 2.171304075905106
