# total energy = -381172.6722696872 ev
CRYSTAL
PRIMVEC
9.17138308287920 0.00000000000000 0.00000000000000

0.00000000000000 9.17138308287920 0.00000000000000

0.00000000000000 0.00000000000000 13.42324619940470

PRIMCOORD
 96 1
Ni 8.174829629724949 8.798740467497392 6.679461323315067 3.139836322768657 0.5660579286434445 1.7636471850427946
Ni 8.512437406658584 0.19940787615663555 4.510425592476025 0.98988397306645 -0.7250780880658156 -2.210772823423689
Ni 0.2842110683931104 0.1569122733633942 12.956975784185511 -0.022380938798361453 0.5164456649329557 -1.7740161869819446
Ni 2.237945833600949 3.712722551062651 0.6602827081851861 0.14119110166075038 0.15799068971659241 -0.05855121807133142
Ni 2.4869213659259994 6.292063942746177 0.6543433206015229 0.7531007985309869 -0.31391575515340775 -2.1017665340255998
Ni 4.7286091237612515 7.798757072794579 12.881980468851399 0.5074416616621326 -0.42170668408715767 -0.5883599345747546
Ni 5.34003770936976 8.066524768737489 10.06934018968031 0.15791818460744417 0.42397054042066984 0.689801781362025
Ni 2.204268515492223 3.57655502874232 8.449705147436449 0.8990283864354581 -0.3353289307218612 0.2440100313012056
Ni 3.067946817130797 -0.25141695446027496 1.5320088983423894 0.8985133944722526 1.0646750500354114 0.3728215283506805
Ni 0.31287347431723644 4.7390828430641285 8.4197981848491 -0.6558382799323866 0.9544564854967755 -0.3288870317512594
Ni -0.11651049729243558 7.285040400892599 0.5866163262372259 -0.09954977197088016 -0.5084639322790598 0.6964097735968459
Ni 2.4724305809010034 2.7454626506441335 10.729509172717197 -1.0946428000420956 -0.6099446027240656 0.39037316408119865
Ni 1.7879702730430984 5.10978096959915 10.469728834165597 -1.4419073058592782 -0.1669144745687835 -0.13569434021223728
Ni 2.6223368348462994 6.102390572428484 8.463114626414326 0.09569414567021585 -0.04150943209769625 -0.6178908541543359
Ni 0.8185046550305863 7.255646118610881 11.760669766542778 0.09741369946448385 1.2838309984074145 -0.8872308795798979
Ni 3.738686736129591 8.450567257431606 3.849008384222743 0.25287082412594514 0.8164710352575164 -0.23822582051926067
Ni 4.3666238110070825 4.903938451180782 6.520301143996213 1.0697082415839447 0.6380629582268367 -0.34906119270628916
Ni 5.1336724221245404 0.7592795326398157 0.3709154883103965 0.3467831953053898 0.9482963794326509 0.28379939538400156
Ni 8.90349600329202 2.687939736924654 9.584653696157835 1.298707401298615 1.9416755101365528 -0.8879546451197998
Ni 3.6432493253890126 0.3563605036049095 11.03151914395715 0.22924032919119874 -0.5306219564333378 2.554164476549027
Ni 3.825677303194206 2.1393076102187734 1.9641837217768123 0.4241898555203275 -0.6806720511466148 0.9388421759982865
Ni 6.421793154251604 8.45496034985374 7.81230228823978 -2.365045697969062 -1.690311095352805 0.823354392640911
Ni 3.8966179501361986 4.822900111635928 2.139061817156324 -0.6294806158744642 -2.36106177362065 -0.8441530745538172
Ni 7.48880101538649 5.292346518148252 9.591164460897863 -0.012897424787958434 1.0000760831081033 0.6849040869500914
P 1.7968940286312765 5.567735633303676 3.967254107165007 0.2265311577901518 -1.2148922664541724 2.550206520342544
Ni 7.672595529247838 2.0892868877337536 5.124659704121968 -0.04927313520351514 2.5022621312527806 -0.8910888198734074
P 7.965180987391786 7.863268580304595 10.874761866965226 -0.2644024789146285 -0.23666181846625045 0.20237615781050308
Ni 3.3509298373499536 3.9634865030585082 4.560413297982508 0.08072004085888679 -0.9009798537348741 -0.8611555226490847
P 0.615614404776488 0.9983417171588421 6.542248263341033 0.3913805222997905 1.2297542711676692 -0.3088074873925649
P 8.79371454965328 4.509495614247206 11.112863807691772 -0.05920684937745933 -0.08037448459400996 0.22629281652710057
P 0.3937632374586695 6.614052854554769 7.4143431430919104 0.33166125206228686 0.3422971345095782 -1.748943560284033
Ni 8.563549523711943 0.19792394639901248 9.00275604643666 -0.16050265750516873 0.1279694607641538 0.4568652342661616
Ni 0.781583418780505 7.757439992707485 5.15679531276063 0.8524577377647705 -1.4860258934450472 -0.3159209585088947
Ni 5.405759839426168 5.78626217431038 11.225323305145258 0.33580072815195716 -0.03372901682132901 -0.14796390160820969
Ni 5.217434662398777 7.158062604265335 5.827138110878676 1.7801174147836765 -1.1232728050739622 0.03931782376301616
Ni 6.5404341637980306 2.8997986825432736 1.7991446860016145 0.41373600717685516 -0.1774688530458621 -0.8405553299002299
Ni 4.09547187476403 -0.10863594791113051 6.0358696149191156 -0.7919689363510941 2.299944337484039 1.1389467641657933
Ni 3.2880691787668352 4.677836347876201 12.153541545580923 0.7048926142568764 -0.19018861460537567 0.8900850611992412
Ni 1.3775875725820261 1.302785773427677 1.2964024909103369 -0.22030934525015605 -0.7812602916843383 -0.18630419194930495
Ni 0.6065365699551325 3.0127534346748286 12.430382490653724 -0.32262562422257984 -0.924331383976621 -0.6431910234820213
Ni 7.351166071797804 5.931857878279886 7.194242792774897 -0.004573735413611477 -0.053820902475197635 0.6665271271048004
Ni 8.117031574517652 4.200254924707439 3.1859806811274423 -0.2733028667280519 -0.5077813043897383 1.0261735515261037
Ni 3.9011027563876057 1.5662245766289429 9.257677386313423 1.171421082644415 1.1562302338365893 -2.2377578366529653
Ni 5.9632515220397355 7.6897551867046525 3.3760273267302714 0.9987038853509252 0.5042480944254993 0.42115158291463595
Ni 1.8990999199721381 2.9405104513571723 2.8987898304212805 -0.9353488181330472 2.004840829941128 -0.00011827074541915116
Ni 3.312565942565421 6.837614484788514 11.09964142492561 -0.20996811122514808 0.3384844456317074 0.39611829409509197
Ni 0.8297817874778874 5.082055879010185 2.1603641882813616 0.37558752113159183 -0.18899150897348094 -1.3023398558448798
Ni 6.680536209394137 1.4093297288931101 8.486297131039441 -0.5896598843331006 1.1741310253764103 -0.2309205451070991
Ni 2.962035687087341 1.7232936806403925 12.922531738464071 -0.046722343757203404 -0.052498584119348296 0.47580655125535476
Ni 6.392004502504015 0.7365803598949636 3.1173741511404254 -0.9633195923143603 1.378231879187504 0.5267084803115445
Ni 5.336094014711058 2.425821612864907 6.0246612678437685 -0.9579976658808145 -0.11585725088165208 1.4024213319495138
Ni 0.6118284579041344 3.3565885806160436 4.8675775864275534 0.13128284140810292 -1.5526128373366614 -0.44068271096902817
Ni 6.966206444810966 8.900441932777257 12.561245285088955 -0.3521277474467549 -1.0539877455248943 -1.3737190789188147
Ni 4.234051470794219 4.264206977858895 9.85803152703732 -0.2815018575990765 -0.1581614109665018 -0.8280343146150836
Ni 2.5998210897599914 8.300633489337528 9.407614822960673 0.21716411475295505 0.5892541642542496 -0.3081410574531596
Ni 2.939171429449799 6.941535424736763 6.032258841460672 0.5944724752303956 -1.7943114468958712 -1.4906345958616523
P 6.552191876710718 5.173366167433518 5.074537179286457 -0.09535373161166158 0.32307376750359196 -0.4044119015624519
Ni 5.383647635188657 5.6351728119674735 0.3211891672173404 0.5681672616769635 -1.700980145030877 -1.0789948090921935
P 6.6435388506657596 7.3737551879475305 1.1952953312441554 -0.27717674786116137 -0.9944091146303132 -0.45278129400477507
Ni 1.5119024755510602 1.3457078455270337 8.67077216151399 0.5781228302277786 -0.4868070161309165 -1.1623810839293338
P 0.07741289187372663 3.012579178399212 1.2455847752489424 -0.19309293273636424 2.3183621778695946 -0.8037268482179708
P 4.226760221367084 7.6920755465852375 7.852693058651226 -0.6460161516356423 0.6747909097754895 0.14539331266755606
P 4.168246798291466 3.204774679021887 7.749830496292776 0.4631009307632283 -0.778190651620079 0.1241544578934378
Ni 2.1363544249162105 7.158246031923879 2.6115732998429224 -0.3520115335838647 -0.32189363115256175 1.6630638296010778
Ni 0.8359651338474144 5.387362045274179 12.865899366026825 -0.8578359713575485 -2.015408835264961 -0.0799116860249785
Ni 7.503383514240758 7.284059062919387 5.324491298169841 -0.8064051663810821 -0.8541389821219355 -2.453269760514478
Ni 8.892517857928144 5.310294914536808 5.399192212111991 -0.19458751500401972 1.0445124590446075 0.020767314454338427
Ni 8.335007832548722 3.055216937627825 7.031028862202215 0.7306797505233094 -0.2321186791802583 0.7886434715222869
Ni 1.9760386513485277 4.769935375231274 6.3009794440897195 -0.9156464546081134 0.42944596171294425 0.3227996879065989
Ni 6.24640879853451 3.9767758369200403 7.956508527695814 -0.34091850899449677 -0.6486145084904378 -0.17086291769357026
Ni 0.35384937895943863 7.380276041208778 9.432139100908039 0.49946841364866884 -1.7325553487339969 -0.5369229589507011
Ni 2.007413952342523 1.1001715817996878 4.095808464517459 -0.02099305731189933 -1.6422988291395846 0.4825137880722013
Ni 7.66419454248651 0.05212280345193683 1.330322850666634 0.3156131974604887 -1.2898484082460884 0.7070117174824081
Ni 6.170625661406949 5.546742337783286 2.677253241537865 0.7685999226078505 -1.1126338373028775 0.24455279117855303
Ni 5.863283448133115 3.2629487609291994 3.937937781638171 -0.3065989097770203 1.152090500636603 0.17736600891941065
Ni 8.805518119480602 6.973350952111264 2.966014233001166 -1.2882957190469877 0.2337860395803522 0.8033244705732294
Ni 4.0819257421805375 6.151053930240277 3.9561530652699086 -0.0605124555627603 -0.1369320692740803 1.131108499068297
Ni 7.7543033797463785 1.8305163184424391 -0.03986708444630212 -0.0189801406469286 1.7031357579212991 0.5112774904684549
Ni 4.382462789322379 6.993757279124314 1.7445116750424996 0.603265133821361 2.3325068448010926 0.7158971928974961
Ni 7.903540122737987 4.88057893886517 0.8119021764612856 0.4794135518803228 -0.708406798057722 1.0104142318093179
Ni 7.960411868269635 1.442218308070096 11.088003857129268 -1.1647999777834712 -1.2886631296887356 1.3704170111287752
Ni 6.586648762368257 3.8103519223228335 12.385763712712833 0.7899115396014332 0.4180176652713446 0.6794736599631395
Ni 2.339234586649089 2.344324704173692 6.107267913869176 0.5110419774188812 -0.6071282163211932 1.2669779314058178
Ni 8.538529991086506 1.712434763254572 2.6864071988375167 0.5498864610899045 0.3757024494429014 1.4364956479254034
Ni 1.941260767288536 8.466947347339609 7.103272762658164 -1.7346487409279159 1.7569561461758645 1.7779456039433381
Ni 4.7039839606016844 2.743619202675764 11.66231769030793 0.10749525207020197 -0.7172012564209003 0.1216211499486228
Ni 6.389803370601484 0.3714740255306638 5.536256695682604 -1.7790023273426268 -1.4212214953751523 -0.2282784794985617
Ni 7.401755420024311 6.1708366032142745 12.4448255844875 0.6734665345371111 1.1982176340119686 -1.3583940185259702
P 4.8953815509096925 3.341886853783721 0.6185309045473417 -0.6035862646062057 0.785116432205635 -2.165086120019852
Ni 5.349832746336023 6.145817070588838 8.791004405998288 -0.0415701101323026 -0.6368056887809678 -0.7694938951770297
P 5.761563640087395 0.9900049300780055 10.703682558394165 0.26821748178534455 0.4051662632299731 -0.2884086120212388
Ni 6.678179163981842 3.1571110019491613 10.074132237259777 -1.274865818794327 0.01827617260136852 0.83520512133191
P 4.532488271245729 1.4430437325335452 4.136910017105764 -0.7781489997488663 -0.40912473365708896 0.46003360469181415
P 0.8304595526762084 8.771703230627969 2.711777995429066 -0.8792195792396472 1.8733253036969284 0.13333509595144133
P 0.9030455457153429 1.032395061967584 10.697951361202948 0.3576337648666486 0.08429670246655159 1.1126034982855741
Ni 2.5383636527647373 8.523158753300496 12.867469506783962 -0.7367136154222151 -0.33831989502938503 -0.7717531235248515
