# total energy = -340856.6153009208 ev
CRYSTAL
PRIMVEC
9.44602542530710 0.00000000000000 0.00000000000000

0.00000000000000 9.44602542530710 0.00000000000000

0.00000000000000 0.00000000000000 13.82521302882006

PRIMCOORD
 96 1
Ni 1.9643670976967484 5.039388412275285 4.261787825474959 -1.2392388136193366 1.9708449326116573 -0.41516271232105273
Ni 6.777060347137291 5.8968230270856985 1.6876297262637485 -0.05784185070913264 0.04732681011042172 -2.1142219861801332
Ni 0.6933250376616538 3.044142257646716 9.57206557487719 2.0924146604970546 -2.1644508004286984 -0.14078358180968656
Ni 8.191432617714044 0.7326290046202386 4.959172764840282 1.4778924657046355 1.3983643882713208 1.0086198589130564
Ni 3.484071997165129 8.916348942620354 3.9968967144574368 0.2904670372121642 0.6944529069807911 -1.3219100646673234
Ni 7.129142050722412 2.599640641849623 3.4382748323677754 -0.17690089635753406 -0.02384749604155893 -0.3816087876250073
Ni 7.8876201037653875 1.954817166048516 12.712075543995624 0.9141431305897094 0.5261834610460099 0.5448890078753131
Ni 4.037231242783798 4.268205455110773 4.695083621376603 1.3327986865553691 -0.21639869734184022 1.0610225408844889
Ni 2.9997459384116105 3.4909864877353622 2.1711387038228334 -1.1226277152907955 0.7591264358997765 -0.5582536021076773
Ni 4.092726641827679 6.5228394663767855 3.1568352295060027 0.38656973117470844 -0.7202120182227661 -0.4124941643499541
Ni 4.143461244085498 7.000562753397253 0.5632806618017362 -0.6046769265672232 -0.45066424766177227 0.40735350068927917
Ni 1.8604797106866027 1.2118589326870888 2.6659158450448026 0.30135951575495196 0.3302594866187538 1.3754252629766441
Ni 0.22285629812470992 7.544521570306349 9.642892817697772 -1.699402516131112 0.1840598759998185 -2.8436269837560766
Ni 9.61794303089018 3.4452960630246805 3.9393562509211297 -1.204628422634319 -0.2594615899695854 -0.4200781473447991
Ni 9.136016262580432 7.88622209201075 1.8329332115050254 -0.8195489028518919 -0.03420338535458625 -0.20054656080093206
Ni 5.890475298037615 8.118424287635719 1.555737707841621 0.7792807993604645 0.57461481707452 0.49054128636236805
Ni 7.410916987484791 0.2523836288262024 0.44081010908282 -0.21724304762000649 -0.8091289930701485 -0.6310793278201519
Ni 7.84189189495323 5.840874218824097 10.523254825284239 -3.494351339500666 0.6667009336785034 -3.493655341874906
Ni 4.58807621218702 7.51977298383912 7.75174186263747 0.5984841674929499 -0.05797889050762918 -0.7610033412075151
Ni 7.861549073746476 4.660215507931381 13.480840318665628 0.14008989817677164 -0.26955008455383894 0.32169102822345247
Ni 6.756241307223638 2.406563883303763 7.762635963695735 -1.217332757574865 0.5592902709023078 -0.224432109169278
Ni 7.033283785276063 7.799432010918805 5.9977368053096285 0.6825564126535213 -0.4401872593898483 0.5467062635897101
Ni 6.06059821493639 2.914514451505578 0.8328333863389442 0.01209421216037272 -0.8157737520801757 -0.3625386583674337
Ni 0.7937277859131121 3.2187709286465847 0.55974973751874 0.3530975675591919 0.13775096563094988 -0.20301713382861164
P 3.01103393872777 8.954340856655161 1.7145886826673633 -0.05316424272780522 0.3888788389238593 0.11469356959085407
P 0.03696324187210407 6.259956580352749 11.348453933919819 4.849895033062034 1.339074749372068 2.8392681925667484
P 1.9056506040019798 2.50370680820032 11.951841474836518 0.8099440327722761 0.3857726891947098 0.6358836911873307
P 8.430294261224278 3.8437199670709554 7.810346893232882 0.2563623822189714 1.187371178215768 0.12089481330555953
P 5.827016899607522 2.721437692959718 5.24539677955154 -1.8583907938742832 0.30812460239292744 0.3910110547755137
P 7.751011684876433 7.323862417682508 0.21601170814220844 -0.824466137647851 0.5935278519289391 -0.5122187713358018
P 6.135798022900363 6.3971128687131165 8.797895784490946 1.0022514934928675 -2.0339385186380325 -1.4518034819270675
P 1.032393896698204 0.14004771672587008 5.2241196074074825 0.6934607182708509 0.0651052171397653 0.97290826444406
Ni 2.3111779191258712 1.4391775331961951 7.645453295978482 -0.3239050051556357 1.120684732631812 0.8241480921868
Ni 8.305276115463295 2.34470186316106 1.3230906044217652 0.3821165804993613 -0.32266393365968304 0.024220048889629253
Ni 3.034120024730025 1.8786444174715191 0.4208648265158149 -1.9969079482472967 0.7037338180620848 0.34297950528858356
Ni 4.282610643798759 1.9270741895392602 3.3753567465887997 0.34499345039481877 -0.5397051496815286 1.163199466065571
Ni 3.030728901622492 4.618067342734139 10.803146224588003 -0.4947679228492059 -0.42811361605476594 0.5733228377359739
Ni 2.2008861269154276 1.0953422097583614 9.919866339765 -0.4814614355482869 0.5536940077614528 0.9300515742898497
Ni 5.437207770697932 5.559108728087087 12.82682491557778 -2.089634783759072 2.490027279749486 3.0637980036561556
Ni 9.469168131325732 9.002610046291625 7.337773579243687 0.21822880857204352 0.3705864683725747 -0.31609862173733944
Ni 8.192783399341835 8.738026875701138 11.796916268154204 0.4339811305791365 -0.09987578785173122 -0.9003141951264172
Ni 7.522021137876984 8.129655611799663 8.317676857567943 -0.7598291183937559 0.4741751862995188 0.5530635732663055
Ni 4.66319100592267 0.3642330706200224 0.3909558763894079 1.9734422610251885 -0.05362112775956572 0.4508226276165075
Ni 3.7766154028483627 1.2776599454087358 12.04449753768272 -0.8586942055927856 -1.3289448600269178 0.4476948806208032
Ni 6.067361569100716 8.101799282985978 12.315762826619359 -1.483170426274123 0.17224102898801952 1.8524086081489195
Ni 2.8009071043905553 8.829473847300086 13.232885931135028 -1.099220649220765 -0.02737633513042382 0.5049975709970143
Ni 5.177782129959012 4.574162216818231 9.67357067428923 0.021626834241156304 -0.04777803871522739 -0.9801276650106345
Ni 0.4657230563914723 8.168828279005616 13.532657435430751 -0.6456073462329979 -1.7586944690232098 -0.5527928361034221
Ni 4.45790998259984 3.159846622393694 12.894831575223128 1.4001752162278143 1.7724660688860057 -0.5166582951643941
Ni 2.902423539033039 7.0834894101132075 5.100687449305984 0.31049695927984583 -0.8772963940750054 1.761904234209759
Ni 0.9109076198227555 0.6935205703867958 0.668373361648988 -0.7606642127005415 0.666162287566214 -0.3522778998713739
Ni 7.827788979077058 3.287301842699922 5.675665124322365 0.22277786139530664 0.8054800834636515 -0.23013610153259076
Ni 2.906674250449166 6.913045328351881 9.571665063401536 -0.319486821483282 -0.5651960948637814 -0.2763984749342401
Ni 4.9332717632780145 1.0492456059568056 6.894605742228722 0.24373723725579313 -1.1100218536013269 1.3273188943877205
Ni 5.255995220015751 4.0422848663563045 2.692709496004457 -0.6906415036545008 0.3597531252024966 -1.0846802895127448
Ni 6.196025880654198 7.708022823421335 3.895488909106698 -0.32954574838118084 -0.4770581642742687 -1.1869759996598783
P 3.6683639521176596 7.114897444465702 12.257599870011223 0.8090564879610003 -0.5538493023923946 -1.7979842677617681
P 5.057052479715635 6.68055030594047 5.61653395011389 -0.33794502818846955 -0.5054038052964973 -0.7495503621755671
P 1.4424741960500362 6.86085603818721 7.9266586374111 -0.011672294131605703 -0.8884884061360828 -0.31410318857386554
P 8.485118992466948 6.177568347082837 4.936388951649841 -0.7761263128918827 0.0524445909529613 0.7249937558821257
P 3.838515207092542 9.394393394503373 8.60760560342899 -0.03389845251965775 0.7787197846506717 1.277071053975762
P 1.9655761889440022 6.526306157687271 0.8693989505430062 -1.1920554710653148 0.25662823428584836 -0.1023982971632688
P 6.0772704497129775 1.119429574449748 12.089374659609115 -1.1060500134377726 -1.1608255665167555 -0.6495460191657716
P 8.758335830244857 0.15976535008147816 9.637265820385357 -0.04762505807713088 0.23830038251093794 0.478850223177685
Ni 8.813859567364846 6.127202139814416 7.727837750838246 -0.6033530655494771 -0.9832839512514292 -0.9338521789828627
Ni 2.411390802267409 8.563568233157914 7.1019705587479915 0.21686123880055555 0.22141826204361864 -1.1630182032927001
Ni 3.2470050984750376 5.386000867171655 7.542566243054931 0.13810217832278152 0.6654490635492734 0.1785965388924021
Ni 1.5688809075402859 7.3317026187389205 2.975324184422155 2.441079389095873 0.4502847528351665 -0.25420368400475574
Ni 5.889294544866469 0.29024046469823006 4.867290331471816 -0.9663203268138971 1.2555522060673796 -0.9451573195830367
Ni 6.606427344868582 5.387578353408307 3.786753821877094 1.2919418004400074 -0.2707546463849015 3.470789235910009
Ni 8.39334140998008 0.4102219897323696 2.6118042887175053 -0.6263922067571277 0.7226321976284844 0.563699455713597
Ni 0.8858048074041828 5.136786379856809 9.471901811067571 0.5527545266663191 2.6749258496005157 -0.18221228126811845
Ni 5.821840477705217 7.974939162278007 10.02110883967178 -1.65656588058156 -0.4748195047517372 1.1387138222193809
Ni 1.2720301142887098 8.16218772317109 11.336978902301349 1.7908126897139933 -0.5288224413307537 1.5429876555420716
Ni 4.5933093102415405 1.9439825749500768 10.13805630135734 0.2766612416773235 1.0798887816613725 -2.169358779253277
Ni 4.086199438297582 3.188175252475839 6.966303908588342 -0.03438310546556014 0.5896097478214556 0.31899805477232157
Ni 2.519698929150327 4.538626269379408 13.412724085125996 0.5276063095354655 0.6536086192709195 0.9903948512645977
Ni 6.459352729870585 0.6000691522045106 9.783674490594827 1.008761012476611 1.15546378798421 0.2540640731030979
Ni 3.1045968200094114 1.2466486441217468 5.6052667310535425 -1.6084430569324042 0.18804380034823098 -2.702543354207468
Ni 9.063669154277948 8.209918489361511 4.259050367322972 0.2925640289505091 -1.33084876191785 -0.278179735204379
Ni 3.4537691477808274 8.78463356487263 10.780983959866855 1.7223652955748725 -0.29566760757649724 0.0760527172902045
Ni 8.05355843142562 2.5154860018356766 9.65438107375176 -0.9693295459538661 -2.68447107008679 -2.306258195517209
Ni 0.012621779098286642 2.1944439376136526 6.9929029714253925 -0.10874789353038046 -1.7880739506265915 0.04840230256278761
Ni 0.6370512861273531 0.7579745798907989 11.937103786055538 -0.006870244757272039 1.2310393085276798 0.2700843597907542
Ni 0.662993850201245 4.308813918172841 12.064627017744424 -0.9333063337817217 -0.2618172346859556 -0.6427462226351188
Ni 1.4389035984604892 4.008496433610779 6.753740944308419 0.2531922120211059 -0.03590699830925429 0.042305445636430364
Ni 6.123508743895071 4.858402566201963 6.985313090041263 -0.1671607862516347 0.6813917029214588 0.033201683562949266
Ni 9.356165329834337 5.7944092200331445 2.981005968681712 0.24070873484211447 0.5552500393946631 1.330952891595882
P 8.333217458505304 4.353342481763114 2.016006629184934 -0.8821164411714679 -1.7530295574279489 -1.0857753223491364
P 2.195190173617817 2.984773988201474 4.240856377859412 1.159160520109507 -1.4084479977595679 0.34001168090951117
P 6.398123593427617 4.694684054503487 11.456691215612468 -0.9179753598516062 -2.0175739612370798 -1.8847273748862832
P 5.876183461654059 1.0395539839280359 2.2457953653280787 1.390073094796806 -0.8867865929536276 -0.922277843881702
P 2.8733770110228374 3.521204322891341 8.886999197195802 0.2194544534490285 -0.10735718383044092 -0.528025142240439
P 4.399864156706283 4.666412100573558 0.7297763049587489 0.4556331616312734 -0.31469325674938065 1.2039429665315202
P 8.091512561358948 3.5460379235868924 11.28370993143698 1.5706023319355467 0.87438256286232 2.7395315013960433
P 7.056634359988654 0.546116289103415 6.789838930256707 1.0275591190197206 -1.7478048186938997 0.7823306419303817
