# total energy = -340858.4259545666 ev
CRYSTAL
PRIMVEC
9.43112935581781 0.00000000000000 0.00000000000000
0.00000000000000 9.43112935581781 0.00000000000000
0.00000000000000 0.00000000000000 13.80341112540571
PRIMCOORD
 96 1
Ni 7.778908834587719 5.145199887069421 7.427574737543348 1.513064128509762 -1.267901728771668 -0.344170183162575
Ni 2.4058905818685496 0.658522019731652 5.933865836050416 1.2628806214079928 -0.3181385349855037 0.9086317138531771
Ni 7.550901846346772 2.41850943321974 13.100803763301359 0.08231618170141307 1.0211215909244928 0.1890881824523453
Ni 3.4453425263165998 6.871322943646657 5.484771479326644 1.4123784431622257 0.27649411997184 0.6187804558481408
Ni 1.400362410447579 9.100596762246335 13.290987206442196 -0.48161390196575116 -1.1525018771424087 0.6627722880480585
Ni 2.7728935575637945 5.690573816131685 12.341961875327742 -0.1446464071992025 0.7187238637130138 -2.1761400638411685
Ni 2.578103007632932 4.945127904584996 2.959451674501792 0.1239251154914511 -0.9163429664545059 -1.3230776026128634
Ni 2.1579367546083428 1.828016980342755 13.25224129687112 2.123387197619169 1.326972052571263 0.46107927234750906
Ni 8.231027754561364 0.30607316317329597 4.887622535206258 -0.4292312745989769 1.245667599963816 -4.703452453194358
Ni 4.294804365779794 1.416018085517068 0.35698900232850794 -0.3646377069883075 -0.020451582986132522 -0.0587939302097568
Ni 1.0639728813038771 1.0057073628826092 11.25209960026889 -0.6415259770747725 0.12537470345378407 -0.7054903957418753
Ni 3.2656606459407507 2.353047962944243 4.443994461175423 -0.37287346463453847 0.5879799255275164 -1.056309965900168
Ni 6.290893506010121 8.31344639578562 12.759113939344976 -0.7340890333151745 0.0729311409420873 -1.3532993776118825
Ni 3.4732398075548825 2.9460113717659304 11.481083653532249 -0.08629984893950944 0.03294534457776906 0.05353653846555941
Ni 8.482772895904663 9.41517208871791 12.93752356034319 -0.29980605522490306 -0.4596885626475696 -0.019605690046069463
Ni 8.079516658181033 2.7307741329491324 10.300823058528481 1.2978962182512293 1.429746502127028 -0.06517026604974582
Ni 2.4907613167783893 7.8226787068753705 7.5458005483678035 0.3207458907013637 0.6827978392403661 0.6236272424174809
Ni 3.694418657994439 3.991499239132338 9.27764547124905 0.1268829125681944 0.6542251698089958 0.778010417288473
Ni 4.890644269117261 6.47336700073571 12.785189126352279 0.5106804803144044 -0.8099689724729405 1.6793731082840624
Ni 1.0985474022705928 4.983323979302726 13.508625610844954 -2.1436732015617146 -0.41437621186401535 -0.04809119908027201
Ni 5.965198877787383 3.22192849817134 3.5484153412771113 -0.4917450768624822 -0.6464252141486029 -0.24885707498086176
Ni 1.2912725348278302 8.59781381427673 2.190532624593384 -0.6878202321556218 -0.8799060637837104 -0.6949342174925839
Ni 7.82827136670441 7.073460343504708 0.66418824237126 -0.2620733165608196 0.08009166324626853 -1.024098671274946
Ni 8.641347908325383 4.607342568266424 12.215563990739604 0.006833477982065651 -1.03755891054491 -0.5047561444101695
P 7.347859058050967 3.015971490841516 5.473605021927684 -0.25225453069818493 0.42622359812090466 -0.6660411886073175
P 8.874259083937496 2.9203775616220318 8.254536731215408 -1.3827418512427152 -0.20251885403595443 -0.1663899695238812
P 0.16450813602687286 1.8574421045697471 13.174831528556144 -1.8195771634411952 -0.20728387952476557 -1.8631144246021978
P 5.961690497591089 6.849263531605973 5.3036570103706415 -0.5719493544272151 1.5320517253558583 -1.9895790186860507
P 5.603005778167704 1.717861387082734 12.392937130599181 -1.6432773910027698 0.164514092657407 0.015698898792495544
P 7.940416928301579 -0.04207509830573051 2.1888623715483195 0.0886647496272602 -0.825833707419339 0.17534615027590447
P 8.060777003745446 8.74488284863433 10.143036488538971 0.47818045080417004 0.08442345785240299 -0.09080699278124361
P 4.34628890204747 6.857949601930671 2.0797187384900795 1.0420691397104378 -2.50170497319773 1.2415592342223973
Ni 8.062974456932912 1.8541223469646504 3.238666866914309 -0.9396775274153881 1.3972660130008192 0.5550608062019924
Ni 2.5629000267823194 8.56236219826094 11.087258545368552 0.06263952920809211 -0.9099347489353168 0.40797905008842
Ni 0.7906144203480779 8.576348563398321 9.40720467046568 -0.7435229250345646 -0.25017656512323366 -0.48063071211687547
Ni 0.5147746292050603 8.02200563012456 6.030462294342122 2.487419409812994 1.097379225136652 -0.7470499643512166
Ni 0.5254761319167167 5.273699027323513 5.7447999817624344 0.2486087064154815 -1.2896967131595725 -0.7227838927150003
Ni 5.1878757483281195 2.647167169400323 5.578676293241944 0.11773004242433273 2.585439375402909 1.658172048726415
Ni 5.758977798829882 3.008860419153326 10.286964956753115 -1.0360422167900674 0.1527584947833756 0.84745359968196
Ni 6.161451252800036 3.596099132332134 7.863154285607736 -0.4389402743566247 -1.6838401429164807 0.1803140358041411
Ni 6.210106450199731 8.713977037066428 3.834132354408247 0.23027108444855826 1.0766522770019458 0.9066352522484387
Ni 2.3205671527398324 6.543044185924498 9.64852935675821 0.15409084044155397 -0.63772202994765 0.656291051199089
Ni 4.638578469368923 5.367906580497687 3.922101215378525 -0.15193522755113187 0.7479295387426925 0.24916560736021606
Ni 8.021873594310723 0.8859876611358597 8.53858349130148 -0.45972224409898244 -0.23578378673667136 0.2497819007879763
Ni 7.964994451934764 7.007753663860652 6.041214725153402 -1.5460038166605763 -0.044136842418214306 -0.8493359043063373
Ni 8.850219134689226 7.715003500689612 3.589176683235143 -0.11054406619885478 -0.32902330021880755 -0.5578095725917231
Ni 2.759058090499372 7.113005069749508 0.7582543286020348 -0.4719498965134259 0.5703365014141403 -1.2931003395244827
Ni 0.7788189066074694 3.293605082826833 3.094655404760039 -0.2988876571756917 1.1138957347344365 0.41092244898746005
Ni 0.08561202169325069 7.4811963677693045 11.425787997809403 0.6515424807705101 -0.08093395664190577 -0.21423665669351488
Ni 3.8526447186214403 9.177460468159792 4.106459992903146 1.2338361545465266 0.5317352441021745 0.7508845076059584
Ni 8.19748122671668 6.741437427347255 9.494137993410277 0.03774379440767693 -1.1666293176827263 -0.6438762224745039
Ni 5.587048306952297 1.2411555123463445 8.681393427549816 -0.24233290070909877 -1.0205122394752681 0.0009983593575273128
Ni 5.444723130763343 4.838141170857113 1.7682726608064896 0.1509360968626562 0.25451273060474233 -0.6114942065993727
Ni 0.03651450431719383 1.720549259007315 1.4769648740722252 0.22468176328623887 -0.7296510521484789 -0.8035026480223065
Ni 8.191303836854923 4.191241132082166 1.825487551394781 -0.5041452502990479 0.39029577387604397 0.04052110004249796
Ni 7.348839895525201 6.449996661686195 11.912937905420462 -0.24141244577735843 -0.22626324884074583 0.31559339996614677
P 0.17817384275921622 6.382997917292429 7.4491352428303115 0.5026064450570183 1.5710761862481717 1.9805562463621502
P 1.2268673510630457 4.714121817143989 11.007530605407744 -0.04284846262409395 0.6396678408201113 0.6589891668565425
P 3.9803044883446974 0.10862492093244398 7.514177027840391 0.7434388499611906 0.16398958761250465 -0.12260254002528562
P 8.172422715475937 9.129267396108531 6.616237296213229 -0.7238239039437405 -0.9757663027181452 6.651947043135273
P 6.929550737549685 4.828379951762582 10.092571457376726 1.3724211860429976 0.2704993358409858 0.7859260725911239
P 1.9884687875459006 2.5979555353565913 8.82100149531255 -0.46193699236211416 0.042382835841585066 2.2935741722916365
P 1.9473113381463516 3.052998105493814 1.3015430349185975 0.2267918676507062 -0.08437717799549985 0.4731056073844239
P 1.8064291247800677 8.995043560211561 4.23625308413286 -2.0316612925680815 -1.4873001321717805 0.08890180533873075
Ni 3.1344830648916377 4.609257087567091 0.5435669246385808 1.2714840468062876 0.006186074206053862 1.1836901298197549
Ni 3.6830258534860394 2.371995102230149 7.651659319000319 0.6354630587101443 -0.5259705737042555 -2.2201465513291057
Ni 3.0351827017551 5.315252584164579 7.5340125795308435 -0.2847597024147418 0.5265999797581382 -1.2280704557073432
Ni 4.320881439013009 8.92864840810963 1.8442875650595523 -0.04216763450698544 -0.36785004327801807 -1.493861330329066
Ni 6.997134211976167 0.8987102549122097 11.136316452000457 1.1067940906926486 -1.1007355432033945 -1.0805670386753197
Ni 6.620426603963751 8.137206877699146 8.064436282014702 0.024874651754492643 1.3623571169387763 -0.1310897515606904
Ni 2.6479782465424777 0.6210304503920491 9.302781317752185 0.8391489364710063 0.3588853778855625 -0.6230672561489528
Ni 5.886929933569498 5.885156881212229 8.521812113605051 1.06096469106336 -2.306522504922189 -0.46509225016164424
Ni 4.9070261411628655 9.311042987246687 10.860317274767878 -1.0766059971450426 0.38159721766078153 0.4746320713312793
Ni 0.5906603269831517 1.7845300419419026 4.884213181870343 0.24842795786324315 -0.17131851717375013 0.1270942572480521
Ni 0.47076614933954347 4.813705114167325 8.893579695953974 0.4516986024635575 -0.695632272000873 0.49801651169349065
Ni 5.4039900821939915 6.945489346505972 10.580328729731443 0.10447343452474266 0.8751482373837509 -0.7470404512695199
Ni 6.392353597815883 0.35064751081240875 0.5569232903213583 1.0669005969318204 -0.8853246636961205 0.7380148507321419
Ni 5.005647462971088 3.583753783738181 13.307068225454836 0.873223252446896 1.0210904805762415 -0.059357516022710666
Ni 0.5850837000743633 6.17919120750227 1.5888001515068706 -0.013442498658151041 0.32909374844542677 1.2164033037820599
Ni 1.170950183902201 3.152307899759912 6.962509706022783 -0.07452702467429746 0.23602829864730965 -0.7490477115075358
Ni 5.278471178880839 5.235361485662384 6.311333593105364 -0.7592817305307181 -1.3987713939017525 0.49185769118094647
Ni 6.666554258641384 6.984204133349499 2.606360558020404 -0.919842494967332 -1.48556412331728 -0.33395519030278614
Ni 5.579380798620071 0.6323487489769251 5.923209602760648 0.3200457793105456 -2.787523970114922 1.0522885034456004
Ni 6.390740874661134 2.365817712368393 1.4804430746539288 -0.4964640796047063 1.1424164678819488 0.006072945666957283
Ni 7.031322056630925 5.108286445971842 4.234320645686029 1.7684718601249476 0.4805211831222047 0.612404377118468
Ni 2.1258614829750093 1.2267636086378861 2.727885377964925 0.9438671400167035 0.8239426610442133 -0.6659254889650597
Ni 1.6939251802596231 6.557935939499632 4.210896549198023 -0.971016703848302 2.139339607183367 -0.8803318384672194
Ni 0.7564312912580996 0.7481290679064904 7.466182009509891 -0.715207108809007 0.19243035945170087 0.5585950446074961
P 2.870977304987101 3.902714585455126 5.826654641439007 0.9075551929595467 0.8806236586760253 -0.06014993001701899
P 3.498430354609465 9.070832117355186 12.957510953219558 1.2969983890273082 -0.1586769171503396 0.6008547246076554
P 0.3374137498139103 7.227150030813381 13.479652237723881 0.2530122347998158 -0.4711376850247757 1.0388624598476819
P 9.407730927495123 5.383109561348299 3.518986444598295 -1.094925364279521 -0.4369206728234346 0.10113228596665162
P 4.56690188471343 7.3079087932350895 8.492921734424108 -3.5071775447310563 1.9049303321967195 0.07054490009809786
P 4.485143422558368 1.4594201437518812 2.6139931711732576 0.6219231152421805 1.0022082989597578 0.9458062660209453
P 6.775191440042256 4.955426698064444 0.04983691793355563 0.8976376767355185 0.1483570232815703 -0.6524035432192248
P 4.381419859658221 5.132100048110674 11.048720120647797 -0.3169871949898799 -1.2755587310962935 0.2521614567637464
