# total energy = -381167.4808583355 ev
CRYSTAL
PRIMVEC
9.26006892121773 0.00000000000000 0.00000000000000

0.00000000000000 9.26006892121773 0.00000000000000

0.00000000000000 0.00000000000000 13.55304688831120

PRIMCOORD
 96 1
Ni 3.3122340068955887 5.270923758184567 2.2628302287769735 2.0799494381505084 -2.252485629781443 -2.240595820322393
Ni 8.373454247173148 0.8847245667013828 3.2518370602010345 1.0371007399615686 -0.6208715340492145 0.8579318735054644
Ni 5.8951449955824025 4.030537543239603 9.978077860071737 0.5603174266152414 1.411444875604363 0.22494632980153517
Ni 1.5778786822080033 1.6459309277744871 13.218814875809505 0.3354682845132029 0.009676089637183336 -0.4402687633600611
Ni 0.9062755248054621 0.7133410654773559 5.040174881929629 -1.0517357162659242 1.5212286665984251 -1.4730960727572566
Ni 8.387010987887441 1.3479882143302604 12.274438797951479 -0.04917080529769596 0.10412787825986583 0.40161222733012775
Ni 4.345509523195841 3.212382685090799 5.989267112824396 1.452882573923859 2.1078441076782473 -0.14190689678085242
Ni 8.838068938839058 2.2486039850888813 1.1864509442548037 -0.5491938058982542 -0.4422138029015739 -1.4919245183176695
Ni 2.5277487588814602 3.7571154919616645 0.5599674720506151 0.6061008034979433 0.43492215433616704 0.10164085017195397
Ni 8.921233616677211 4.81513391207926 8.089609988467657 1.2266861737653068 -0.2959763970661677 -2.7535908077025866
Ni 5.284619399930769 8.103412121004988 6.078649926857665 -0.33736010221927704 -0.37080449792065173 -1.310928111734523
Ni 8.068186819312935 4.348287543834015 5.016836730548324 -1.0368294885780531 1.275445602557197 0.49946352855266235
Ni 5.281795078948624 1.280491572891411 6.671825857617018 1.4231896748451167 -0.5178528296931275 -0.6530321779421593
Ni 7.832684749746079 -0.079591217290582 10.238093183749847 0.039481345924073936 -0.10791614165770448 0.7161687013913279
Ni 4.27422551362028 7.044467694008002 8.072316809995021 -1.2732671068486394 0.7506551652039718 1.5442053299992566
Ni 3.960299921437756 2.8817334086664625 10.255183566715898 -1.010062247786538 -0.4398861832096618 0.11392943773131992
Ni 4.3158958231929 2.8485360620402767 12.968937475446976 0.17322139062341782 -0.396632257617033 -0.7985440184654505
Ni 3.197844377084352 1.2536188532514687 5.439881121384588 0.26211625398361305 -0.5048096233559242 -0.7971116568942982
Ni 7.356143089473607 2.9897428510786916 2.8314892013975577 -0.5995347202446513 1.5082926752630474 -0.922198139683702
Ni 7.50299852047631 2.3181008013872164 10.186090489416976 -1.7974181108456528 -1.8718656884322666 -0.3021542437421054
Ni 3.2602479806865476 4.769852175677013 11.885981690067368 -0.7190254541138327 -0.9442625756829092 -0.036256668339189176
Ni 0.48717221924788756 4.705939180861409 0.2999234421592455 -1.0003118532679933 0.0012577836665010596 1.2316301480341434
Ni 1.2661292061920484 0.6295698531332006 1.8654417845411304 0.8416259372565893 1.0743999906326593 0.7215415356674671
Ni 4.542721208299857 8.490825619136025 2.011774021656978 0.5365095255623664 0.37369698897709835 2.217068940845046
P 2.7142002440469457 1.6511443465054616 3.2016224851522694 -0.05791049916353898 -1.153744234189942 -0.3269666748000949
Ni 6.319487648063574 8.25023977180131 8.006814787374381 1.6565563674998631 -0.19686576951523513 1.4159946997585742
P 3.7491796130052792 0.7286757394000798 12.80268220032102 -0.9219963080855412 0.6384067147195005 -1.9320773249251562
Ni 5.051293446530482 3.422854788707702 1.8849444154279957 0.26692293134363704 1.0663429246561378 -1.1457900123398719
P 2.9964378808166927 6.283966024170115 -0.04165641946942829 -0.08587073182189084 -1.6498370464981587 1.3470564820259638
P 1.9379379371218146 4.345805845397247 6.237613823815292 0.16017355630052413 0.9787354126487985 -0.1364391887980618
P 5.133809919553062 6.237424918411897 10.030474107328349 0.24137182234741011 -0.18437535035770827 -0.7376883206306586
Ni 1.17997352613346 3.412900214754243 2.457763936957686 -0.3632783647469356 0.011698262273534692 1.0054399185231782
Ni 9.048837364657366 8.283816781248047 1.7700686320050787 -1.4459956169960386 -1.1869813989765172 0.3755042173891662
Ni 8.265518885311272 6.617948925360261 0.23397415821585965 1.1394507003854053 -1.4549425417766815 0.3413674236064572
Ni 4.977398097555038 4.7460630589454444 3.8357695902903024 1.3468975878505964 -0.10631305883664272 0.6191283261058627
Ni 0.4650943632294346 2.0665139923253295 9.570619091022513 1.1355593357507991 -0.5757399318178988 0.268532441922602
Ni 4.004035226351418 5.81286002427967 6.159046770133317 -1.2658831556797425 -0.7059670782679777 -1.281294090918174
Ni 7.262847896374908 5.818332724936875 11.847138479497533 -0.3140512522900075 1.1484421052507383 -1.0793467931149734
Ni 7.855353398153583 6.339220854663408 6.6831833319927565 0.09887331472914586 0.6936638354205924 0.7842024050317978
Ni 1.8144178794797776 6.723004405827231 1.6609665014751676 -2.1655612598840577 1.1130644970823929 0.14339427995965628
Ni 2.5111639756715576 5.960187718790864 4.029727287220136 0.07516362981703184 1.0717342708750381 1.7446637019617568
Ni 8.385621977568354 4.256890664838071 9.996172034495048 0.3789327834547409 0.6299408433403344 1.9929893299191805
Ni 2.737618958026758 7.989494754702241 5.70600901647356 -0.39265193281304633 -0.9292573605233285 2.3103513917499763
Ni 7.43171451090075 9.572596115710013 5.960277541458165 1.8988825833407426 -1.3343752870138696 1.899905368178302
Ni 4.413209886148156 6.768823226219523 11.962204094330723 1.7553882874681124 -0.09243990039897627 0.4761513361892831
Ni 7.6042203324625985 3.6135659055183886 12.12535539439696 0.7770220852332748 -0.45557016960382185 0.728971509582951
Ni 4.676881084986103 7.145717286200672 3.99461125433985 -0.08102728768666045 -0.31374014880749196 -0.1373439600005183
Ni 3.750429722292458 4.561417287194772 8.254429026923678 -0.8799392310144911 -0.0936668308275419 -0.06743155128009677
Ni 2.044928771966713 8.194716399312993 8.874006339821365 0.5783516584091329 -1.0925568640473444 -0.4379267454904458
Ni 2.7045142120885104 1.0725752482616293 9.322111254834601 0.5638907457887966 0.4537894235543153 0.16874689979183194
Ni 1.2542485379294552 6.425237633690087 7.535019838365669 0.7870337038330059 -0.41045630798431887 -1.0528582599061416
Ni 7.315732149256959 8.557164751975636 13.070233367983617 1.7168425659844304 0.7413737399020457 -1.787181520719309
Ni 1.5983249141049685 6.971924315076469 12.156080302655171 0.7973188878090979 -0.22398268033668522 -1.1914941992452062
Ni 9.384431517817653 2.495023675763763 6.660251697631503 -0.4209559219640622 0.7788827925910973 0.26074816999149286
Ni -0.1482277731979621 5.7626797114854424 2.744451036782909 0.5542246834539423 -0.08412572410632609 0.14353337664068186
Ni 6.975026438122431 2.18245005362515 4.923943424435282 -1.253423846870467 0.4488490488299044 1.1847327121516562
P 8.22933053646465 1.1974935762915477 8.447451456905325 -1.05999307117871 -0.6042843191144948 -2.0308395679977345
Ni 6.327877270390862 8.98797093247496 4.10989355478282 -0.5799989642045689 -0.1501143722923092 -1.2017079065534144
P 6.013118272016885 5.7019707004725335 5.483101566473309 0.695798365265092 0.25643411599717125 0.2904798927279707
Ni 0.221766609524841 6.507281843204178 9.86242978691141 1.8864379298194864 -1.116246237244484 -0.5821460924545587
P 6.863998213283386 7.700330586474647 1.4737177243865256 -1.0545009377158872 -1.3304924070196957 0.8704413188263849
P 1.948077712451152 2.618034429622135 11.319938686881065 0.19454277780901336 0.9238459596997702 -0.6688331495301578
P 6.662341695158291 2.2925430115160097 0.15174937736028812 0.1556108766305062 0.20671335173327623 0.061374289342423345
Ni 0.4087746248248413 8.721030929352763 13.135070517664852 0.4957508555877655 1.0349155593847918 0.7832145871972318
Ni 1.1004850956064904 9.24451187834159 10.78741157668746 -0.9303662773167912 0.30846758755464293 0.5980488797277442
Ni 2.676789566119528 5.870726194172847 9.75126821708173 0.5694183604752452 2.4580934071553666 1.1159207355842653
Ni 5.200528715213223 1.7854894245675859 3.439343267202147 -1.163349875600506 -0.632307286689982 0.6520078504427029
Ni 7.32682571167207 6.203505286419784 9.244912839320367 -0.9761607099430865 1.339172708402513 0.7134281625317133
Ni 2.633035741068278 2.6733818608033673 7.454202587966773 -1.0110953170367425 0.011149074638284025 0.35124663039338216
Ni 5.767837569803654 8.620022098948732 11.043971042691677 -0.05325885932414053 -4.259470759759084 -1.416183675840929
Ni 6.698094820771598 0.5112835863734845 1.7418374602730686 -0.5959878834336574 1.6359096377837892 -0.8478032697118947
Ni 7.542520494088741 6.858645893520503 4.487413595414438 -0.053349105045101666 0.42819691979719154 -1.633421838364929
Ni 5.240745193985197 8.70427946490457 13.43120473967363 -1.2654807780350013 -0.5208342809189547 -0.4329354629234415
Ni 0.8074622567124706 4.795095123209226 11.64007500720367 -0.12180781203813215 -1.1907274962825107 -0.7008600960587156
Ni 1.6381802501939802 3.9616241112752855 9.43042720552391 0.022087833037974864 -0.0727629907953392 -0.10895923821023815
Ni 5.86169762709878 4.456806290029911 13.370649445802698 0.378571029239948 0.9531732479089778 0.2963124402493478
Ni 8.826354951814755 8.225395007227235 8.355507307843661 0.2934474599967269 0.3392501201531383 -1.4907965753608132
Ni 5.850307742482264 5.335355316852631 7.818400167624585 0.21462926414624323 0.336158368601692 -1.5892651984523727
Ni 5.565736568376451 1.3138185604807127 11.567674233331562 0.3672211514447675 3.054196733120966 0.995798281668356
Ni 0.5865383134478758 5.895904321223504 5.0418416943125335 -0.6342258438689334 -0.10664138871033893 1.8231718227709892
Ni 1.5993064813971234 0.615534366862263 7.138931507788492 0.537238433308591 -0.7709607095305432 2.130973494606859
Ni 2.753416635389178 8.584259713266633 0.473543249997003 -0.5582003802722386 -0.5841844630408262 -0.5888332746667472
Ni 7.06796974860696 3.423799315724681 7.633536784257255 0.8961464369019727 -1.7437350194999002 -0.40192255948169486
Ni 5.296277826542307 0.7785495439172285 9.058368753466944 0.18411078384241197 1.319240231144644 1.5757805337023765
Ni 4.896289154989134 6.451286207207372 0.8339951318276762 1.1649907536380386 -0.4036426274965952 0.7031380934596148
Ni 6.89063943120348 5.548244298424745 2.1730140435241503 -0.8520491894724422 0.02969084219621338 -0.12361786866367742
Ni 3.7912481055360363 1.5312357156930516 1.2984107320145168 -0.30218895363478276 -0.4355507890591015 0.7737500993502222
Ni 0.6206088845613286 7.999643790100373 3.918063821661828 -0.8872324222417945 -1.3484165955982843 -0.005887312018712442
P 8.95715342352881 7.634445197005938 11.444978321812185 -2.501446063109389 0.7653443917850303 1.2043954806879065
Ni 3.104363982609776 3.4238085757934744 4.102588286511301 -0.8137731767103791 1.3645332986544887 0.1625813944110684
P 5.053441782490671 2.8817704489416385 8.124278760025199 -0.09170867865990658 -0.1656615759982889 1.0738631442925828
Ni 3.2840000571429404 8.433829895709476 10.992497098286941 0.2213976932183284 1.7088451496012504 -0.2099506277236513
P 9.680938920598823 8.217088725519094 6.254731060980845 -0.3569159128640176 -1.5044910421287703 -0.10860853973903876
P 3.977208807055445 9.172357422299402 7.625879633371567 -2.0544374099223326 -0.8607174066704015 -0.16370368094096968
P 9.031067292641842 2.633989528154051 4.382973909522264 1.117182118795192 -0.8081704858116211 -0.6277276377390997
Ni 2.7471660889532847 8.763099421883519 3.7147543812570194 1.0918940336523646 0.7986800298226826 -2.408028115067859
