# total energy = -381167.3161147671 ev
CRYSTAL
PRIMVEC
9.21517904456582 0.00000000000000 0.00000000000000

0.00000000000000 9.21517904456582 0.00000000000000

0.00000000000000 0.00000000000000 13.48734601629288

PRIMCOORD
 96 1
Ni 8.632641666083536 7.284857198829706 6.7127871664818715 -0.43495095069157347 -0.24557094803042223 -0.9728275318047955
Ni 5.077821775518053 7.613258540710948 8.495922502614315 2.0472136384803843 -0.02677598254226356 -0.01599483276635955
Ni 1.0207193263595629 6.96218769842362 10.863113133188786 0.29543852228482664 -0.03756664539986434 0.09813643656312131
Ni 3.51701001022374 2.3313113302794233 6.738737111166822 1.404001789062756 0.10880805734435454 0.057030410551430814
Ni -0.23419364319206692 3.970700928787008 7.916289572680209 0.19727200381471832 -0.21012880517272842 1.2767424669917495
Ni 7.071092686451584 4.294079997993072 6.119950727760622 -0.34402671560617526 0.6562889943165601 -0.10716666508618962
Ni 6.848260437720481 8.71157889128641 6.516195140581165 -0.8337509053838866 -1.3097032381884863 1.7164494443110696
Ni 7.464636130242596 7.371000694183015 2.8213506017600625 -0.7085219834793475 0.7035109034180013 -0.9294597063421218
Ni 8.999239925833784 9.184824420155593 2.2310630816112056 0.3297270111540515 -0.311830847599921 1.4690746103026895
Ni 4.57306954889395 1.7113785785781923 4.162289112370979 1.517950510067786 1.5038919750921906 2.2387088877123253
Ni 6.78619620567036 0.9736942667973107 2.3360626766855175 -0.28415909271626544 1.1072712874393835 -0.7392739199502235
Ni -0.03144403453621722 8.474721139781693 12.953260458713752 2.6222673428645358 0.7166060460390626 0.15784876482208945
Ni 4.803762345500147 4.460718083837518 5.249693161641825 -0.5451959975927708 -0.7206958998377201 -2.5654657604944595
Ni 2.39746710190345 4.846788017280699 5.47334003221602 0.21764105438937353 0.18493379396433957 0.4566605744545232
Ni 5.877229357717897 5.988299912862679 3.6530076251599963 0.17178928616258154 -1.2525563566638493 0.8989846776817163
Ni 4.275428475250765 4.905009519595868 9.74819532331927 -0.4588411270456098 0.823468292510956 0.7115227179788842
Ni 6.633436179732 1.9796232305079584 11.148141391032864 0.40215575853842356 1.1035982094631702 -1.365568167676906
Ni 5.911408457446761 6.7219203306073165 10.526779365034532 -0.9941759155735846 -1.2187201248406945 -0.46233448491084894
Ni 8.482277586742509 2.472432584862282 9.561665351609436 0.8688554623965036 -0.1048495869172388 1.1144333524054613
Ni 1.8631249348022967 4.414384162716804 10.199980542819736 -0.31704890146575077 0.22178413002346967 0.3022568307582407
Ni 3.935572665598431 0.24368804234295627 7.84700524771082 0.4550991435046743 1.5824602597153972 0.40599570110980404
Ni 2.7119443079825043 0.22985974440466203 9.781265836987906 0.19665571038695806 -0.817489963440334 -1.4379712040296655
Ni 4.971552328747155 6.1696085640261735 12.48011168922638 -0.3983150446360947 -0.5851524833810503 -0.8609788878619044
Ni 4.074989112025496 8.087185992842452 6.060956993426774 0.5425868421046978 1.199050414325909 0.7487576910709427
P 0.12807624687830765 7.511716480880171 8.97987514821981 0.7016681937823077 -0.6623076897068142 -1.2873796349906215
Ni 5.958239998245382 9.300327476505439 11.8082394228846 -1.0830643511758766 -3.3007210462035927 -0.4430013317998758
P 6.77187581716169 3.5609203392094604 8.093567504452652 1.312177924981224 -1.4614631165040186 1.4786586544466984
Ni 7.270509164783375 2.53281043911505 13.247878032054688 0.6404520272843035 0.6282889095592084 0.7246381723149198
P 5.31287335189555 9.80596436033471 9.70441584987848 -1.2459475930980801 -1.440389840773487 0.8741334229659914
P 3.8699605895484153 8.784784275014124 13.536440311129828 0.18606147981087956 -0.036671644389420714 -0.28840295559428397
P 5.325332274201676 0.8740615921010229 6.18721232089111 -1.3774412649654084 1.0280324591117134 -0.8188043113763834
Ni 0.0435371142272898 4.824238473728116 5.9744494984942556 1.443069444488179 0.6796670069208682 -2.8434084399873676
Ni 1.9862673747259445 -0.18487861159351865 1.2190428844358026 0.7365038134042542 2.1399142487399145 -1.0813651090965826
Ni 5.327009436819809 2.915314098199894 2.121950752050781 0.5022580605786641 1.1368274038299453 0.06657974480276276
Ni 5.39706322925411 3.869453754691287 13.090373110335687 -0.4087627223319799 -1.4606269937559684 -2.0373251757220787
Ni 2.135405835230645 4.723728513970036 1.6408299310197496 1.0903580566238125 1.1376054196465504 -0.5437559227121345
Ni 1.7423876566552017 3.142864518691897 3.952089031315348 2.5313881020844597 0.7752189705862649 -0.7287041148541772
Ni 2.5720025963398703 4.275253386845575 12.697472886054266 0.6180446061233807 -1.0320436371536355 -0.3643255750645274
Ni 3.8171023215395814 7.478357532101932 1.9294051113458 -1.5229111965071707 -0.652016077972819 -0.48645863165256226
Ni 4.61876762264845 5.220399028417752 1.0686318076807497 -3.23418115349983 -0.3709780473840385 2.3766508863081586
Ni 7.072557899947644 9.256278919831411 4.384870708227283 -0.05330153963661788 0.04890649589271577 -0.7232744591981738
Ni 2.075534815835005 8.446476615470836 3.552405513609711 0.8369825249473071 1.858042409395929 -0.939465154294266
Ni 0.2527456419987935 3.9226253387936176 1.0006882912879447 -2.132597403363527 -0.727551746417289 -0.34262495016264216
Ni 6.608158943130147 3.1428368731542355 4.209562981772184 -1.0960039420556802 -0.36064709777167564 -0.7708457812192337
Ni 7.660947093177076 4.876138363098016 12.606595553135385 -0.7703971237175894 0.48641312312660756 0.09318423476416855
Ni 3.1933268401033983 2.7199522987251252 1.269126461981341 -0.3225456629142639 -0.49183995056913354 0.5257610287966107
Ni 4.951195997849053 2.7927890752840203 9.130664047322902 -0.4398908111953521 -2.3645353339915474 0.7018656545050944
Ni 5.6915434964246625 6.366205197516489 6.3715306495880215 0.655906928386793 0.512973133003323 -0.25219668087705605
Ni 8.805702731844676 0.40260565103645995 7.589774577985406 -0.4551533937813774 0.9642130506629072 2.4461763440028066
Ni 7.412902114098665 1.8035119404248308 6.059271537147343 -0.16128838663125772 0.3858868461750709 0.6654359509231507
Ni 9.42261290476158 9.310372021855793 10.145343745221343 -0.6032666764832577 -0.9869719416259777 -0.1869251133627555
Ni 1.2424181080465428 2.6613345437034743 6.247028970729349 -0.7885509118084807 -0.5061797642305734 0.870129958233553
Ni 2.097669676322665 8.652316073719321 11.851748891574228 -0.2889598565390185 0.9325828253521358 2.395649024677216
Ni 3.338871380712101 7.073709797350208 10.99917341134374 1.4963149340758812 -1.1617352228152185 0.5299195310496745
Ni 6.780860616901686 5.181639984616295 1.659941291205161 2.4653189783695284 -1.3016459151016486 -0.46498194983602503
Ni 7.577033671195132 7.4120543176103775 11.883188318520835 -0.18142372392855205 -1.2858266886812049 0.010960612776561768
P 1.3399331345579581 1.9935105055932636 8.461137965610664 -0.2673569335572621 0.014747333512503633 -0.12365463543888383
Ni 3.7453805816663683 1.0300266573722758 11.72050354456199 1.4214271836280554 0.9227624968276043 -0.5947036174045952
P 8.76947786232886 1.3578382277834051 11.787198404170415 -1.0348304558701533 0.11011237797807487 0.9925980295635036
Ni 4.035935182488983 0.6194876585448805 2.412076847039643 -0.16657817427528732 -0.5367463241635209 -1.8577665300267232
P 8.115375226077985 6.954262644293984 0.819944530610668 -0.08834156195988657 -0.6189910291970501 -1.6227057374990053
P 3.604784592299078 5.916937564979066 7.070646671777311 -0.007923882832767 0.9694125925859756 -1.7293021319040218
P 3.5420937280619627 4.476153509031868 3.3834627114422164 1.2924015136852451 -0.3384996151403589 -0.30799090502854054
Ni 4.88455182172634 4.235683407272714 7.3942349255516815 -0.1289822182993843 0.43594751027688794 0.9844124084289174
Ni 0.9709112826727172 7.158203775623045 1.5896184155376207 -1.520128491555711 -2.4508398109167473 0.443969609250416
Ni 0.24599091563016118 0.2552835023561214 5.562990824780654 0.33699243446721316 1.0468850730418422 -1.836190089407528
Ni 3.052012066756909 6.806699979435989 8.828317703169725 -2.017691974872183 0.4160926803344898 0.29998886065967045
Ni 6.994026142630475 5.6692243323525915 8.39661512374451 -0.4438230563702228 0.7551908482907962 -0.30678454342526523
Ni 3.880954298358481 6.946042704429291 4.206986417662129 0.8978431078781053 -0.5854376187216369 0.9527970955164817
Ni 6.858664375060434 1.2685707866743445 8.470876567010897 -0.7945554661313478 0.2168959486932329 -0.7017039321162496
Ni 0.018361244596862083 4.991908659645257 3.299368671947549 -0.7815706238359056 -0.3092003519556094 -0.3541092966531579
Ni -0.18487676855767451 1.5328252660016306 0.6996855202651171 1.1448237917718607 0.4706301492607379 -0.4426768585809215
Ni 1.9457021557972685 7.320077613810488 5.54238199797191 -0.6174622512573494 -0.6468646156788666 0.840135982974624
Ni 0.29144755168908276 3.367208056815163 12.09781260712023 -0.32290587446716 0.7951653318012049 0.11696951010922436
Ni 0.06307052962100049 7.728816888136118 4.121153473848553 -0.601705502643725 -1.2221317216254048 0.6646286245305069
Ni 8.887008258107219 2.7511733259242064 4.393475842583394 -1.3172805363151119 -0.8398819579822892 -0.09258722461011797
Ni 7.394278236894017 8.005207758496812 9.473687114073323 -0.6751616628513469 1.1372536927340866 -0.6906348187862815
Ni 1.428813538139757 1.8590886863037144 10.750453881146388 1.668682718449752 1.70286604919968 -0.2993892794024586
Ni 0.6155859516629175 5.75029947913462 12.8729575439504 -1.6781207239342004 -0.010730241933310552 0.05274283891967045
Ni 8.715476912096683 5.538046256148661 9.98441261986816 -0.6185876231110443 -0.8785366942400096 0.44679113785961116
Ni 6.48648171670256 4.143872576698793 10.479034599975156 0.4085292661649351 1.5636840075491585 0.233305757509824
Ni 2.4814450301399393 4.1873682226195905 7.779704029309685 -0.45525263836340313 -0.9129948759178793 1.2138710242785093
Ni 1.0565848038857797 6.086266483155899 7.670941876559639 0.9207647496712852 -0.3460684286265524 0.8617743871800063
Ni 5.290019707428689 1.400052963792552 0.25663076155815967 -1.1393350007431475 -0.7677874540088842 0.027973088174158275
Ni 2.649585190197327 1.0098454148793634 5.128469322031886 -1.1515099455427844 -1.2348717948998926 -0.2276542156510015
Ni 2.0689736082300034 6.041075244258527 3.431774210023652 -1.4573043571406386 0.47147475664922034 0.12374308138763204
Ni 2.0541740304018674 1.6513877618526855 13.086502735063075 -1.0299641289167876 0.7000255159725621 0.15106645179293338
Ni 7.1808639013262745 -0.19378968989974982 0.23196356982070399 -0.5762796063714527 0.5526372843621643 1.341541722855322
P 1.4880487101691824 1.4824274508446724 2.739927121203499 0.30804309842271466 -1.7705349133015638 -0.9878456024801827
Ni 1.5661749996006487 8.652058048701146 7.396770942873165 1.6286753248188788 -0.4010224162649287 1.1403151052682297
P 5.298820203584275 8.228823297461659 3.3037385099339143 1.6089819601550097 0.5331305817878045 0.04149657658188983
Ni 5.74830900042299 7.142178578958582 0.800443368344229 1.7494017308673742 1.8828388996143186 -0.023283396007972804
P 8.034484382880366 6.080239755945687 4.729203251944939 -1.5899730231526745 0.16383223609903397 0.6050710766818482
P 7.825889586044948 3.136773285227141 2.425645276923919 -0.10605414874830123 0.08614044054350971 -0.973693993570149
P 4.101749992481851 3.167082009683392 11.24925586654781 -0.19365317611520844 1.2979419838875002 0.43182526057839826
Ni 2.554134363831306 6.529277009002598 13.408310616212045 2.3952816140354685 1.4444210734200673 -0.14640041377583174
