# total energy = -340867.42963413044 ev
CRYSTAL
PRIMVEC
9.27176760608060 0.00000000000000 0.00000000000000

0.00000000000000 9.27176760608060 0.00000000000000

0.00000000000000 0.00000000000000 13.57016909613255

PRIMCOORD
 96 1
Ni 3.167467508802549 0.4384479686498626 8.882503289883598 -0.8407893002879069 -1.069860708001409 -0.587437422760485
Ni 1.932032329452638 7.420436447712868 8.873777629663959 -0.1251751858484683 -0.5894981619442556 0.7636150677987494
Ni 7.45089420334087 7.547357670480517 12.053267839143167 0.01053920896842701 1.4761492577612834 0.23397373011112607
Ni 6.021781076559196 4.184784362079777 0.9293370532303136 -0.32858184180601474 0.9508505133130721 -0.9002756285789979
Ni 5.545230780130558 -0.06327703039099819 7.67891106819847 1.30789523844547 0.7226319405181684 0.8728111046101419
Ni 8.511167154585994 7.893843615021903 9.999477734140305 1.0361121507960542 -0.11033606395310674 -0.7133006358149134
Ni 7.053524799777725 6.50759386853498 0.47622856610282605 0.6456312574923978 -0.24459135772597232 1.6924335410124467
Ni 1.3008011389168568 4.434120728700248 12.696955649065927 0.0320238612047642 -0.6867545098952689 -0.6550942026775105
Ni 6.20248782151803 4.400714551066247 3.6387189902109722 2.1789330532052733 0.4315056724554504 1.0176215481910345
Ni 4.297130366629094 1.2117272703268351 6.381494124351391 -1.3340173894538185 -0.6768040835507764 0.2766388730798203
Ni 1.1178042674313509 8.668379241169985 11.094603258720486 0.9564156661056754 -0.8485753719912288 0.33516258034732604
Ni 9.232195411562325 1.9063958928281548 12.68497281698872 0.23581618263650359 -0.4103480645412287 -0.19931397394541156
Ni -0.05454766146443367 1.8424299701256923 6.024910298027827 0.6698297091154722 0.05032831594090687 -0.33378549749414127
Ni 2.7647946543355313 1.6604159059755192 0.5762449744773737 0.2845213611516907 0.3172268218045117 -0.16159100547334104
Ni 0.9599802442046053 6.357066726184715 4.007732547796303 -0.49168696993103705 -1.8434452283080442 1.366331528205492
Ni 7.863747458319165 9.673605709869157 8.568218193225333 -0.3546371441321699 -1.4294629094483382 -0.9276177680373766
Ni 8.396549567044634 6.66274762277516 2.4865025583920013 -1.9348962824311902 -3.5901385591053203 1.6695779765705119
Ni 1.9748493509108163 3.130361896010078 2.215804967055746 1.3239623192106618 -0.7304444945840517 0.41802974945620264
Ni 8.27699939929198 8.926681406783539 6.270462856407265 -1.8447680608845263 -0.675669712836017 -0.9918650080522208
Ni 1.9994751648980233 8.305074310720167 5.119563015546948 -0.34925968187034045 0.694746784072126 0.9815579696992579
Ni 0.9226298567550328 4.178915333369724 6.233388767623663 -1.5025223484381736 0.7513228806949578 3.202733733623826
Ni 4.526745684171708 3.4219497062825446 2.84779458815785 -2.661945635290764 -1.6787275042802636 -0.5131518246730323
Ni 5.097682571861553 5.999853346860497 2.2525805049318217 0.1560497639401377 0.3057558450504347 0.6266241202622755
Ni 6.136649001818046 2.8804970386526834 8.168943441479065 -1.2611399845678022 0.37689749819226703 -0.48444417232569464
P 3.2834109590698763 8.528792784250783 6.982055235787669 0.4582245765075334 -0.6753745501931013 -0.3299571248869866
P 3.79998747499504 5.308021885157403 9.261097364634962 -3.4672462557537576 1.101354407734316 -0.003674877748425929
P 7.178600940849797 0.6974418081050748 12.040769496803277 0.03714729847425861 0.13398069995524023 0.22722689830559578
P 8.151496756923445 4.71090152657152 4.479567223368806 1.600711492616101 0.5162692872560916 -0.6196016661978555
P 4.470642220151907 1.9652530717403498 9.334484330105646 1.4225456135032144 1.2685229072954345 0.8335747848173386
P 7.599177578001036 4.240665303684031 9.031652647610935 -0.4483060318422408 0.02347545741412086 0.42375456775512177
P 6.939917834873642 7.607624158024509 8.371355393721052 -0.2927391210757926 0.2624538398286899 -0.4058568615390945
P 2.6527546181075916 2.786064088554904 12.106869780341528 0.5550392089354376 0.4798154153044317 1.4501003831930317
Ni 0.9227346277256862 9.060167040809826 7.404820010025122 1.2579996391666077 0.7203282320856562 0.5004148367223382
Ni 2.854452644266364 4.3078021708080385 5.281061440160414 3.1349185737520657 1.4298269776559764 -0.31754538148619504
Ni 6.9693927831663105 6.202895779279865 10.107631972686754 -0.9793424501051778 -1.382879405261844 -0.46060850335867776
Ni -0.18506354841989897 5.787613321265183 8.679574900202196 0.4388520855181926 -0.21687820808142003 0.09651792712309185
Ni 4.459302848726322 8.301421234398271 3.525828732920296 0.1679917667933623 0.46037710407416194 -0.4471621480457847
Ni 3.5945900136777977 6.528640780338805 4.792318769713261 -0.36589034844848595 -0.8876078033033424 -1.4686822599602771
Ni 0.3394588720937572 1.4070926794098313 1.5954310160451977 1.0219782824978336 -1.942643530476777 1.2698544816226647
Ni 3.6784253337351487 3.529492935362971 7.762909571360556 -0.7882557491655651 -0.5941775696977961 0.06380269627825787
Ni 2.6094183776798032 2.143298819479934 4.979573236749567 -1.6047563521094363 -0.7782479872205758 0.3059322227272989
Ni 1.800577212468218 4.455603413567852 10.305104854480327 0.622827886444637 1.3866188176996184 -0.7881403066336233
Ni 2.636315774659053 0.7436170636845507 2.9244795212622896 -0.2693883621649941 0.5613193855171946 0.039198267466016366
Ni 8.864013531505101 2.430046767214252 8.352629205276035 -2.7393219564883986 1.8014542285882396 1.5815089515457215
Ni 8.107900907010851 4.3656023682463845 1.8716786872958893 -1.1759932753961295 1.2593916344181277 1.59351446064703
Ni 0.12159088373856569 6.45001619351218 13.271069044237708 -0.3159500119746172 1.130324312604105 -0.3154710154556696
Ni 8.276554354460886 8.815642721425561 3.653591832160098 0.17103466738474413 0.7637891314827685 -0.11616269793721284
Ni 8.146035685975226 4.4474813454003845 12.718315019428251 0.31300481330336416 0.9843267906936468 1.1365540955639006
Ni 6.135536389740311 0.083591472576981 4.859423185651668 0.2102807573695604 -0.1344833506232716 1.8576251193528523
Ni 3.2844772123110393 4.53573002669942 0.6199242702957969 1.0584151851686288 -0.06315066451655577 1.0507003330228744
Ni 8.169910486809965 2.458028960969293 3.341898194466224 -0.23873155651108566 0.6336252341704571 0.8047578605856462
Ni 3.275826653406648 5.977443485261445 7.1492261276441225 -1.3229991839664441 0.17473757015762809 -0.40810066326794875
Ni 2.476062548395919 6.737839666254976 12.57401016012272 -0.46850616093919956 0.5325680244161151 -0.18297769867923327
Ni 5.798099690097837 8.824191290889493 10.278412363558727 0.6199410518151452 0.17902077091401428 -0.6825173318854697
Ni 5.294559279016806 4.200054962846694 9.958712554788816 1.8310705087927757 -1.9573067889159068 2.826691127232687
Ni 5.531017160837489 5.335410685804319 7.951467648881276 1.852381611565726 0.20774976341759058 -0.7923972821377644
P 6.357094541486658 5.5690870374306645 12.151095183254773 -0.4869407134953034 -0.6095021158700084 0.46194007768590767
P 3.5653839466372474 8.35563325788592 10.706252503224114 -0.2056262893166846 0.1187451139524084 0.11377697131385565
P 0.4406398144430011 6.032248901857221 10.970042627911097 -0.10947525861470823 1.1590113961261523 0.6701076453672072
P 1.4401465298858827 2.42509564346833 7.771703842658322 4.0954544326737015 0.08441034522628044 -1.8140811733236308
P 9.38006155669334 8.131757164310958 1.8158246338168482 1.8283916764090318 2.9341616967125406 -1.1698951329181917
P 6.438750996225111 7.7408594543333065 2.5269691868359643 -0.4042434943053877 1.8468367704880966 -1.4240214267177929
P 0.8628445739346605 6.842731169883466 7.0068071458103525 -0.28674356561399006 -0.0828496856073799 -0.8623621413626762
P 4.368393170208037 1.4000554080181558 4.111869329565398 1.5138429156573154 -0.4942547306582133 -0.21082300302627566
Ni 7.544186726058971 6.305413710475855 6.666982966084406 0.7924427906637191 0.6466632983013378 0.041788653901011906
Ni 1.1118517928154672 5.109967663553212 1.452496523948744 0.5684976484331886 3.3501633599951206 1.0692798957972747
Ni 4.694397780751781 0.19903795611625374 1.2496265464014236 0.025173928162466323 0.042761816447558616 0.1003450141786659
Ni 4.538780438145877 6.507899836856357 11.245150798958843 1.6592516549438392 2.2358235957447303 -2.190864771645853
Ni 8.79048841670143 3.347599404187886 10.788677587472936 0.22971444061413984 -0.13055547632377518 -1.5391621111483944
Ni 5.263155803122728 7.317009883320061 6.2439057332884556 -0.3140504809590592 0.47382294516642265 1.0426352966265529
Ni 7.678302840262642 3.896015169070907 6.450932244122848 -0.16563612207699216 0.22681706446168678 0.1967359288055902
Ni 6.503059974318208 6.728363920059596 4.372063862887832 0.8723408498419428 -0.24095016142895923 0.3301751544350636
Ni 7.3524280344613 9.294946732746594 0.7495037087525016 -0.038000133392857134 -2.9618349942580924 -0.20557101059871694
Ni 2.8865329591743976 0.5742904859274854 12.126560232587247 0.2816640942085536 -0.4757042213495356 -0.06218367261759614
Ni 5.35179389864897 2.9731498094260864 5.612866468336084 0.6456225157416493 1.0524299141194713 -0.5565242781213964
Ni 7.56191434516422 2.15358120943167 0.9385086854577778 -1.4217693974588224 2.1619820271732317 -0.0072875348003487396
Ni 0.9889081582257219 8.827102625826234 13.648197252576654 0.9601645916251466 0.2638077827534231 -0.6694365874421117
Ni 6.599356549646195 2.875629360812592 12.412890950792415 0.9299860111592371 -0.19036833471634956 0.09132969805393303
Ni 3.737681198641866 4.704142408199279 11.929236626247437 -0.3641553680352502 -2.8801587601335235 0.14387327647860382
Ni 2.1043666685265143 7.773468259978263 2.7654371878104236 0.8667993511984233 -0.14613456170895478 -1.7649790164803412
Ni 4.476029116961609 7.3689966826522415 8.829321359744585 -0.23183508650156845 0.3117917668318695 0.18470059490761093
Ni 6.299591040602373 1.198273935953553 2.885805125440212 -1.0374018161417553 0.07142473159988989 -1.2877390752125693
Ni 0.9866273034663646 3.7613983794322556 4.091025469465759 -2.178098987339752 0.3434885837145181 -0.9678542469599203
Ni 4.805186128392269 2.0671590662935846 11.639893510841802 -2.3259363906724264 -0.6160008362204745 -1.2308017385955772
Ni 4.8397698204752055 6.587293980370081 13.588217262642678 -1.660806915246101 0.4016741909163147 -0.413119713749095
Ni 5.320010280295 8.97220578429754 12.560032043719438 -0.5526074595654935 -0.33475326072404926 0.44068656762377006
Ni 6.912380685949694 1.8144199610687073 10.028503928894954 -0.31399263113793024 0.4090342308258117 2.565301209892137
Ni 2.000828842925934 2.146460492134165 10.24116211119615 -0.23634865810120584 -1.0389079683736366 -1.4263230782677758
P 7.098835926643493 1.781245577617568 6.772531838015492 0.6486749294147279 -2.9616370193146735 -2.105369935106142
P 4.899943590346054 2.4570646971685894 0.8590746733446009 -0.1606792922923491 -1.2902430725813456 -0.11842115495408638
P 0.6852308905519304 1.491039260674956 3.972286581353121 0.8328808440741076 -0.7364711603941058 -0.45988190960529823
P 0.2570745836211189 3.3862255868199282 0.8434943955493815 0.30427694651206305 -2.1137825846498695 -2.1426576158130066
P 5.378663480326276 5.133851736155262 5.839800390771354 -0.6750482772019342 0.4893971454555958 -1.3728999254516292
P 9.494567883026926 0.9208543133143137 9.956351035653825 -1.2385551572887508 -0.08895682694638228 0.11656096181689604
P 3.097799449201693 8.04289654636917 0.6637602589818343 0.10995039847891386 0.4891402922497835 -0.20659636653943775
P 3.0307831150527726 5.6494361729777784 2.6259230506762745 -0.862425904721076 -0.5916622594751101 0.9275120956974477
