# total energy = -340895.16641349084 ev
CRYSTAL
PRIMVEC
9.04057001960735 0.00000000000000 0.00000000000000

0.00000000000000 9.04057001960735 0.00000000000000

0.00000000000000 0.00000000000000 13.23178805852353

PRIMCOORD
 96 1
Ni 6.249230584821856 2.1008747300047266 11.341414693481603 0.7873862020764181 -1.281700325217657 0.6772108320708918
Ni 4.467325238223087 0.21021223286360408 5.822145027271805 -0.07105706384782602 -0.22664531477051286 0.7052672239874758
Ni 2.75467065623204 1.7557690593297184 4.755689580711745 -0.09571651426771903 -1.03653149772166 0.17565365421399426
Ni 3.4897413048906096 4.227497002777442 4.797806883202345 -0.2738240293388445 0.04254327267884931 0.181571562360326
Ni 5.051761913005173 4.6583343967912265 2.2829861597834507 0.7493004509482901 -0.39977671678328563 0.2983181578254669
Ni 7.546932053923892 6.11640653343587 2.695685458623283 -1.299959014317529 0.09100368217308197 -0.7822727921092527
Ni 5.216499175757381 4.277391907460212 11.846300682491794 -0.5760870307446724 0.5326726683147794 -0.331153716298249
Ni 5.454302323569588 7.705232430984102 12.64457395456715 -0.12028340497380575 1.0441391348655888 -0.44975561980457385
Ni 1.5716759366525594 6.879150366228152 0.24855148123807227 1.8349366766164013 -0.2750630439522682 0.6353077640792025
Ni 2.7890248214421374 1.4990711206519571 0.4081772058298086 -0.5292302182921337 0.15967270540470568 1.0260377972791876
Ni 0.5685822275376265 0.09411142747910219 4.84058505134475 -0.07201274289287599 0.9808609436322333 -0.4743001419131574
Ni 8.522011749423948 2.354887619454225 1.2477297195760335 1.3053171933056487 0.05081142622491249 0.36754639599467026
Ni 6.758042893292767 0.7826403187908031 4.83177230391138 0.24350815196412254 -0.4003634425246911 0.3750110798028316
Ni 0.8230227359382928 7.624491102170582 2.8715625114733534 0.17113519751835043 -0.504591336697531 -0.834183364935615
Ni 7.655021106358607 3.8181942460085128 3.747506934860821 0.4765187468310309 0.5021732141743416 0.25879464580954786
Ni 7.817950255152388 3.765505805259975 12.614551126344463 -0.390765771533927 0.3151172316606767 -0.9505154985711567
Ni 7.995597451567758 8.895459606397287 6.919669295979503 -1.024448084194565 0.5337070231165647 0.07348238545986699
Ni 6.934062787145554 0.7402671681750862 0.4793807335126306 -0.631499446076706 -1.0207549516136936 -0.5434473903327802
Ni 1.7372358912558503 6.430810429096802 9.169853556386165 0.5166541813993359 -0.2595819175975336 -0.33710299190314846
Ni 9.305910515529817 5.039077993586814 1.1053913725408095 -0.2695454565681487 -1.5069328188010434 0.9422681709606997
Ni 6.215120514996147 2.0803255148672135 7.085251852007274 0.47726230986527485 -0.6588670394563814 -0.5436823891617216
Ni 3.3689050490489896 4.067560282584856 0.2452417286371732 0.393057138671265 0.22401481912620128 0.6936916033347343
Ni 6.104147520797741 5.60081379762086 4.792990067617097 -0.2298998171520686 -0.04477807554663901 -1.2145785918684953
Ni 5.348979685491265 2.8610872032552113 9.135424354446794 0.3087383247175264 -0.4535192006120641 0.5460004957719371
P 0.14420522469729885 5.749531170701411 12.253720288573023 -0.04954567213861145 -1.2158623436769254 -0.5971536216069845
P 3.9135270544665324 5.97953230678301 12.707121136674008 0.2629042971025472 0.6643010659877592 0.33962267300120863
P 2.3859510172599863 8.470534745027557 1.5303885584688772 -0.03497600185455267 0.9126981706130668 -0.6940117056783145
P 6.300852238334922 7.848127677118521 5.858043321802398 0.21095515772876572 -0.1460340315753485 -0.3635100211417675
P 4.878644042055661 0.8584617695234454 12.697528188067578 0.013473609006402603 -0.014041308584414526 -0.7082926410773608
P 3.89955937413769 5.858488117836171 8.196973431516533 1.1554984978768874 1.4065343256766227 1.2164850648625887
P 4.71847226704848 1.1392926052043206 3.7690090260544253 0.2531510743705253 -0.5784840702219392 0.22091458293432273
P 0.34244503098518414 5.613172256526703 3.516969692990549 0.9928667098438578 -0.5770452808928836 0.04138421937374163
Ni 1.2630128028096304 1.2012024271408324 2.584260435935271 0.37950048303275286 -0.3457326425536884 0.052095178033342536
Ni 1.9924059736387416 6.4788068141232245 4.830780553405183 0.4003346461692847 0.18884058521791347 -0.618338997435348
Ni 6.016580561791162 5.618234975610296 9.093612623215169 -0.5660759263655735 2.2111487187058693e-05 0.43488101668558654
Ni 8.610663576805583 2.415558883329215 10.142297925791818 0.20392524746517782 0.6088518838805193 1.4240103709741991
Ni 2.488172739899609 5.18382655652862 6.835329820388715 -1.9628434024634196 -0.7117170933778775 0.37017483475645285
Ni 0.438663815282832 0.31409922845893723 9.285208514762816 0.7221141203414855 -1.3829123153823086 0.5146168392543331
Ni 1.5209402589791214 1.1691084043787678 11.478046632864034 -0.8027901953363142 -0.8538070527038134 -0.5386854501677626
Ni 4.145869698124293 6.932661498827774 1.6365998845577674 -0.06252254401425361 0.25344212324838283 -0.5179942403669983
Ni 5.652308883156837 7.952672826194721 8.000957605397513 -0.24642198317680788 0.3826549695013345 0.08919593954038188
Ni 5.417118460014555 2.8729122685433186 4.8423181285739 0.0741632135769755 0.6802311069544542 0.28207084272866906
Ni 0.7715059530348148 7.491450077109586 6.922632794757363 0.24467826101282378 -0.9986270093664026 0.37028847751618166
Ni 5.102994822017179 4.491174261334728 6.962209697136374 -0.502720087816747 -0.6322954596154401 0.21519747794488744
Ni 8.11228408587479 7.266602065809501 8.894579958956513 1.0251412536068474 0.11619895049178697 0.2804567041640138
Ni 4.62988372365539 0.4790977636781369 10.23251196363353 -0.08739899554095916 -1.385962415062542 0.4370160607507183
Ni 8.259564008358392 7.265670887120911 4.865421304677691 -0.5587462254733796 -0.590216785277835 -0.27945654503427353
Ni 7.270824011902425 6.164845906382107 6.906318182510485 0.34173200603472753 -0.1300055173575761 0.5053007040597298
Ni 2.4029653696087765 5.134519288882338 2.421112505352521 -0.3798604374753329 0.43505276637676044 0.06396930376310919
Ni 2.21930619428164 5.331187844140351 11.294349487143773 -0.9254878661785674 -0.8327435471652949 0.7413372302371556
Ni 1.2231438900263336 3.380874763453771 3.7334940516830186 -0.8138505669155338 0.38233692404028347 0.0604242667243282
Ni 3.726531908886099 2.7596520101875046 2.656414127503246 -0.4278140825364761 -0.22799128727544607 -0.30608160382096966
Ni 1.118996526020987 3.2654086060686764 8.346876023296833 -0.40631863166686155 0.7668970809841309 -0.7763564266248179
Ni 3.528236051065502 2.563923674187873 6.99887463198534 0.2509314410113872 0.6166045312427445 -0.09254942939364706
Ni 4.315027799504852 6.595574813558386 5.978161756402524 -0.4131899048653981 1.320991409507796 -0.017226134070299364
Ni 0.6767960398354735 7.658311873762943 11.300674269770346 0.9383354115651968 -0.22521038209619923 -0.6385740935353003
P 0.20920963367365678 5.566613322097229 7.812338773482413 0.21833088136754655 -0.5818951527860172 0.5710432976731779
P 8.395461853473702 1.7110272794284633 8.007732608399735 -0.3064137903494078 0.14163847361081414 -0.03808677956939247
P 1.7954029172984198 3.170817124333612 10.577981065214184 0.04341950463621554 0.913262013536337 -1.2090095824211502
P 4.0332784419330965 5.96226481848004 3.677523884099937 0.31833599570829046 1.3487755215995996 0.6394819500615503
P 6.825539787360817 3.962472699321128 10.434693458350786 0.5844312889443095 0.7999982344134738 -0.4733398348824171
P 6.446450614837189 7.597758137295251 10.138129319060665 -1.9801677526744799 0.607000175383761 -0.19662871380376457
P 2.340178612402428 8.458989937403006 5.8449706578829765 1.1458270362253944 0.15289579169218828 -0.5824461401934807
P 7.040018265109327 3.893538354656131 1.484606208984548 -0.7177170197150542 1.4079615450414527 0.42908060795372555
Ni 5.356754575512498 2.6218194831366786 0.6060743745225721 -0.334076803482315 1.075431260110651 -0.3445903014191291
Ni 1.2830557460387844 0.9772403916803765 7.071966734697738 0.9012529048906026 0.8716952458381438 -0.24924068357252557
Ni 7.001731452039653 0.6691558543041438 9.341760895040512 -0.7444829749549888 -0.47370056065594546 -0.12302214406120748
Ni 2.6624658849220983 1.63213926742233 9.198606184553057 -0.0067843699116850896 -1.3382543103533018 0.19982588058482362
Ni 6.485162334687092 2.0172132971483485 2.679741509737881 -0.677469227938601 -0.24022228212399918 -0.2568118110515642
Ni 4.060544800426163 6.634331736257251 10.625734258913196 0.9703541305636385 0.8950058955396263 -1.1589453187749073
Ni 8.164827877506655 7.058045161274835 0.42230942452886744 -0.29399561919071304 1.3696287108995249 -0.00506353056583644
Ni 7.608633942755184 3.807092426303776 8.288524569630505 0.4064921811302483 0.3428681765216998 -0.6980092568734817
Ni 3.116835882104799 8.583107920079168 12.379409522279056 0.08388532596074585 -1.2494260385649838 -0.662452957035427
Ni -0.1312600328119468 5.020843164316086 10.068781820356167 0.09059513388075366 -0.3210770487885374 0.42363372590654136
Ni 8.591560852834812 2.432717884794679 5.895026484708047 -0.32396645452119044 0.1203926768581604 -0.05098240458513801
Ni 3.6541259854209236 2.379911916638843 11.541784458012517 0.49922364462771446 0.5998936462459669 -0.4619223370740948
Ni 1.2462335052754356 3.3140559121201325 12.671328616809982 -0.9906956703344679 0.21537745516617746 -0.14569695995090393
Ni 3.1662787582979623 8.015821206192754 7.935182939874865 0.024339862296945177 0.6828860280787982 0.07672788898035818
Ni 5.622330353726131 7.831149487048899 3.733878275899184 -0.5791846958333896 0.02517315683151794 -0.5998324539907283
Ni 3.0480823488356448 8.565153348471997 3.604457999039936 0.6169346608886537 -0.2988668312400853 0.6831266833346945
Ni 3.4316646845459617 4.017249511691648 9.234993573909406 -0.9360640990325169 1.0896674583146913 0.5639632508979449
Ni 7.064102343035564 6.03248292405552 11.502578218994982 0.3285435323689116 -0.42764876060320545 -0.6555384893037807
Ni 0.4725397343509252 0.07588563877816654 0.38853295172848756 0.16160360387883138 0.15787139052990876 -0.08238817258992907
Ni 4.559936835173675 0.4144830032598198 1.6922129496340599 0.4433844261709073 -0.8643110375589309 0.0644452149582632
Ni 6.145164585944638 5.731269219721307 0.39937621113716926 -0.14263117654138663 -1.2297403872105985 1.4609445249963873
Ni 7.649009127446841 8.530518925598344 11.592355597315738 -0.24338396768143247 1.4106848575098867 0.45480578063397153
Ni 0.24747836560374636 4.789305131369825 5.533573655734908 -0.7009534271034702 0.6736652808114785 1.2887212366201806
Ni 7.929104060746636 8.954512608279485 2.6465960687089924 0.0476584824182276 -0.3766655846871191 -0.052366943637490455
P 8.43656028374873 1.7411685391154272 3.704252328690372 0.6578776789599187 0.05380881829033959 0.16461487990132942
P 1.7779455770298154 3.1236795934374424 1.581106155002731 -0.06471260968703695 0.15009945989397377 -0.103620342495828
P 4.479041816673688 1.012607100707192 8.107672491223825 1.1197084847614716 -0.832841763306056 -0.21006992691033496
P 8.48641902615233 1.5456662173605993 12.259450201707274 -0.16009333788189203 0.03376681203779991 0.34399689080950435
P 6.424165610299586 7.790991276032255 1.5579243259417492 -0.9857360123363476 -0.3764714663984419 -0.1892164805000935
P 1.7172110291662808 3.196401936845342 5.998049201831253 -0.047162002397783294 -0.1284008918746176 0.10130146455466424
P 7.009895086561947 4.19876607197805 6.132259172566371 0.7404417150060797 -1.9168890472204922 -1.336517787278169
P 2.4479060420454584 8.284253804460702 10.141979697735133 -0.07557706320536661 1.2223834326248948 0.41370643949050045
