# total energy = -340855.5096621215 ev
CRYSTAL
PRIMVEC
9.35826863223036 0.00000000000000 0.00000000000000

0.00000000000000 9.35826863223036 0.00000000000000

0.00000000000000 0.00000000000000 13.69677209155443

PRIMCOORD
 96 1
Ni 4.454142871832869 4.820715616555229 3.0147279049310742 -1.7136317723566163 1.2508990235660844 -1.3442359818580334
Ni 6.458365854299721 7.5281937781187604 1.1238588242027154 1.213158314482201 -1.7847821672491972 1.0143845293109757
Ni 5.028001269094105 8.500255868435602 12.538148561779186 0.36409237600779876 -0.28653890580235164 -0.3392220951286803
Ni 5.002631002546345 2.893342736961932 8.075096618108079 -0.0661467710304022 0.060409611436308866 0.43708162388133115
Ni 5.661977184725984 2.6474635841490017 5.646439651140868 -1.0147100309711945 -0.08781988512846167 0.3559977719251224
Ni 4.755900247278288 1.5055676327813459 13.107701219594231 2.163044149889158 -0.19382312603416943 0.5673141696480487
Ni 6.5526597701002505 4.102412341328416 10.166703370739583 -0.029613709101374806 0.6403183299199166 -0.6713723710122437
Ni 1.9432725781785594 5.337666381622836 6.361822210694663 1.710255913905848 -0.07683073310680961 -0.24996496333305981
Ni 7.993655348591833 4.317081667901295 0.7304821261619869 -0.3715017810979924 0.4559198396337567 -1.2010928986772347
Ni 5.055664311482589 5.164847232844713 5.348096172130943 0.0042186660670378955 -0.7024868330288611 0.001577114679132768
Ni 6.422411385809682 1.9615773518293964 3.196224040482743 -1.7320071895400104 1.0374419253510714 2.8163252106173307
Ni 3.901069189437947 2.1400676114625328 10.933201729965274 1.3413488901182253 0.18912289234502266 0.7251493076233834
Ni 8.83446771986318 3.390351031349613 3.6352606675213233 -0.9857696937877605 -1.869547067601419 0.8574441352357685
Ni 3.1590801360361493 7.062704132839473 11.918698550881885 1.0982294889520892 0.16276805650057774 -0.9296414833356248
Ni 4.995958556936403 8.684894510629373 7.891463989803605 0.21866512477851374 -0.46319349047703456 1.0013408087531401
Ni 1.0369616840124227 4.692750649836648 13.703209971580014 -1.2916942032055754 0.5371803263771457 -1.2116318505353456
Ni 3.6344333965649156 8.818025241691135 0.698640616782144 -0.610827005329019 0.26509744809912406 0.19163383169233447
Ni 0.89385035934196 0.5245131820344985 0.8746818174866381 -0.6159684403206425 -0.5051757484460913 1.3246973976044734
Ni 6.66504321937065 1.357108057527318 8.413434530222085 -0.11124417758967294 0.07376006460128587 -0.6283981814435629
Ni 7.136859054316586 8.893789785391123 9.750965089550245 -0.21204453413820254 -0.0012194742293978997 0.7492801392333159
Ni 6.991309900639966 0.27843282644370854 11.921972073286312 0.3541419496633062 1.9008913862406556 0.19839917544062605
Ni 2.2774095634562364 1.7000137406121698 4.902389906963041 -2.0464543917168565 1.2233046588875833 -0.49290541571917046
Ni 5.737994401681888 7.2542117442866765 6.221690558790266 -0.3019740094104993 -0.1919246234598759 -0.41527532663951705
Ni 8.67818463194448 5.086303283329644 9.08730193800193 0.5254861778686692 0.08873751184672458 0.46964978762533954
P 7.779145112587495 6.739666054284646 7.099174241936956 -3.7503473395191538 -2.426913896228769 2.9058353389640215
P 0.3168138940174191 0.06952819341322025 5.01585423627264 0.07657645100415843 1.5777219736994634 4.309868752595661
P 3.486329435522918 6.866910434310428 6.647289647748461 1.236236279347587 -0.01796943999422712 0.048283774707052335
P 5.9692746552640905 5.053577417554094 1.2791125025602748 -1.2413903127447008 3.061399678627308 -2.3408289915135425
P 1.1332208362478573 2.030753674338081 11.708904882321319 -1.0108868005703624 0.13366831092114398 -1.437813081185246
P 7.720515558946138 1.3873446238186544 0.33230837956634085 1.2539604361002274 1.5179885623945728 -1.6733240738765054
P 8.884852638746672 0.2470115033301858 8.662756590103596 2.1369387110513585 2.778484485620473 1.0190194569798254
P 7.305682222343733 4.113679696888543 5.086173203394191 -0.5592910422332561 -0.022822397211154245 1.2498662114261958
Ni 0.5871284223312191 8.494500533161949 3.284061686681169 0.08076529227452542 -2.0212220995126287 -2.282524856456011
Ni 4.1619964383810135 2.6292430349168034 3.450189673311874 0.15796909245003762 -0.6544074610231311 0.04690720607449986
Ni 2.696762943858925 2.607335327801972 7.381738744028335 1.3396699597539057 0.05603847895180672 -1.3680605950814568
Ni 6.300660309532899 0.321144900789202 1.4395029346279287 -1.6336174993155026 0.6238409010901836 0.37536023561213416
Ni 6.3832844642175814 6.8120616212390805 9.165044819713057 -0.18765967753593488 -1.5091745636473686 -0.6336247199498248
Ni 2.609918209973563 0.3317918031320227 3.0672689689317183 -1.5778638985939666 -0.6119266661511009 -1.0487684061074842
Ni 2.241492528041148 5.187045046290412 1.6516941916390786 2.4784395749118864 -1.1412748980783376 -0.006445498515027608
Ni 4.6799298216660725 0.22387599135697556 3.8758168370762807 1.8743959110532882 -1.2026957243879803 1.7706195025955702
Ni 0.01599983206075464 4.155295917964858 5.8688342285566755 -0.7851118042199446 -1.2255245493570377 0.28627536772831985
Ni 0.04783853395997639 9.195865341973622 10.774730678815713 -0.4187869393372013 0.9080020506889781 -0.1082149038450459
Ni 8.414899099279527 2.460663181876835 10.474360198797214 0.8083306655385691 -2.5357648909959165 -2.315456574187025
Ni 1.55510094920971 8.456262647099926 12.75848899920708 -1.3773556472301376 0.9148000474474179 -0.385461071491562
Ni 2.5965452439474657 2.354166083642415 1.3327278958120006 0.1908406463670778 0.6395246303740276 -0.5821782312440748
Ni 2.685402005611422 7.67775762908383 8.442745563735269 2.4384802609101297 1.1326832997545848 -0.16948789172291454
Ni 3.894799149383723 1.0487531026218577 8.833596465043707 -0.5809019356348125 -0.613912329122562 0.2578459087430333
Ni 1.0385806645040356 6.2334960148028085 12.001591287879338 -0.9469586344578337 0.051651405627704594 -0.8327255494431659
Ni 1.9665465925290868 3.570806527417655 3.328795147073994 0.18659035573115607 1.5125010569174404 1.3131212627310997
Ni 7.21442974388294 3.051993466871257 12.191688608227777 -0.7473592680615193 -0.3095407660141637 3.0952567363860695
Ni 0.36685910774573266 4.10343239262082 11.202015191973558 0.628884119941046 0.5772612535584316 0.6912698812671191
Ni 1.2020134697382985 8.142021341158486 6.830279362990657 -0.4839129824125731 1.5179600231494825 -1.1427838785236963
Ni 0.1860124360444568 4.850802450546764 2.2894021848435306 -0.47008790360402264 1.9445026951727025 -0.0617769240974807
Ni 6.718385351175237 4.70157549725625 3.0756783092193674 1.327770122992526 -1.3887708310456146 1.3125944436933523
Ni 8.223672235894453 1.1823236723142898 2.542573300656836 3.304122358575658 -0.2043260824480223 -1.3438860547177822
Ni 3.141449157734423 7.61222167311409 4.629303459449151 -0.7063067209955836 0.16138737410296722 1.4378817296396527
P 7.812722580818171 8.25017485295947 13.318330581553068 -0.3168784373261575 1.174146451995378 4.639255092580842
P 6.185141840235387 1.9272137890247576 10.477948159031227 -0.6298469980749475 0.053113334885211756 0.3889590573424914
P 0.9044570211292088 1.8144092176611637 2.8668438632044118 0.5437919181563926 -0.4024789462057972 -0.6102857881135684
P 4.9268477423088815 7.01197295801269 3.5160297730155876 0.3465656799779451 -0.2281118720137104 0.3111060536187546
P 5.118767117580541 8.310077131149146 10.414203375697872 -0.6089130761357578 -1.017110669992887 -0.7884236422019969
P 5.548199353413675 0.2967984288413403 6.059410692264483 1.2093034595124852 0.7412145886163622 -0.3725623611520229
P 3.8976347048112303 4.133547301418567 10.062456936136565 0.4969153082095119 -1.0251409964965312 -0.9017684110744405
P 1.0650177736878879 3.868932894592868 7.882027111608561 -5.119004173423713 -3.215204869507643 -3.429065373808662
Ni 0.14239541711203288 7.054468856350344 0.9624998113207152 0.006556313061279032 0.362853104284059 -0.40906019896774065
Ni 2.0210023583134533 2.55214961705607 9.663319287860942 -1.0398677611837446 1.2574939031747827 -0.2918502907129361
Ni 6.702354636827648 4.506661475988543 7.673027960063823 0.6445395670901157 1.5015787535779817 -1.3504770776717387
Ni 2.9501380699307105 7.048825820301543 2.4675143704196665 0.24575041103107997 1.588698527315625 0.07458436027479412
Ni 2.5974249212088045 1.1184628464485882 12.908029454500307 -0.7168256182490365 0.4903793068632071 -0.04598906513560467
Ni -0.06255347572305213 6.443523640081814 5.996515639732506 2.547945749332825 -0.004732629588978946 -2.585232144488109
Ni 0.5174317800807212 1.8133236584875967 6.766150890639059 0.12151522049837782 -1.3645710938709597 -0.06729245459907121
Ni 7.8174952978743715 1.9873219491266625 5.5197174625106475 1.1882926615887728 -1.4268020747867232 -0.19671484575966766
Ni 5.648913041568229 4.940595039084485 12.749900915986542 1.2729701444335106 -1.3329393258982916 0.8775889856147596
Ni 2.150071600743077 4.880664686088594 8.981808982003061 2.958796464542085 4.413983518229404 3.367851521303503
Ni 7.61349439766241 8.175308703058295 5.144740056635006 0.32925547083427165 0.728247744043049 -1.3202049090507586
Ni 7.729836394608834 8.765628295029051 7.251057071895216 -1.7296754560830403 1.7333642177885373 -0.1502454985535348
Ni 6.005041958379376 2.990359908965116 1.2462949257510954 -0.6023076550040982 -1.5287709977220576 -1.0916631485884811
Ni 4.847311816307622 5.7578807227493884 10.873209612395717 -0.05963416672286504 1.809719553920825 -1.0277331827037397
Ni 2.7783857637886795 4.500400794203057 12.03939401444506 1.2060936943259357 -0.40947106125291416 -0.1763437383024834
Ni 2.141443276966967 0.47346008276314044 10.422380630920829 1.3294377405029363 -1.750802982090275 0.6677609995119016
Ni 8.325883247047031 7.424485443968159 11.716300722104682 0.4886726085847455 -2.5833626953795377 -3.9482706037646254
Ni 4.60648612861302 6.630520565997472 0.21827974665186278 -1.2027306913909739 -1.092626798053331 0.834781146420614
Ni 8.115902413111714 6.219664493608566 3.8811033230861773 1.6245255643165635 0.8909438096551108 -0.25414146330825266
Ni 3.346629199807327 0.2559271259565419 6.043193748369014 0.8709894780203709 -1.5848642411711995 2.1229655367007183
Ni 8.935789695485683 7.422286250814812 8.981507645749709 0.7034929056958723 0.053766909308810625 -0.132184784397082
Ni 8.344131871085441 3.0399868080808568 8.090874659199752 0.6741591897287615 -1.0972992638283359 -0.2866672038500998
Ni 0.35484964147471054 2.639471622647051 13.65633908260751 -0.9939920816975527 -1.2870988705254092 -0.2583020224438455
Ni 4.5072884799939645 5.060783284482081 7.857632912490138 -1.5762538737943694 1.9681018226488813 0.34083520525207106
P 2.382147307167979 6.995156149091139 0.33144929049622485 -0.5623591396356186 -0.7801025239308113 -0.2349597481734792
P 7.937702259809444 5.254068966989438 12.041612859962758 -0.030566045712315103 -1.0331492115129883 -0.07174226284030871
P 4.2014883324538825 3.4665647719490083 13.69019823472719 -1.3547157983434346 0.5078327264529642 -0.7446459828954143
P 7.743546258309487 8.59042278772283 3.068036346968205 -1.1580158649821024 -1.9688235313062548 -1.1088175488805807
P 3.614631299916055 3.3488096764231994 5.4068829446870925 -0.6309168341003586 1.016070915874463 0.7307214023945222
P 4.286386546441814 1.0665618880295995 1.9384764654505156 1.0971869066201878 0.7088035192755083 -0.9297564116469342
P 1.2317634060552773 6.087694187870271 3.923468205661504 -0.23338057661181744 -0.04423068768360124 -0.25360024609280196
P 1.5919912445735134 6.938810013021768 9.900451266884795 -2.2720568670451518 -0.7682957611038703 3.068411848279083
