# total energy = -340873.1279773728 ev
CRYSTAL
PRIMVEC
9.18817727654608 0.00000000000000 0.00000000000000
0.00000000000000 9.18817727654608 0.00000000000000
0.00000000000000 0.00000000000000 13.44782619941784
PRIMCOORD
 96 1
Ni 5.429101088277893 7.660073260488559 6.296245439688965 0.3849746187734467 -1.4936849526522018 -1.5453489566853966
Ni 3.24080800020298 1.8286218828016867 4.645632549851945 0.22164117668770214 -1.3632973693648587 0.43022629152239455
Ni 6.109632637384207 1.7677318310110195 7.110565121452398 0.4298563097774855 -0.7636639187588139 -0.21962466047830564
Ni 6.89434893030437 8.100058324627367 12.168722948392965 -0.1589114017586489 1.5380981886602543 -0.40780807172819444
Ni 4.205970909558471 5.313357617264306 7.137918325644463 0.17769562434468752 0.8059698786158764 0.9129874197187116
Ni 0.18941152114819151 6.7163279927090525 2.4531661915909275 1.0248031535411382 0.3741551595604395 -0.4489534356182526
Ni 8.506965950038788 1.4076563459311262 3.220189730062908 -0.13424295247769139 1.9362908487858717 0.7876443408338112
Ni 4.28171824424419 9.446824618767826 2.619138672129795 -0.5450880112599967 0.19654643850260342 -0.7561138743256979
Ni 4.467879907037415 -0.32857841286948036 7.887661658834611 0.4738818234288162 0.5385836344825756 2.8725809477862656
Ni 5.919593563717938 1.9193918875760945 2.3809379288587054 -0.9336953416900243 0.6605760517276882 0.8641045779750796
Ni 7.497056616627081 5.793164242359921 7.958315986774055 -3.2041496401347462 -0.8900444377692929 -2.086717867222593
Ni 7.925721846179184 7.020897697968904 0.7321709438662226 -0.6244844482114535 -0.5970350937512492 0.036918470292904154
Ni 6.3794710319803 0.6862392449222744 4.522961193060456 -0.5850069589421215 0.3765532274789708 0.3799779368898037
Ni 3.161982626080129 3.273370900994609 10.37669206336571 2.2420186688118484 2.162176916792857 -0.9985940992459382
Ni 1.0172323108188541 7.82172086591382 4.401446627806683 -0.41619346757841225 -0.12833095786863058 1.1747151800146542
Ni 2.5730020768292854 3.1150953566840562 0.6939426128747861 1.0724271831770047 1.1796977208309103 1.0533076887387345
Ni 1.5315037894329222 4.942118496613919 10.791705498900825 -0.41031746841360944 0.7371069942058919 0.1483847911957122
Ni 1.8334916168365523 5.365574029566457 3.2586771676577095 0.9956720405031368 0.48614624261846595 1.9625315276499558
Ni 4.834846525185514 -0.19952494803909046 0.003949997474695607 -0.019891082496972193 0.04089416711120054 -0.38105162956995664
Ni 6.64599249452623 3.2774872044806838 12.242995580602088 0.4339176243310527 -0.8719788385168338 -0.8151350900549124
Ni 5.451915332822365 2.9635731227803457 5.02332820277837 0.5691635641519617 0.22312238921891894 0.29018550141600347
Ni 3.445548157748089 8.450228954443894 4.488924508609974 -0.9377767108482494 -0.03735452938905825 2.2933754260172696
Ni 6.890875799237994 6.735990692396999 9.966896593789839 -1.3520979011046133 -0.449518049872471 1.537386250194894
Ni 1.6817029257875373 2.4365760184336573 11.784962179548776 -0.7922941809009968 -0.27322187697847133 2.128072004689348
P 8.104229757177988 0.8924412414955851 8.16120380775043 -1.079112308506664 0.04153385757772848 1.20261139220429
P 2.03292100783043 6.870496421710954 9.004920144365087 -0.1023802994411398 -1.1378630441833113 -0.3394936036225121
P 7.5079446068748465 7.1705914845651835 5.501882479291055 -0.43128275781136693 -0.060159700209031886 -0.6910073716343519
P 8.915150732112183 2.366001627637805 12.905798541368265 -0.831410173065852 1.021971340519298 -0.16704302972684779
P 1.10961024664251 4.707535138794767 1.45354853571215 2.736256173078881 0.707473487610175 -1.073089499351352
P 6.831501796722333 5.011378978038101 1.2033223058281703 0.03333975180271032 0.1908856406724003 0.07166204442167659
P 1.6675898852638515 5.801020134057675 5.581211365536757 1.1926882195533073 0.14561082799500083 0.9274475610080996
P 6.23542797449995 9.146150700735868 1.7310314939252398 -0.2889125482408508 -1.6353668779064416 -0.22495687132449646
Ni 6.303043772165186 1.3912922019384932 9.586349849408663 -0.09504237101882988 -0.06221195475237028 0.25257617570366175
Ni 5.244694367372703 3.8531448964663295 9.108078568760645 -0.22474398398274195 -0.4680181655591875 -0.9875378414317768
Ni 1.9111684687813686 7.406571445352825 11.345770055121683 -0.8423504741274396 0.19674827010076437 -0.7982002619727866
Ni 0.9115296800945154 8.912633171497932 8.145012401493373 -1.0324568134316543 -0.39102493873258465 0.28121337982438016
Ni 5.118375304143777 3.6760060239037418 0.5569744520111262 -0.5623588825253024 -0.23269743450186375 -0.24142375863126805
Ni 1.5237122149771374 3.4822824910903383 5.962188116621389 1.439586113925269 -0.02521763691620818 -1.5752526862233645
Ni 7.6620762831670515 4.618878414827942 10.471620637242344 0.473915504880229 -0.20671463728485692 0.28797692380045886
Ni 8.943027662417432 5.3007606260156255 4.964547756524317 -0.9144213239517606 0.3780195276118522 -0.5709947038234295
Ni 3.8817109400783996 6.51802874753836 10.25486877535048 0.6544424280261244 -1.301556440711636 0.02262622203994813
Ni 0.7521111265123831 1.9741258604924976 1.3367208597624998 -1.1360658430735726 -1.0117470916881286 -0.8834850393842204
Ni 1.6441508446545274 0.6090677427357929 3.101391190055751 0.6415576016436564 -1.8077472606858027 -0.17172629413513008
Ni 6.886640049445405 8.261999951730205 8.0175402219977 2.235213472964557 1.181354539708043 -0.07089019925265855
Ni 0.04869734034865485 8.293487835763194 12.769020575777288 1.3213526495019565 -0.35744247479144886 -1.7128612127391791
Ni 3.294558838134986 4.546383694950417 12.445277900686204 0.5681191820478474 1.3407817047608457 -0.9039078260149466
Ni 2.4395989288062436 4.159928952485431 8.290409796326061 -0.6973909065631925 0.4310125348691158 0.2371732108850302
Ni 7.906895270636844 8.54714584991514 2.8646017508370303 -0.23073491145885425 -2.009979179608958 0.3104524791951557
Ni 1.3919629388904653 2.8085501932779864 3.456091591342444 1.8486357713700485 0.9127159112248798 0.9311602339729963
Ni 8.184470110624178 9.683328305668653 6.021345278149838 1.1741796192261584 -1.452194803828215 -0.3181629604655359
Ni 2.700194016913517 7.320119883967827 6.860825864971906 -0.40305615886550583 -0.056065218424684087 0.06647844333820808
Ni 3.433447328080319 4.089639395189731 4.361264890294846 -0.01440357701983971 0.9679146678842104 0.5043524812138476
Ni 2.2971638023751404 8.939251321496055 13.311021973857816 0.5125129055374528 0.7758841149740895 -0.0025916719865761817
Ni 2.6937806690713737 0.7749272086923416 6.967789113638855 -2.181039815135631 0.7627036117280735 -0.48894488840952566
Ni 7.552185681172728 3.204147172280125 8.566305956297981 1.1457918121120847 0.308173710463308 -1.0079788828949479
Ni 8.972328760223444 4.093829204095201 2.819578762640343 -3.5481239052364315 0.35519198819437536 1.1888768162270171
P 6.092855025407482 4.046188504150337 6.995720254190907 0.06872353061864293 0.09794977447361196 -0.5244050289893484
P 4.037331101113336 6.293901535628033 3.5876782366887063 -0.326509018437386 -1.2242135438550983 -0.9040852321330751
P 0.7783580741425656 0.5493987997248119 11.05567356694055 0.34717426009622143 -2.1248421848981405 0.33246652157240164
P 0.9756466197965877 1.2589273179643947 5.1175842020675475 0.050659216917764364 0.5055886676137938 0.6358137571813436
P 7.135694786707789 3.1060817546308432 3.699645366780915 0.45480038131733286 0.7103117283899185 0.4101156368154485
P 0.5309250501955656 3.770809638567406 9.27285474859887 -1.0751358403574194 -0.4258343331022859 -0.17150440793231106
P 4.022887286202377 1.6525580269977385 8.824369701524866 -0.259800718476559 0.7083826296880057 -0.3042031558513342
P 3.5122543258483216 1.5786391396194503 -0.3795930115645373 0.2555522276128502 0.18647568453016272 -0.49239273774881004
Ni 3.8867552494843256 1.2324010497405142 10.927542595123557 1.2150334200177266 -1.853002018758544 1.4641378351227041
Ni 2.7836594206356264 8.694202629590654 9.556819047167044 0.9985179945923642 1.3923086689955442 0.3965512678674526
Ni 8.34661387763035 2.8575874961913392 5.63463969844117 -0.817938106721346 0.44739226177871977 -0.6307515121670879
Ni 1.9520191056096932 6.626605440161012 13.494490581847987 -0.7428667795078046 -0.6832552384927588 0.5873772589465109
Ni 2.674329297464184 7.569643218278849 2.5285946965200243 -0.8651214492753682 0.22677926924521588 -1.537236097770275
Ni 3.5186125446259195 5.530887717784005 1.3025978064442292 0.20362134307151383 -0.9136589918644394 0.8177792125459787
Ni 7.962548061295676 0.6194531396784504 0.4538233781575085 -0.6923014078554272 0.08254449566213526 0.7235685933998247
Ni 7.306282488766869 6.005714350715662 3.3738178942322627 -0.7988155269592824 0.025250547036672642 -0.46907694584100507
Ni 5.377647294701955 5.471706666994253 5.149374377137795 1.030390932041561 -0.09972255010331858 -0.532167960764219
Ni 9.279691671420274 7.254580614400477 6.800781125504271 -0.33420972951575345 -0.46864011541390255 -0.8717286701792406
Ni 9.372676026953933 4.8320625074259596 7.228219733370233 0.5826032345966354 -0.8629977180641459 1.1034490854798156
Ni 0.5385879901674105 2.0574626297306673 7.530298523730363 -0.0966074015131046 0.7640066468102132 -0.7238840677577145
Ni 7.430267754930029 2.886759959513411 1.1095100955085855 1.7568162781638905 1.6041030347961536 -0.7513642754558544
Ni 1.701705588040183 1.6842388627566371 9.485182503060946 0.3401106683812207 0.3901803313441022 -0.19115534939401918
Ni 5.265827175448534 4.445874222106278 2.8109859791131617 0.4072005200511826 -0.20852109436597635 0.36814186348682404
Ni 8.459977610691048 8.335009209543491 9.9328608281571 0.4660139906449651 2.5222043787026625 1.081743318371608
Ni 8.592700833584693 2.2902634811295104 10.735103569514065 -0.33615219795410495 0.03967777820559619 -0.34121547140962527
Ni 6.4718857205136535 5.87783329732461 12.575748182475415 -1.4521798914298796 -1.7133751762611202 -0.5099225191024573
Ni 5.548069609567398 7.727257213814854 3.9633570846705024 2.0518012578510665 -0.3288147837524273 -0.9938167324619529
Ni 5.36858775176162 8.463524247176817 10.277151943239833 -0.6777965293710326 0.3472025422309956 0.022404592947445286
Ni 9.180551237012352 6.319674373303122 9.221268645268024 2.023538406350631 -0.8115064921633894 0.9647414123625514
Ni 9.456380323289073 4.803220818491162 13.100818526016234 -1.470138018570197 -0.31699670807157665 -2.4080975348532143
Ni 3.90772267036652 2.9228327440811124 6.970627341645213 -0.014171920625007849 -0.17266140435488975 -0.3661225190639501
Ni 5.604824981517142 6.857835113220304 1.5049196356912689 -0.3908130798320947 0.6619071118342859 0.2029176321362699
P 6.110744406852545 0.9962924544689326 11.773236227519918 -0.2078073561284034 0.11580222927400056 -0.09308524729245904
P 5.356863637368246 6.88815609872041 8.43088600333031 -1.729266650680396 -1.2334031807741663 0.3131922467238219
P 0.6822157420281847 8.791707568417054 1.407019605235624 -0.42511545265839046 -0.8750243102113768 0.2918644317803231
P 4.234693152186753 6.88959864257602 13.025013305812742 -0.895015151511007 -0.4902906038041427 0.10364116843143441
P 5.070477335231034 4.478216606639724 11.073867995876098 0.20920320803466552 0.3162788560689456 1.6750976208371602
P 3.7212210450085967 2.418429368020715 2.5057602379852173 -0.17020214418111979 0.8586810929666631 0.5994717282171999
P 8.465775350645766 6.461512268201648 11.633297528894989 0.5714798709899641 0.015440245814470186 0.09049691773999254
P 4.541670159931764 0.5178943769724594 6.009658835283904 1.4705180276174352 0.8985357630697558 -2.6368647810627364
