# total energy = -340858.2555708947 ev
CRYSTAL
PRIMVEC
9.42528020871356 0.00000000000000 0.00000000000000

0.00000000000000 9.42528020871356 0.00000000000000

0.00000000000000 0.00000000000000 13.79485030737619

PRIMCOORD
 96 1
Ni 1.9796481174464202 7.827940126408357 4.923782313297766 -0.7747296896546721 -0.21704070180121332 0.09810275511170846
Ni 6.246528941003806 5.667788471010269 13.445385349167294 -1.44997697024129 -0.37168458653275993 -0.7561051325749494
Ni 4.879109313515534 3.8430825320604 0.08724039200462809 -0.3814527216631172 -0.321880261416123 0.3342575520345534
Ni 3.5724167652932324 8.192858693526246 12.176604104830064 0.5335661266633263 0.7998822776608998 -0.8353822703397226
Ni 9.169195176519267 5.468000810106845 12.911386683500243 -0.8040544067607185 0.9462191851886478 0.045765893381205056
Ni 1.7391055456713431 1.339624476664844 0.9888655077436432 -0.17394901281806172 -1.1274284791135485 0.24869355281980393
Ni 3.1221994138579396 3.14308583441566 4.127929575168338 1.2489416427293973 0.8543991777618575 0.3123610090717782
Ni 6.079381024861836 3.228535423213624 7.549811422909419 -0.6709581662929606 1.8674235935005128 -0.7461305378607409
Ni 1.8524822392132263 3.799066474296613 9.181617695605492 2.1674939581303962 -0.8076068999986672 0.6402625369813167
Ni 0.4557924045760379 0.31372892871940905 3.0545249606781177 2.377307546055551 -0.8685492440099946 3.6002360525506387
Ni 7.7283337669977135 4.697908304841272 6.189721835704423 1.1104327158865006 0.4480538066221187 -1.0667368176604468
Ni 8.964468668877466 1.4344804949378103 1.6495192014659856 -3.4453520267838273 1.8466418808684713 -2.877234387397877
Ni 5.777423328378229 8.281899314017572 13.50531033710228 -0.4156483937082197 0.10070342595934915 -0.11472390860815727
Ni 3.9182114392199607 5.788252975138526 1.355707774516691 0.38082948625682156 -0.4914308880561731 -2.1184473371153905
Ni 8.033543185093421 0.6655303336124886 8.516774464907561 1.1542509986230316 1.5140807426997345 1.6557642106158708
Ni 1.0969612168818756 6.224775394682859 6.588282054851495 -2.7247561428590816 0.12806407736048914 -1.4561900410305373
Ni 4.237879236889468 2.0861160807225954 6.081377299173265 -1.955006165807188 -0.8307056907996596 0.42380419004613457
Ni 7.9680751899698095 2.67821217252583 12.81294623122994 0.24785511607890862 0.4808284299499784 0.0893113820723236
Ni 8.355048912369767 6.6617690782289465 7.760458891469254 0.06816534412232778 0.32184143775838764 -0.5048042240392855
Ni 2.3024922344877474 1.4066853441143823 10.666908932684374 1.7968910346975893 0.0267196753830314 0.0423650952297722
Ni 2.9401407047004855 0.6435317300106301 3.2878232622182386 -1.0133463178544484 0.1924108190676751 0.23251694305994147
Ni 4.10559543159723 4.693120262583455 9.86530394614954 0.3306626355944434 -1.3573084987712754 -0.7140490839451638
Ni 6.347304035138797 6.743420279172776 2.140436797148727 -0.933670916209992 -0.322527922302451 0.6812857734712138
Ni 0.014836333303207116 8.526579583728045 0.9793723656923186 1.8059454315903736 0.9023687636626007 -1.1315430155025543
P 4.25690887728028 7.783151195681693 1.8870805571659692 -0.46396739252858155 0.10155086156130899 0.3995692287581699
P 4.357363511894079 0.8083581996799619 11.635128364511191 -0.31509717705601864 0.36355115879234806 1.2876454870574985
P 2.073288274594862 0.6408785136807574 5.314120860670245 0.3360979476774018 0.19461631135942611 0.46096897202189
P 9.156273117591184 7.847554134161341 5.822267868257098 -0.8265880690868603 -0.3178343734815236 -0.5285506757266057
P 0.5382513520188739 5.201670672155809 8.511836560697187 -0.9872447356713902 0.5467450872474454 -0.7503687443118044
P 5.266035909515318 7.128320439965019 11.101805491422656 -0.6730489873837183 0.02893056699142114 1.6973662024273735
P 0.7599999154040171 0.28462460649910964 8.739727579081187 -0.5050523354943496 0.2679583145866869 0.28698756330399605
P 2.965683213595531 4.205126388767593 11.621499409580478 -0.823316340314124 -1.2926835637020382 0.9106392312015091
Ni 1.4611540374370644 8.979775323654422 12.62689497344963 -0.5802738151325103 0.9818431050398444 1.106578632247733
Ni 2.2711437530910974 6.054309779968544 10.516834911325937 -0.49492038926667026 -0.5676224449170869 0.002259999678770301
Ni 7.140375373129875 6.956752067486599 11.821344564692117 2.165764119923483 0.7658339298269391 -0.5311960837692529
Ni 8.529294064378147 5.899499555392484 9.98232633800899 1.8057757387817288 0.33738092815488346 1.404145256619156
Ni 1.2908675030434154 3.2410993215003754 6.186217516587382 0.01594289648250157 1.0000053777711682 -1.474176707415945
Ni 8.283200002662413 2.4027866393409503 6.227437093764763 -2.9410625375974315 2.955093304658885 -0.07684693105672571
Ni 5.5365885729220645 1.6590283664933698 13.412511857460968 0.0427661873229328 -1.143336665703373 -0.11080940404509948
Ni 2.186985427657938 8.35022316899181 9.588097035038034 0.1062544376845654 0.3049078952278426 0.10004779465322124
Ni 7.062154974118812 0.46663713178439203 10.727178885868643 -2.3188913109001867 1.6164697838916227 -0.17565905353063296
Ni -0.019912789130096992 0.7569527223686783 6.2780772383372 3.4500476324872844 -4.077006253270843 0.4532788024664839
Ni 7.3971388518453125 8.782824672041555 6.932629948292839 -0.4845814692345074 -1.4635549660360407 -0.3825513540439347
Ni 7.5032015280799795 4.52466223251661 3.2008053068224385 1.4350715138843673 -1.1082598766048979 1.26154724730855
Ni 7.858619412922517 8.815313612322448 2.5270514163793494 -1.163624212307815 -0.22262950874290047 -0.27530138521531944
Ni 0.19241426433198802 6.241184807223919 1.4318225659679198 0.5569454248192149 -1.1249249959654046 0.6521497753372059
Ni 0.1438900951274259 2.6350066888450585 8.26326647791624 -1.360014584848529 -0.11341598843001112 -0.16711913438042186
Ni 2.0755880429234197 1.5868872731049273 7.634718115577363 1.7107750196341116 -1.1011587467837423 -0.18594860838209912
Ni 2.8697150122784265 5.88986691919664 3.383655739502838 2.504333926180145 1.2224757352283848 0.5277754881234782
Ni 7.2879375573589655 1.6493297533372806 4.119859650402309 2.73320324518517 -0.8615064782306001 0.7895125043908016
Ni 1.8617944158878776 5.232274556429688 13.656074288959283 1.302380222164512 -0.03654694588609835 0.16559729841925672
Ni 6.608902682512226 7.65135750495128 9.337554241145744 0.6601551621401857 1.8213458253058439 -0.34276944616030647
Ni 4.266296456195211 7.045123493095437 9.349611059366609 -1.0723667622527144 -0.33587143348889253 -0.2187299165781781
Ni 3.8411503496532102 5.963742264111536 12.536028676215508 1.482818442251343 -0.8014851033716455 0.0696486135360736
Ni 8.234970844722948 0.2735819484100191 12.750952394327257 0.0939427101967479 -1.2268939189007386 0.8150592425116544
Ni 8.243491297874654 6.637216223737583 3.8315054605933208 0.6389451037214738 0.8584471225789861 0.5925878566131729
P 3.5914087045639027 3.1879784432227085 7.830535848530015 -0.055794481261800685 0.23158286128144634 0.8412996642654221
P 7.578094803238663 4.606011824499317 11.803342279825127 -0.579685289618892 0.21657173258459475 -0.6339656482290115
P 5.688109374765885 0.6812507581829855 5.470016877506346 0.7383277539868703 -1.2794791491966222 -0.1496042654251101
P 4.6250697407302335 8.458491360754685 7.871272851369601 -0.29102676637037617 0.6214585169009361 -0.6854157364791874
P 9.101323734986712 3.206593371291976 4.352730044228838 -0.4548911412589262 -0.008254783809624492 0.3364458179351238
P 6.455675904982058 2.622122331037115 9.378456186385943 -0.8367912348721072 -2.4033044843399445 1.4976642490149241
P 6.928504503221489 0.44833512301228884 0.7105812871241266 0.6723650739428163 -0.41838481880277617 0.7626498756720027
P 2.2011704741107216 7.8048670408825 0.738254851835102 -0.00812597154124407 -0.3277716871998936 -1.9907956647019713
Ni 5.246261672001736 7.345384639172731 6.0499110017761755 0.21363913231883208 -0.7294109111132148 0.9227887220798495
Ni 9.550919017939691 1.2608479861317106 10.737345935442475 -1.8839812407488779 1.6508642022110924 -0.13398712771314342
Ni 5.7912879153098205 0.8783983981485868 7.815002987032217 0.5475557560741989 0.3356510899479703 -0.972390701377693
Ni 3.095950008960264 2.1337891471399906 13.226433266368556 0.6754488550744625 0.7533674219288122 -2.047707290287351
Ni 7.1141259682322 8.577033107755788 4.724543203692382 -0.67189661894683 -0.12075931616895978 -0.9123135335801383
Ni 5.2321991541894075 4.506905004930534 2.862983477277378 -0.9204425904451762 -0.5750627032452161 0.4640797497367298
Ni 8.839480030332373 8.585836319308545 10.509758411075605 -0.16553790593623105 -1.9477906218953553 -1.3564237821734768
Ni 2.655252190360394 6.068579653941644 8.014117682941137 0.40242161060530046 0.09937365140433208 1.8152690229841446
Ni 1.2627424674187602 2.726158572064242 2.8952075671892863 -0.5073596434712875 -0.9786392533905661 -0.08901827631193701
Ni 4.239293028894729 4.980553602533017 6.866718022479577 1.0082737884275472 -0.2449415419765395 -0.7864950577207165
Ni 6.346625414976272 5.390440180698235 9.669955592142633 -0.5826873096700094 -1.24300419419904 -0.2398690125496385
Ni 4.162392169088576 1.7761280456491066 1.655147036174927 0.3820337909775679 1.3606177656501666 -0.041834162426966665
Ni 2.406547326074944 8.447190449992634 7.05435555488979 0.5391608471422843 0.6433113511099695 1.2820926755600695
Ni 7.797185437653916 7.098385750573629 0.36930603497421566 0.8173367256919214 1.3224016595917611 -0.016296423167178387
Ni 4.198773750023954 8.303238148016977 4.131985273167429 0.061107408834281854 -0.9286498088463169 0.4757996092768193
Ni 4.3332819214044695 0.5998464995760742 9.510969968511038 -0.41493208436748535 -0.1506800149877921 0.5398761280417541
Ni 5.869121877839446 3.463809263449096 5.37288748168892 0.4279801758006952 0.8472371127957796 -3.314099781503344
Ni 5.569982340086325 2.7587229145854164 11.313253166257468 -0.13431365781462673 0.5119122958389764 -0.19973794885670762
Ni 0.5592631288010603 3.983255296741994 11.230125023932144 1.6941518092551338 -0.29344437467293333 1.4123483612552385
Ni 0.8664179246960065 5.031648045603143 3.760862044202452 -2.2957786361421233 -0.598644090109582 0.4603277388934653
Ni 1.5959355419385968 7.733395142376547 2.729987120814488 -0.45301912104719394 0.04009841068278256 -0.23485587560576326
Ni 5.457557599827984 -0.10232932281277513 2.531699964492647 1.3990845542667971 1.5916164722933686 -0.6028157049887682
Ni 8.228995217180712 3.3591603792196896 10.008550294650572 -0.22548780412730196 0.07212638565260482 0.3709379381747225
Ni 0.33621764688309125 3.611512826878712 0.8573140467101303 -0.4372559446756663 0.35486622942384044 -0.6968008383876774
P 2.513260346632032 5.234791106199053 5.342841573993116 0.5454518223573187 -0.7854517040578667 0.8832988915153432
P 6.364938734084419 5.748751626511539 7.356338699629492 -0.8271046037119628 0.25849176985714833 0.7421970071342895
P 0.9669300535180197 7.479204765110685 11.251176386890478 -0.020232267886474836 -0.9973710254721146 0.5429215997362972
P 2.2251483865199453 4.423020012618392 1.9446049262760219 -0.45417688880072105 -0.2768450755533555 -0.5814776056326244
P 5.71747854735517 2.3047166005760245 3.1889831780744475 -3.545456385706597 1.7553304376469836 -1.387180089519727
P 6.003083382977926 6.06747689617754 4.410737930204689 0.9730859276725048 -0.28044487708947186 -0.8088608270104262
P 6.93071944402973 4.463850325730324 1.1820696105425703 -0.24334848645780668 -0.5646103975636405 -0.12582953160301555
P 0.5826368807600358 1.602759444683989 12.844743355956261 0.40129083943496696 1.2001673015391716 0.8110598915442742
