# total energy = -381163.82162925927 ev
CRYSTAL
PRIMVEC
9.26463167221535 0.00000000000000 0.00000000000000

0.00000000000000 9.26463167221535 0.00000000000000

0.00000000000000 0.00000000000000 13.55972493561562

PRIMCOORD
 96 1
Ni 8.628568586644874 2.635954535789666 0.47695899951905624 0.7522147963816078 -1.3167514032845193 0.40189736267071435
Ni 5.711163798699793 8.99600388736194 8.966870325923844 -0.767849160484755 -0.4917659027980885 -0.546898324995858
Ni 6.5987525921919215 1.3308180476929634 5.968692771317854 0.05320075239269547 0.17307612329480515 1.4678929312897622
Ni 6.9418867634641845 9.087482862633758 10.981845306553835 -1.8965963584097274 -1.1861385913602476 0.5725036842687883
Ni 7.600426062764986 6.198705787225635 7.525742012181516 -0.27351549695949023 -0.4297177273170922 -0.2713789102324617
Ni 2.7187803448771737 0.7991430587007624 1.1100400168521207 0.47275696579575355 0.5250303212781733 2.2325652367084325
Ni 1.5775629887922478 7.3791588593604045 4.974968354905538 -0.5425122801130204 2.650648722220706 1.1956488448435278
Ni 6.556413224459269 4.943394489427883 11.812636347787365 -0.03171070083971958 -0.8955820797580705 1.2598562327593723
Ni 1.6730906081995514 4.282464915099725 9.540500200425306 0.9029701446920255 1.5483502054055658 0.10747879700996973
Ni 2.225299727310494 3.6881758379490215 11.831782636049136 -0.6175910635257299 0.6450967251451665 0.9392980325887822
Ni 6.6286402946657805 5.408682832156387 0.9034276081695329 -0.3756561695859982 0.4139969741477257 -0.4884494368303458
Ni 8.08139016264965 1.63784794849386 4.1271331703858465 -1.8850163668816113 -3.0389061255104823 0.2590185888948959
Ni 5.957936533694745 1.1613957243391313 1.4418324257658912 1.7278296611235535 -1.4767328981788952 -3.379999983740579
Ni 7.0791422848994685 8.809812580289048 4.532555314774121 0.14174028929600105 0.5292276471889724 -2.122883004289241
Ni 0.6647456762032306 4.1025364991837865 2.32923500015705 1.7177509367313126 -1.5239059563202721 -1.6134870471142149
Ni 0.3156043176141505 5.4369677533134535 11.140724478818004 -0.5072701690812749 -1.651861276017039 -0.2598354283692364
Ni 5.294440656333339 6.728475967901461 11.112438631197751 0.14095044640485405 0.19390463000438218 -1.1305613683155755
Ni 5.397694978736054 2.914810691016165 2.4984738837994804 1.4121105342128197 3.779360696032369 -0.11783031544762287
Ni 8.930150883895049 -0.026250407994244437 6.031162331218889 0.5922564414156832 0.38883435883916906 -1.0480248430732402
Ni 7.759370087452378 3.421762083349426 2.5603606983546983 -1.3732804487194994 -0.7930485425685181 -0.5662186225910248
Ni 4.0642087170590635 2.8410642211798605 9.294296313828339 0.11222942432107769 1.1571067229042717 0.35548920771982
Ni 1.0789960883185163 7.803136208495935 7.3825654645059835 0.2380034200958095 -1.9392735855632797 -0.9370172069744056
Ni 3.775541316662131 4.561107983792778 3.5173925401706976 0.9901014883938949 -1.374079290471711 -1.354892690240931
Ni 2.0447969042174385 2.8890642789966816 7.849358383453259 -0.9461117130765061 -1.8212753770792245 -0.9470018289909431
P 6.077061170523288 1.2130831056477673 3.6173551388632577 -0.6738267460900073 0.1596217975621122 0.9836652458502477
Ni 4.4612352520295415 9.434637884145841 2.6108575744655997 -1.0522555933251363 -3.2942359526998817 1.0447549140727166
P 7.098838892295445 8.19015694102631 6.527515911134342 -1.061958679545513 -0.4472536793183265 1.7959037310836554
Ni 7.607680269534059 6.551067531859326 10.457165114637816 0.028396548864822065 0.2771489799470195 0.38744930556618434
P 2.316454440466198 7.580646073682007 2.8589458871887867 0.22398885098427232 0.2017863467453041 -0.5332066864413785
P 4.329853507211873 4.473436772227331 1.3318529070749627 1.5244086069883036 0.4994175058060754 -0.37220189248881064
P 4.39620680080077 3.8014544920556164 11.371958573208754 0.7596846223960917 -0.34788285612747183 -0.9860915959035534
Ni 6.684783963913017 4.020859504450512 9.673006671554294 0.3504778705481577 1.19424939339284 -0.8285253953188892
Ni 3.799990680217157 1.9316386903254 12.580414921691164 -1.5798194796584404 0.6036582554947217 0.6106876515376773
Ni 0.5085374973126549 5.644671535632563 6.2828036302715 1.0159999534272115 -1.6759661394850427 0.800908147822253
Ni 4.802914876095235 9.067109937109885 6.821870869047921 1.5875474444303175 -0.6513385922898202 -0.2777071664433346
Ni 3.502679378267804 7.842714715925669 9.562508333477583 0.5472366821718834 -0.46239104918039725 0.677645091394833
Ni 6.354787040659332 3.0867715235075783 0.09427689410229102 -0.5884566080536188 0.2772024588927742 -0.451665435232777
Ni 2.5060458674423463 5.558779133389801 1.4991628943581068 -0.5331609208051076 0.7396891531107712 -0.2517901894672567
Ni 3.0283024316562073 8.10670113697035 0.4258061874704144 0.4279809471316436 -2.772839885740186 0.23266940947740578
Ni 3.7543994266914718 8.514798907048164 4.865162084830933 -0.6356396934973246 0.3267026225054309 -0.8442160665812687
Ni 3.6952354874484263 7.042102286607314 7.304881526116862 -0.40665698884288676 -0.6419018723569525 -0.3240656991032161
Ni 3.6102232252351185 2.117968966876626 3.2535886323742287 -2.9338721904965794 -0.2305287089853191 1.9250219607402717
Ni 5.394192947882018 5.399158790574513 6.127179123189931 1.1025044621783593 -0.03392647754411576 0.7465856231202884
Ni 0.577770238492647 8.84387863174484 1.063231390696223 2.0142623803653437 -1.1625623467022044 -0.9821074144448247
Ni 7.102183424407369 7.404951594539333 2.4748666752831627 -0.6077884756130113 -0.10853577751957437 0.045694416713321306
Ni 8.976955804198191 0.43064139885327457 11.046158528200777 1.9096830163903562 1.7548717528430098 0.17738220686932676
Ni 7.836386972345494 8.188961803512631 8.834581573644245 0.20816242547497696 0.1887814498452039 -0.5769452649799096
Ni 4.59387698678411 6.7497568273504545 2.3974273231759096 -0.5453497495618157 -0.09228769109182816 0.39357573017889635
Ni 7.615397707897582 0.06116417326787688 13.35721076181251 0.1690592888259282 -0.19434763107907177 -0.621450032260504
Ni 8.214198660778221 0.5544530129544546 2.0123855160170203 -1.5577128775673883 1.305507454939584 1.0212547740682476
Ni 6.374168650571085 5.246811183792077 3.3838021071106965 -1.1037087668991057 0.21489537332343636 0.6430208164527441
Ni 2.491491130744754 8.741031953145239 11.757760080182539 -1.711167369976524 0.3474735365041951 -0.560944261565963
Ni 0.16625937802693336 3.020677639611574 4.506439243942267 4.544123247172 3.1044839114112923 0.3205489441992092
Ni 2.3431551095702474 3.5927871880200524 5.129264313774226 -0.32607270223091583 -0.22991138711629436 -0.0040962815565606875
Ni 0.15036868141094972 7.525113870139442 12.137350577937951 -0.304794766688746 0.36052368481993396 0.8575675481875101
Ni 6.5864676903071295 2.3539206118252456 11.166826652702026 0.8488455949334799 0.3008483804464883 1.808841522191246
P 2.3134249058385006 5.220064191528583 7.509768860341721 -0.08151039797066607 0.23331244237804333 0.06696361050474274
Ni 9.15542040827567 6.505837598977311 1.3935460908237007 0.07834254176564573 -0.5088089743233044 -0.14980558280263878
P -0.07097541843830989 2.8694047301282595 11.890075699894616 0.5412732654995969 -0.8820652762185583 -0.5914072060415105
Ni 4.319560501183213 5.4875433787954115 12.704269153099032 -1.1213416494895203 -0.647051534878692 1.9598146429394245
P 7.033995733704454 7.154417418997456 12.739727678727737 1.1110204700691704 -1.1076217288002668 -1.479251036615059
P 0.6832369549904517 1.7418341768158054 2.7104125293550445 0.7314631656565532 0.22023863991322068 -0.5078049585388221
P 8.543269120843007 5.2813960546336505 3.273412165227086 -0.5491917490157252 1.877079628533038 0.9969699333789539
Ni 8.667822831958496 4.694148097718573 13.008264886956288 -0.2408113218582498 0.486334190259556 1.5249981609431866
Ni 9.381180958146409 0.48081308638487313 8.256720541759085 -2.4191417084825177 4.105647828266935 -1.093986397405019
Ni 0.47076559310127114 6.4685937787836 9.134088593351287 -0.1431407691879535 -0.5649379561063884 -0.07480059005065828
Ni 3.5474275502915917 1.5804164954140543 5.808430389512659 0.26035222010465486 0.2557468601221595 1.2173749236667097
Ni 1.9476387095976737 0.7381651045338541 4.523280491790061 -2.2950361015491443 0.05818432165021593 -0.7427341105846822
Ni 3.358725527976786 0.7167823341340813 8.542884638619615 -0.09336446909577469 0.018444322748116623 0.21737057433680626
Ni 2.658819647291676 2.9716584722869652 1.2286171139360251 -0.22746703934085988 1.6315012243034483 -0.46364908995721443
Ni 3.6010234457693584 6.213269788555117 4.914966892939728 -0.4705890116101573 0.15714891054158742 1.1352652015491482
Ni 1.6669296279933776 5.5301236269571765 3.867314907228019 -1.3769812946098545 -1.0015259281807525 -0.8655649645706899
Ni 1.3673948143906682 1.301134167120662 13.087847148419462 -1.5831264325444865 0.8735325561571988 -2.180595528509361
Ni 2.002948561974902 1.6056162941520882 10.568544519207169 0.20501539520556303 0.5530409475584862 -0.09892242279952641
Ni 6.4653140990949 3.7686947536961726 7.407379854557436 0.2953279648488914 -0.9538291363254219 -0.1464145548432188
Ni 9.131221189781648 2.9250666385172694 9.491631120137297 -0.301209620440649 -0.7228782522010195 0.9681054437387778
Ni 7.384254406899346 1.4774215827042303 9.184449279373421 -1.0102208848515892 -0.3029641412379105 -1.1762557850288968
Ni 5.643448604223217 7.176763711113682 4.856849857100138 0.4742186379429446 0.1033622037384349 -0.26280556674115385
Ni 7.65568959198277 4.175634444787862 5.217361698406567 -0.9782245344506507 0.910015224464265 0.2880828532507039
Ni 8.686203861626238 2.6174993890668117 6.722125062741563 0.39676518365047153 0.10465752551109073 1.1053918110284835
Ni 3.923710574462636 5.20286903474263 9.023075141741549 -1.359229369943072 -0.39230303411405987 0.7855208667329052
Ni 5.617711456835623 6.480100451589716 8.885077523291958 1.7291941455712476 1.261101932241015 -1.1860902546208152
Ni 2.4234238802563954 6.161573142614591 11.060424208383433 1.2608286239749704 0.9579462438175889 0.46553293724348854
Ni 4.651836523881588 8.56456850955578 12.054067096035128 -0.22761153533852413 -0.3444337212366068 1.1996949898884437
Ni 3.863119881908687 3.842292989422254 6.7866152388575856 0.4976434446247881 0.3751815439424248 1.4460521812655869
Ni 1.3398603284166108 8.84552773622108 9.562020087377036 2.2238736224717055 -2.719248068556659 2.475225953070595
Ni 8.231857049158622 6.751044611183024 5.092300285463563 -0.7832647237088768 -0.4346251919210386 -0.5788383682375644
Ni 4.762298729893932 1.0447632734887242 10.571310938289221 -0.9248520323667814 -0.11981623552940011 -0.6516424966834842
P 1.4702785515178245 5.968952181010746 13.207538780719611 -0.5058864013598707 0.3523486052083093 -0.964600515909313
Ni 5.311209640052398 3.1147136532847512 5.236711808569897 0.4504634445048758 0.29888919983758844 -2.250521821186853
P 8.850206375325016 4.54860999537454 8.12524522415934 -0.5676432708526933 -0.6563926097739599 -0.2514968265965539
Ni 5.72659867542684 7.868146130460928 0.5943326209205819 -1.012285737800418 0.6752290257541725 0.5835805109082401
P 1.8764863366902842 0.37999906802171574 7.088468063358918 0.8388288341274264 1.7525055666036788 -2.441103814575906
P 5.630839440222312 1.0368605424874218 12.672010631324783 2.7737906796892293 0.07154454500720582 1.114564735777003
P 5.119014851515446 1.9068465353904815 7.582869585335362 0.46116437586214776 0.04231598715939164 -0.025434123802388454
Ni 9.047450388241463 8.117253552691903 3.4123186440649858 2.265438076177053 0.4066454188786609 -0.23211739362867767
