# total energy = -340867.17979253735 ev
CRYSTAL
PRIMVEC
9.27901564784759 0.00000000000000 0.00000000000000
0.00000000000000 9.27901564784759 0.00000000000000
0.00000000000000 0.00000000000000 13.58077733789731
PRIMCOORD
 96 1
Ni 3.825561770672269 2.9638567214576534 7.56314826791714 1.4422014400609289 -1.8776141608802694 0.3976262460991862
Ni 5.704775817601087 7.746224170739586 8.666871381925441 0.07974970652581748 -0.3574658718302166 -0.6374577205426699
Ni 6.196359498359296 1.5505605985393913 7.822813164302541 0.931263335209764 -0.05756391445739764 -1.1701347597328235
Ni 3.7331427767436236 2.025701863911902 4.682190270531627 0.1826200582294984 1.6893068224580066 -0.3549377060917242
Ni 2.437235478342559 0.20905621819401385 2.717798573334999 0.15955751998308004 0.011101252119484107 -0.3818332449309876
Ni 4.463865243799931 2.599284204243148 13.27928345623785 0.43907140061785027 0.47106235170215005 0.9310519905299062
Ni 7.928361965099564 8.088731189202855 4.50974162410943 -1.728613076256797 -0.26872038956369204 1.0236613266272114
Ni 2.2929282299913254 7.863538763133147 4.266591519430273 0.5993933095707806 0.0040356035219543404 0.8451061824957059
Ni 6.923054872708271 1.087964562061612 12.740710841217124 -1.884031377260523 -0.693468945800967 -0.1364697849256811
Ni 5.877003623455462 2.9371609939945293 5.805007742542575 -0.8076398101191316 -0.13864930907550316 0.47480484946371776
Ni 3.760989102123128 4.3473764837818365 5.908439072012839 -0.21127166052792 0.8947716680416332 -1.8153471845202478
Ni 5.216792394839294 4.664626022177457 4.205056800540996 0.25869745811005124 -0.3072702248124321 -1.28250173807303
Ni 4.642449175240764 1.6062254122520363 9.338590445508508 -1.847974997857598 -0.07831014586581352 1.6668304957323616
Ni 2.543944156071417 5.030089324875613 7.800295777498661 -1.211428733385604 0.7385419268802056 1.3683002218960887
Ni 2.413174991268566 8.085409301670078 0.3910065764418069 -0.3502855520316935 1.8815757166311788 0.6802676166193447
Ni 8.677280581462504 2.0919447552428863 2.55233053023936 0.3388073761887649 2.161131506247478 0.12470235997710781
Ni 3.829282655869597 9.076083386689337 10.49021276519543 -0.5152968960404932 -0.6939880515292306 0.07410613508679495
Ni 4.012014307218674 6.5521076718763975 -0.1046190434484628 0.4345632283348516 2.695824547426396 0.7070266298807436
Ni 4.88412113275799 5.297946664005954 7.935587534434126 1.1050560249556194 0.3874562475447198 0.08599568743552931
Ni 7.2816053088926855 3.102967721154265 0.25553016709879495 -0.2610068229695182 0.29846908158103436 2.06284543148037
Ni 7.327777689795189 5.688723120864484 3.837669957939085 0.2787669751664167 -0.17053921580556436 -0.3739373871226786
Ni 8.200097932689964 0.010851808574252072 2.396653704251502 -0.9695933411382139 -1.32769350411832 -0.8737269315561919
Ni 6.428214257525466 1.4845867986565933 3.6504045796388493 -0.39671916090388454 0.1644063634349491 0.0582488563395642
Ni 2.636520893262792 7.184045740402147 11.827281776153468 0.5181755031398689 -0.4154966986217038 -0.30062186625797904
P 2.865870318256198 1.006234993936762 0.5774247806310301 0.4001772946558141 1.1352454040548061 0.02779773893855858
P 3.0519424151689614 3.750411024504789 3.5888290330815713 -0.3915332458275709 1.8405403959564237 -0.34832328609900015
P 8.713830623338502 9.177549420686297 12.621226815010258 0.0054221994568358235 -0.3302468882132635 -0.9463852784528668
P 5.888453928526542 2.2871381243476034 11.000022288109728 -0.869689785372341 -1.2811565368990452 2.1444144506031133
P 3.61548486077824 4.772438902745422 9.902939237560798 0.10904614149708963 0.06863791288337211 -0.7646468514973735
P 0.3429728250390936 -0.07296553802790182 3.9595294121023494 2.5166520814258657 0.5467911099940326 0.2756621109888478
P 6.362917825770861 1.1960372550623082 1.3828757986516282 0.252528610295178 -0.11256366773204485 -0.37167018835505666
P 8.935756835968162 4.992778403732331 5.126906572129777 0.37788274492367174 0.6076581206827342 0.46388254612425917
Ni 0.7127573652344944 7.678004849116754 6.077615009684169 -0.5545962078607481 1.5001070541284616 -1.1808809425057338
Ni 0.09914442433019968 0.968590028237112 5.955089322211259 1.1676017088983246 -0.4101277210003066 -0.26871858979147917
Ni 6.993723854411138 7.253063057354081 11.425874351288506 -0.037410065217342026 0.6800673276830804 -2.611203114630574
Ni 4.260552736172365 2.394078777462828 2.297554747097031 1.6712772186498057 -0.5238887514745623 -0.32817869283032514
Ni 1.1434159584187993 2.518658838957405 4.293317867644397 -0.21216743286931203 0.3217324229843491 0.9617571329232468
Ni 8.97910839617244 7.733818127076676 0.5502484001673537 0.9580328899941242 -0.7671248807242208 0.7906453324436642
Ni 5.679722475873442 9.02731288145952 5.457611610836235 0.34963403449062364 0.9151566594558884 1.3992138807558094
Ni 8.525262471268428 1.3486585012609384 8.241182629418665 0.7622829792508872 -0.6280199721685378 -0.29872747744874356
Ni 1.7208305321328292 3.0271303278431385 13.004164359612673 0.0844208867492417 -1.4906839610423488 2.1878596662709415
Ni 0.22301742484713027 5.834032502884824 7.3125833019881465 -0.06572896676669325 -0.6635654733733153 -0.3089725522155195
Ni 1.6671514277274864 0.35601169755601453 7.795352845965953 0.3639260256332636 0.07040297520359487 0.91754341452051
Ni 3.4774223898280074 6.138931671710261 3.113813962319244 -0.8985756151687556 -1.2822767665464176 -0.8293671744938943
Ni 7.965617212150117 2.961249318114887 4.927526511251907 0.5095317114219418 0.28496719043985763 -1.4655115755417791
Ni 7.516011797308894 5.94604877745376 13.257432302743617 -0.16411505744677543 -1.703293366545086 -1.7347204747061158
Ni 5.660746889268615 3.633662452053964 9.440269896860926 0.23254419675345112 1.0747026094747427 -0.30744248872423824
Ni 1.7640985811980172 2.9889007841698434 8.440412370246168 -1.6742725538327035 -1.2460452950182088 0.3013242916416423
Ni 1.8505604472047559 5.47732859077589 4.897636018767735 -0.8353334193796581 -0.28989033877308784 0.304844646090075
Ni 5.756014540941848 6.011298814131093 1.7577740042641052 -0.3694472125618089 -0.7521101524829434 0.163966190573737
Ni 7.569644506636964 1.1767925770092948 10.384283524764765 0.49594831631055225 -0.40601986947952007 -0.3877588663868031
Ni 6.199254551181157 4.087443423849795 12.154822670589878 -0.5886818366905475 1.325326803658356 -1.1112441560442021
Ni 1.598876432011927 5.334357520650131 10.600108784732969 -0.9820169116135474 0.6378030196972306 -1.0997952907773123
Ni 2.837717785366689 7.041909781667308 6.598750498862454 1.908642490940984 0.6167829658021378 -2.6727720364823067
Ni 8.377336406889869 5.562936787360798 1.6289330188727371 0.22861503690237403 -1.2052372598629113 0.6745949917145995
Ni 1.1171934607438643 4.743952325299545 2.5818146018466157 0.22410994994316888 -1.190762463285504 0.6552623528242585
P 6.709127171400548 3.9473581275304412 7.551713737172334 0.5874901303752914 -0.17711146970644337 -0.31784671477669774
P 4.731332864281176 6.433438343226453 6.170398668920184 2.4682047845577557 -0.3042625483343599 -1.9317124853865701
P -0.05009276493210757 3.4859219679844977 0.9883738170880423 2.124525167878354 0.1290997177138551 -0.71119824475993
P 4.933401983837812 7.852524571788438 11.886561694287257 -0.02334561670447592 -0.3592664153740651 0.2744480360760886
P 4.409054099509116 9.343040661320574 7.941888913829402 -0.5414817819659772 -0.33584289424380226 -0.8106508290313137
P 6.382635733612063 3.908126450188041 2.3444499633034543 0.15996041184845355 -0.006819336914678577 0.7078519539955164
P 7.555336264805843 8.478718929747737 9.345014307907785 1.0233062572806377 0.5331480652893011 0.07007001734420835
P 8.568623310488164 4.971362436062922 10.810610673534823 -0.16551296623556658 2.0541116511517976 1.5751886657546486
Ni 0.8455428600956483 5.218351269435681 13.062316877368717 -0.02586812601601351 0.4246187155276301 0.8324792377603146
Ni 3.514788985064017 7.0407962998127465 9.35544392127885 -0.7971700209360594 -0.8625310628403726 -0.45273707103040095
Ni 7.640536184710744 5.548851241900588 8.659714477305243 -1.0634679171011878 0.7042123003604002 0.807956312918286
Ni 7.126126125934014 6.3221829479248015 6.2254965347885465 -0.7548303796275839 -1.0019082512208357 -0.18207138481488
Ni 2.9969549695845084 4.226860631056411 1.2228851583788887 -0.1803420608285991 0.9902467557225074 -0.30888770581119707
Ni 0.7054074570928398 0.7468753771598193 0.6576112484857664 -1.1361159795852174 0.5909415792590016 2.056386049008271
Ni 3.248462683483698 4.673431807843952 12.152487142399933 0.47136394210296884 -0.5020636851796708 -0.6545563278961695
Ni 5.271594260114653 7.2701642828370625 4.171661623919591 0.3992509261868027 -0.974705979774431 -0.20308809627586316
Ni 8.659260733449509 3.4643482570523587 9.444901053474359 0.10927985477445051 -1.0818291932171948 -0.9773994674461942
Ni 3.3685145854363903 1.9113565564638406 11.378558795681986 1.1928589408032164 0.6182364104192127 0.5117747418198477
Ni 3.3593098021053445 0.24100294050294283 5.907012887337453 -0.5894786215602299 -1.396977021005491 1.6859389344270383
Ni 1.4536969562079527 2.97712571355785 10.786219853510644 -1.496160667886204 0.7921627975294552 -0.5189447772057255
Ni -0.011679496752809819 7.057285110275719 11.765978104749012 0.20388333848364887 0.037507767137470886 0.27819207649955313
Ni 0.3806177907387435 6.876650516419399 3.3488430726724614 -0.46948395147143657 0.2358092406579681 -0.48171263232714456
Ni 9.290335853537973 3.4308788483073167 6.770071744906907 0.4670622294038214 0.03283478714183377 0.6199328242850292
Ni 1.8793996272379114 2.3609526922896085 2.1769303298907845 -1.1029407783848297 0.7729839106081591 -1.866643777911695
Ni 4.452684030177037 8.066238855740703 1.9910094809299326 -0.22958845655923685 0.41841464359944713 0.11296578826646995
Ni 5.509099939692726 5.88117918041007 10.2422552026092 -0.1598503686331505 0.16431688904493635 0.8680553350927114
Ni 8.908225997114116 2.0657408155988604 12.318457180231672 1.1658291903789342 0.8327582024533141 -0.5188938693631321
Ni 1.6752705662503344 0.3092380364520471 12.298697516820923 0.47557180953672934 -0.28763419574905946 -2.1831419490802983
Ni 6.525718151923279 7.961970559076427 -0.03804210756111043 0.07602957736175293 0.2782851504339917 1.5267696510213125
Ni 7.922126466714016 8.311594582393438 7.08749480089153 -0.5890003963722308 0.9537795140344091 1.0480528680976982
Ni 4.845065756709228 0.19501335620489618 13.587567609901155 -1.6889561239868076 0.40048582703516833 -0.23196518432152954
Ni 1.3768388711968111 8.037492465862094 10.205166049935286 -0.6506878460796987 1.1859485868366286 -2.0361172714569062
P 7.297630168582924 7.402891319900851 2.093300419400815 0.2382191356510413 0.36626135863465953 0.7381884001955287
P 2.073034121746242 2.350504520887635 6.2173337848930625 0.15075097743504362 -0.7810103804570614 1.9381852375951072
P 4.717033901465508 4.792472297112083 13.814230759920433 3.0675554138160592 -3.624943839709964 -0.49626044823433246
P 4.52934725586363 0.3001037736384569 3.630141993590457 -0.3360236427960406 -1.3261837523420128 0.23288178259852796
P 1.7644047887080219 1.0026811310176182 10.226461390403784 0.16523400154256707 -1.0268523227606832 -2.1153185616784214
P 7.3166892663268435 1.0522217945301722 6.001345214252854 -0.6840638504369831 0.22158049865309581 -0.3015837159506161
P 1.7000177004679746 6.499439980155615 1.4266337797328237 -0.6568512945779333 -1.3936991215851675 0.998485598692532
P 1.6505698271099676 7.340592010138108 8.104301377135814 -2.763925356859376 0.35208635268585814 3.0108715879707693
