# total energy = -340854.534026661 ev
CRYSTAL
PRIMVEC
9.48720496939367 0.00000000000000 0.00000000000000

0.00000000000000 9.48720496939367 0.00000000000000

0.00000000000000 0.00000000000000 13.88548345408067

PRIMCOORD
 96 1
Ni 2.3079807930570926 6.7436001015851 5.917742711561124 -0.6319038806039763 -0.09915047964993247 0.6849061438326204
Ni 5.019774974676344 7.830995063450267 9.586107094616148 -2.0112382488270395 -0.8490160590730732 -1.4024298165899458
Ni 2.0139533393798437 8.940514187098325 1.6581765152925174 0.8364346228636369 1.4549001185745203 1.3737087945061697
Ni 8.135458442496805 4.46076040146311 11.229370672555953 0.08910877914321427 -1.1069974649527063 -1.3359552299064799
Ni 6.608597176126038 3.3262899289775727 3.22364026960428 -0.3607887655558625 1.2526278333317329 -0.7886565841484096
Ni 3.4740341705920477 8.799610220203174 7.377745747693303 -0.46800299605053597 -0.7316678254681915 0.6755992646093978
Ni 4.655532717673549 8.853943442557641 5.2627650609748455 0.9523484380148372 0.7067461225258473 1.012110131454502
Ni 5.1391334992863555 0.1936158259354242 10.98072336598681 -0.3512450877314854 0.9963037605498648 1.0805459556293973
Ni 3.103520871162799 7.918410169225376 3.9316191389797077 -1.0412975516517355 -0.0250955095160471 -1.1180300686177842
Ni 4.205772795871879 2.7543822443308277 2.7548936046739234 -0.6330799031899484 0.8351755536455551 0.2725508190533758
Ni 5.567158234705262 1.1120616945562114 3.680333440733109 0.5627761725683791 -0.865146903196665 0.3359575654447956
Ni 1.1610156717430533 6.343714415843746 12.024800699085038 1.0890429373568147 -1.1465657141636316 -0.9074798596369211
Ni 7.192724380659731 5.788475750173218 2.591017319879505 -0.6224602186925732 -0.4508851054233267 1.110105414454069
Ni 7.982667007885547 1.4942822048088256 3.308188342064299 1.504386912450738 -0.8845337923637088 0.9895389310222055
Ni 0.6152879289658992 4.660731705948431 6.557850117216655 -0.0836474989183269 0.31066896608133593 -0.7228047186506068
Ni 2.068220151300141 0.3316024773296146 13.215078705563576 -1.4358775547254303 2.9639664387787987 -1.1789086492707115
Ni 9.253022715884095 6.49340353445886 3.3436240010159604 0.436089692281707 -1.7688076461978117 1.2365496968229477
Ni 3.8344720584374934 3.8023863315293736 9.611919881656839 -0.8704117511400301 0.13258510515929423 1.0752564250956838
Ni 1.2157283822927663 2.555900431011851 10.341005884451896 -0.6811952706399365 -0.028289590973312573 -0.7290830954601508
Ni 1.5500005590759423 4.054005979387789 4.2922249503515495 -0.8690567797740324 -0.7522847303875947 -1.4335879873603052
Ni 2.9171257568624336 4.914106486709863 7.660731992329845 -1.032832451603518 -0.7281875802290749 -0.9732882734912981
Ni 8.017228895267651 0.4209007932736359 13.154412773950927 1.1408043861998223 0.36511721772788736 4.224082095847145
Ni 8.471191648831681 6.840682669134122 12.39051631900588 -1.8321578283196835 2.248306044482457 -0.8596390860045583
Ni 5.060180980265251 4.074697573233622 5.377750932855126 -0.13235936230173334 -0.9595045894436441 -0.4610237365192254
P 3.190717771225641 5.324836047630395 4.359708387391806 0.9261314132998374 0.9061030338940523 -0.3391549893361707
P 7.875471079933197 2.0541601136662457 7.378496185599404 -3.1704707598250623 -1.159570611063732 1.4043627719466008
P 3.1319824858063114 6.726779287330785 8.630646896151474 -0.6258239929584835 1.9487149334818374 0.735047797684018
P 3.1754528585718367 2.09446176000146 10.793991455913163 0.5834588977287114 -0.29622630829344465 2.498809653927806
P 8.073952893252173 7.678336449707347 0.5277912332288124 -2.43061962721513 0.08024592943594568 -2.1477139472899918
P 4.282704540253294 6.8655770947423145 12.94190887181758 1.1043625984330205 -1.0983053364953472 0.24820864276358545
P 6.664808865046976 7.411157785843811 10.794755175906095 0.7945978893335088 -0.12383641243238672 3.2623463030801365
P 5.897417323823704 1.1341004714951715 12.978664200968213 0.01988979694539155 0.25824057307829074 -0.8032473374783908
Ni 2.0351477550843797 6.262105479455914 2.458980094666297 -0.21198334188296394 -0.4315192993022052 -0.3714393032911732
Ni 1.3725518789785214 0.19682914222867678 5.7392864903053225 2.125365918612095 -0.749575816096864 3.9345663668046558
Ni 1.9735473337909368 3.653200034772961 12.407332389657753 0.5708612635693587 0.2494018917407382 0.43108015488225754
Ni 7.686182368144074 1.9025830412797782 1.1363517852134735 0.4491886915575103 1.9214190738803616 -0.9776491215631551
Ni 7.25510275275343 2.47981304786486 5.353159149082643 -0.5469397197567549 -1.959416636170058 0.1920521501766757
Ni 4.782547416622665 6.3388000437153 5.4304599457339355 -0.4222445588684986 1.0244905073967259 0.3472187401809117
Ni 7.199223116003334 9.345636809934085 1.7542221313480275 -0.1059425628711014 -2.3022902120083963 0.4771957182933975
Ni 6.045190027052822 8.259892621718242 12.798694770533864 1.4079391764439493 -0.2989154250898336 -0.1317986047022569
Ni 4.533897263892057 5.762186705447493 2.521992212046058 -1.582751565703571 0.7416431915133486 1.800031380098784
Ni 2.172228378412418 9.388490514382335 10.256109631572738 0.48776603761007614 0.629168226840368 -0.22800722811504603
Ni 7.656591776119702 0.1493257586681659 11.198461359053098 -1.380621976686235 0.1556414727581255 -3.91277343929928
Ni 5.457704351991193 1.200302187155982 1.1927911670515592 2.081586973753931 -0.151819527908874 1.0440144363622665
Ni 9.30986056032719 8.20268477628478 1.9774456262766098 1.1234558676190458 2.2189430179393073 2.064433859013412
Ni 6.07710498427308 6.550298302131242 0.7537508380451244 -0.5261227830114036 0.3538550145505067 -1.039072261865643
Ni 4.306479475685509 1.5196035546366706 9.203603865658076 1.0630989637975432 -1.6310857340325846 -1.2756546332442096
Ni 9.312820568250116 6.0128955816373155 1.170735313143813 0.3796105262480559 0.23049579886485466 1.244683638783992
Ni 9.078885070290202 1.3807677984056155 9.04793401308587 0.1967698673673192 0.373422395159473 -0.0934914815919422
Ni 9.175180199834088 3.6037716973420606 2.113939940342992 0.22121000268755453 0.38458869618893765 -0.8741053979415333
Ni 2.2978674326537645 3.9691998549550016 1.3686792019460274 0.2577278951079303 -0.6823083011984571 0.5249768423324185
Ni 3.487411129474499 1.5159225191427763 0.7075016629699044 -2.0948921755032694 1.0759022862097987 -0.24168781092593214
Ni 5.477561071807484 7.888639320308261 3.0841461013544715 1.2025347733300837 -0.15549980497393864 0.6200608652224612
Ni 0.08278629851358556 2.735578604256347 13.564950693332861 -1.1800476479711612 -0.5997941445536251 -0.41280115406741164
Ni 1.7780350155997664 4.776617913571934 10.196096419655913 0.07884930619873518 1.5153225855266355 -0.6653338781276477
Ni 5.379026961911643 2.8270921825401216 11.458106233520496 -0.6205069516209443 -0.3577582062596548 0.1262733040086535
P 0.6702634350908203 7.789090079490135 4.7376292963922735 3.368026870539103 2.4702896921112423 -1.1535693991749745
P 0.689236896132674 9.061665793430878 7.810195315468788 -0.21348023814346456 -1.1807364465080699 0.17509803882084038
P 3.961515219001253 1.3786995877415202 6.979191116796777 0.25605616383246227 -0.8752312840158605 -0.6914246616774286
P 6.652883448511344 9.008442574047509 9.133607268044797 1.5887736035279347 1.9894064976639287 -1.7034502038379244
P 1.0956393429069047 8.52173947643856 11.860327669103595 -0.48114570408008106 -0.3779506220471297 -2.2024766448531685
P 1.5517841535936023 5.45289433911644 0.0784487484419142 0.4471323232491138 -0.1363481717461523 -0.5355060239985164
P 2.344032171605542 1.7611667653210445 3.6623381105145048 0.21199696872971877 1.0993834000508742 0.7736261721778483
P 8.957913720850392 2.087517126028443 11.539475143624834 -1.0368539140580852 0.237180667084198 -0.3059170532186474
Ni 6.75802065300448 3.5419815319509937 13.476736764906757 -0.4567677894563488 0.04084145949639418 0.3242091666596158
Ni 7.988084201872695 8.634618240114731 4.168255644169289 -0.581538797887863 -0.09110781185111406 -0.04979404070399167
Ni 0.08062511324165482 2.075354529370782 6.383156521416726 2.364084619607374 0.9516969204737674 -1.5169907172576778
Ni 6.2307123185041196 5.677769556414835 12.171417860759629 -0.11322572679607597 0.19716350326131207 0.5219663376408689
Ni 4.7696732795989165 3.251919729914074 7.66673075197621 1.7585497159152297 0.6384540230176682 -1.4306726134857233
Ni 7.116779305585958 6.4190902586246485 9.050002223749965 2.8149900367456744 -0.10647298145327469 -0.9882374386019627
Ni 7.590124418722219 4.5812194418393375 5.885806882490127 0.27206385211462825 2.200078062714004 -0.794567807426522
Ni 0.06691230730641036 6.757565267170183 7.865445950535263 0.5069775775415204 0.40985672672710705 1.2177945277026316
Ni 8.867595530381646 6.7087820596712024 5.651627563364769 -2.6921951782039244 -1.884371277098445 2.3176651518025695
Ni 1.055375645391215 7.971491080535527 13.837537063978663 -1.8338164469690288 -3.1138802650245276 0.40344079589843423
Ni 8.772211172506353 4.879440240074064 13.370373813542972 -0.10753304728667287 -1.7648034101344252 -0.7122966200304314
Ni 3.2760931279512975 7.304787244716122 11.066910827450295 -1.205795960579859 0.8533681653941819 -0.4540758444464825
Ni 3.938271567042384 8.816061033467125 13.718107385332043 1.2576821079261888 -0.4143258182420542 0.1614267119813349
Ni 5.848472833841742 4.781333054397876 9.960959841558045 0.6131052598402345 -1.09334413583533 0.8680589346371372
Ni 1.9415090429072224 1.2087742611148677 8.239964747865342 0.9386807107197576 -0.15768035756502521 -0.6297973757839348
Ni 0.7024724956623957 0.2441370893686356 3.810592763751586 -0.7935385948310592 1.0086638247771145 -4.147250591409386
Ni 2.689281044436233 2.9526268775277753 6.028646239181035 0.43425058219043927 -0.8877093618782131 -0.12070429456130824
Ni 3.932427448835583 5.153933538900983 11.583686467091578 -0.06010082194663842 -0.599058037718549 0.4342827209799553
Ni 9.042947538200327 8.680621696583529 9.715505928151902 0.8129177706886194 -2.527446086717576 -0.5951504751340266
Ni 8.749887779420957 4.080721948333165 8.547764776868586 1.499497702679237 -0.11872480223743424 1.0550159296790926
Ni 5.008684432170256 5.89576655017438 8.128131474167075 0.1937706755296792 -0.7356000706430621 -1.47346708294343
Ni 6.502530225554547 7.384688484225343 6.950614706974202 -0.08254912364782557 0.12408041012239276 -0.25053960488960725
Ni 6.682417117306429 0.18937694279451706 6.554947981243504 0.11778300714945522 1.1412502154879893 0.1499691049636966
Ni 6.878337385307489 2.394684358466114 9.423063786410298 -0.33757298956103154 0.48126037528107446 -0.4086994731942123
P 6.844705244003738 4.34554778538617 7.836620027224313 -2.7820871153700666 0.3230166890134114 0.998637550889364
P 1.4836375609321515 1.9434444327029814 0.9530200893692385 -0.4521642292460665 -0.49088478574471583 0.7470337664013005
P 8.926169533317994 3.544837180620226 4.168755619866527 -1.3702429474447564 -0.39108767364971997 1.355748353373007
P 1.481379606170433 3.2172345088685135 7.893938872954883 -0.7252806909949251 1.4051536432790122 0.8707449661097326
P 6.767868371671136 6.850226797244581 4.867028129928029 0.7230073215797161 0.13053645016038165 -0.8738472591841401
P 9.426657539619285 5.995828100056089 10.086956563423412 -0.678077036725929 -0.11948867698665226 -0.4696616146998815
P 4.0922394150589065 8.982219939755952 1.9718918165391723 0.4537014918261993 0.45496493191965515 0.7987242527970567
P 5.529446595302608 4.366030660724618 1.5068802641705323 1.6420414617131398 -2.030334603336858 -1.266802325059902
