# total energy = -340867.6578909735 ev
CRYSTAL
PRIMVEC
9.26022316761038 0.00000000000000 0.00000000000000
0.00000000000000 9.26022316761038 0.00000000000000
0.00000000000000 0.00000000000000 13.55327264349572
PRIMCOORD
 96 1
Ni 1.6589690066422265 4.525332230036039 5.826388975493642 1.5475729609199091 -0.5370175755470364 -0.3980453359144758
Ni 2.1340555035262496 3.656862186564416 0.9046460318687677 -0.007154608766910259 -1.0664951339632858 0.28031092261476886
Ni 5.357057707399058 3.6837631352905995 12.940909276743678 -0.3913892640505388 0.531256247583227 0.4955251127302046
Ni 1.0478035281639664 7.907610274903804 1.2977702922035845 -0.2895733217533013 0.8102705628737594 -0.3456393115089338
Ni 9.122644175889159 4.728381146634666 10.436155921703635 0.19017910152367892 -0.45327725980458705 -1.4481951957505188
Ni 1.863731064553881 0.8093888927081391 11.224969524231152 -0.2316170569534914 -0.5706650883981527 0.22899915971467014
Ni 2.3212601780352045 5.088437149516403 10.32714642489989 -1.9332286649207802 2.5941659566426294 -0.9026104473597616
Ni 3.595642850237809 6.881920160012857 11.85606392930274 -1.4697965760703784 -0.9351446725420411 1.0276213397162237
Ni 9.075963390164999 8.292567018275971 12.060379644450675 -2.509118492052982 -0.9787276993393145 0.02792346588314546
Ni 4.949413416908422 8.214318131275544 10.714228389522543 0.5531023969240408 1.534160801279061 -1.5297904401255074
Ni 8.562141379159934 0.819601993000775 7.85336296071005 -1.7936871830483108 3.0050390404493923 -0.4051788616354635
Ni 7.732138303333255 4.172851089824877 13.42780996653127 -0.3273109455133911 -1.9367143094765353 -1.1202463595428127
Ni 4.055033268605178 8.257054061868086 3.508969012066612 0.5515095985156244 0.033135091991071966 0.275414513754416
Ni 8.411255300487156 0.05517426254745026 10.221634514441714 -0.14060951812566752 1.0489784652357612 -2.0399520718219644
Ni 5.620825908265355 4.287751940700773 4.16164066348136 -1.533091222363966 0.5638460085937903 -1.2790220070545455
Ni 7.681392279574398 8.052838357131936 2.2004420444618797 -0.426872030338181 -1.8064509104718827 -0.31340487695526026
Ni 1.5920083318611493 5.804808025061157 7.786653237980774 0.08893548679014361 1.3519480057903106 1.1005915614263626
Ni 0.8870460514388251 0.3188989403641735 5.862088988412465 0.19073060315177476 -1.096066162752183 1.019068050829574
Ni 2.2932943036279507 5.794658820309385 1.843828066585831 -0.1337153621089955 0.4195724113529742 2.082768652766858
Ni 4.187778569806497 4.232792515334199 10.977269662858719 1.0805726951022745 -1.272642585890763 0.3218722909963231
Ni 6.6808344107567255 0.9960388798406058 3.4279068692234933 -0.8149648830256351 -0.09268724052309198 0.3341580503422116
Ni 6.682491990729871 1.7837227351238567 0.3370304576123201 0.3451055504926508 0.41494776809676925 1.090039239831813
Ni 8.145542452724989 3.3395235938285945 2.1375003065989313 -0.32309767876299195 -0.1649673781447417 0.2564839953985002
Ni 1.7742680471206096 1.2987185390709035 13.660073035639831 0.4669023067871894 -0.7117240353564129 0.28475198910525795
P 6.491796212031667 5.333805286658458 7.283230457756949 0.14371309675165572 0.05003983816621059 -1.578612603834533
P 7.647833230285693 8.851291852128973 0.18995218276611775 -0.5108180343335331 0.5685328725464982 -0.18227810150904739
P 0.41510432639212075 6.484693620750089 2.787122566476491 -1.2294776204675149 -0.2670139483955466 1.8546351834865928
P 2.8726416548004745 9.014382905129157 1.7368113698391856 1.2971356859361207 0.6046018503549137 -0.875334385252628
P 8.793313593962147 2.2165177921343937 10.145492328245142 0.8596236593855905 1.1584426681068758 -1.2546903722877165
P 6.697975084110311 5.078399067444395 1.574836173748298 0.05959148641038769 0.3171599731223183 0.8706367226666424
P 1.6262526376750648 8.294752430977995 12.774610482387644 3.21053163240169 0.3702313990260011 -0.18622525908225346
P 3.236003557405187 4.502913229393667 8.354942030472124 -0.9828329797569397 -1.7662082609017515 1.4980110908313813
Ni 8.781497549013917 5.7057236356049925 1.0377293312210354 0.7704367187062732 1.3597106804548649 0.6053631540009703
Ni 1.483580377081502 0.22843952290235234 3.2619747797106786 -0.4989835035924503 3.053370894785561 -1.3578522870898873
Ni 7.7196462620831285 5.417415842957495 3.63344308180417 1.5846775790816903 -0.014376837546962336 -0.9162645478080865
Ni 2.85307480293871 2.448208579442172 7.328024009969788 0.35369689170608765 0.9735081028115878 0.6543670947034989
Ni 2.6232731011869186 7.91101803708323 7.002664211799673 0.41098775500775675 1.035633668497739 -0.5495103086974085
Ni 7.5450540117273786 7.809350045322555 6.660146145851678 0.636464246281149 0.9344635873146164 0.574716632759707
Ni 5.972362505698524 1.0914747413111878 7.683798085591287 -0.6808949657906983 -0.013476694330196144 -0.30698843190595515
Ni 8.458500959833449 6.142435767077207 8.30447010932335 -0.04990485525024309 0.10067051583888469 0.34060406307787144
Ni 7.542609312772573 1.0367838624207106 5.629988899234222 -0.11392146731151993 -0.7565422201123679 1.1597140786201316
Ni 4.096602411060198 5.884390384218753 7.16672666222546 1.3222031704277102 0.5756350308089183 -1.8149694894658548
Ni 2.224185257038105 2.1097566775512053 5.076107162174265 -0.7413251460522975 0.5763549396940784 -0.21579525942988642
Ni 4.52283196974135 4.719648756049885 1.7894112903054382 0.5465944206021941 -0.3799419414455456 -0.3019727238589186
Ni 1.5965551015081567 1.2044587259611559 8.688623991334225 -0.821068681930528 -2.8443453499793403 -0.28718682379899574
Ni 8.712018093491524 8.525730181090623 4.293812756859563 -0.7458022079870446 -0.6276800723306158 0.02648107700966407
Ni 6.249382086126669 1.7976223303176606 9.921158788360067 1.9448922173016374 -0.464050182050375 -0.341982688592953
Ni 1.733300819180977 2.9338424706804545 9.927229790764503 -0.0320256609769771 0.7248369185892871 1.999452311935705
Ni 0.45753466961531175 3.8123135553308307 8.213852342042864 0.07959312634329518 -1.050369689156333 -0.6321458214114533
Ni 0.3632628182152568 8.334275064080698 8.30220598472316 1.919875897762958 -3.0392645372911655 -0.18864595270860413
Ni 6.3017116080721625 6.35242985116108 5.309006408624475 -0.9728887240600342 -2.773587562539488 3.2985474355910416
Ni 6.294488633887508 6.451467939500676 -0.2634524272513016 -0.11286654368444432 1.4248264391175913 2.0588255116876994
Ni 5.350649632866006 0.01846118119811299 1.587711588243611 0.3195901798303657 0.33622367462198866 -0.4418967858817873
Ni 0.5630651005201149 4.304253658645715 3.676935572641438 0.03261058694616964 0.9359766815250331 0.21537925493839036
Ni 1.8299219892357077 7.577538875111699 4.16352511892569 -0.17480853260487958 -3.527545309754131 1.7076012498918203
Ni 4.2153184739413225 7.294176041713696 1.3821494470376563 -0.25622508531015875 -1.3606496473293663 -1.7223097597465886
P 3.404039569654865 2.231408231222759 12.123660306486904 -0.48654219250530395 0.6590179632119488 -0.5040053822870739
P 2.934027675146728 0.09781018272820459 4.955943726389215 0.0004427439643734311 -0.04356040108945401 1.5444588407709594
P 0.36698172389802275 2.376247384071719 6.43783133464898 -0.5072616844408425 0.6572809259161841 0.18288231075194952
P 1.5270386050925093 2.6590916449641564 2.765680519393711 -0.2731329168090909 -1.6123719596731652 -0.019023849400670464
P 0.6750017539133082 6.821099013288737 9.867270770830885 0.21056692115141157 -0.45156361954759006 0.8311124393197751
P 3.3277260693269914 5.314303256359889 13.530978114468759 2.5064643422595867 -0.8786498227791062 0.10206893884830807
P 5.760155228242687 2.3255106205361744 5.690531313236601 -0.4430720371368111 0.07549427368357321 0.5735519230276445
P 3.7494922003709594 0.6090041423568517 8.36358922700242 -0.09883526240235882 -1.0503115822248879 -0.5898174929568873
Ni 1.1789745914019634 3.911768353719541 12.279292249607936 -0.3957827651325441 -1.4748693626075955 -0.2992517253833298
Ni 4.853727529408371 8.884897202534248 5.894900737679757 0.08902316140794346 0.4540627318203599 -0.5025982175269021
Ni 4.935874970423851 7.91989859124103 8.012003550385689 0.2665400940829216 1.0195226218684892 0.8697293803610247
Ni 2.729497122817915 8.116437570850154 9.489893520240948 -0.4652110351276956 -0.0934940526951035 0.06488101694410116
Ni 8.276269025243929 6.035887637630234 12.026442778050775 0.8461649627775234 -0.23366056974608143 1.025166707528144
Ni 7.215797511586875 3.39765001556844 11.26491071942763 -0.5120336519081891 0.8920606968683733 -0.4276657298840699
Ni 1.542142029317089 6.0534820619261875 13.092421346512461 -2.5673408660299852 1.5084307435028084 -0.768097014829503
Ni 4.372520024914018 1.5578566282803705 3.993648174281256 0.169062888370354 0.19179169742643742 0.7478979141738087
Ni 5.083399588033772 3.394760825894578 8.475796278916372 -0.10662339098820992 0.3603732752849987 -0.7627192954573574
Ni 4.056987175724361 1.9007163964686398 10.038299687255538 -1.6027035833454657 -0.15090267252155948 0.47839642346971806
Ni 6.257984833585059 0.5157388772309917 11.912337380357522 -0.9693832820099371 -1.0375478548013164 0.7136317939020871
Ni 4.451972740945223 6.225351806627721 9.632337979340992 -0.05822545930079649 -0.777464572087332 -0.24191998154139624
Ni 7.457507860520035 3.183701816129634 4.624146220971444 0.8516293283262042 0.7606770682163481 0.7173097569743065
Ni 7.45435938459339 3.255690792170029 7.719388827875008 -0.5962845887384698 -0.1992851775900052 -0.4414553274689945
Ni 7.244763490112005 7.3155856780148785 10.470662291837327 -0.941352858235282 -0.5727929333744328 -0.4430424694504564
Ni 5.901401414445946 6.696567530166634 3.214389270168773 -2.088749038720009 -0.28240791435311363 -3.1719499154737503
Ni 3.086330567986497 3.761336025989131 3.655548160876208 0.5742116680988305 1.1098133371349468 -0.9477343362815935
Ni 8.363944819577664 0.9147952366205393 2.0137448301905136 2.0781067285148147 0.6379642278654432 -1.942716035585925
Ni 9.149017291886462 1.8651108378276164 4.057795593219643 1.1610376825275617 -0.09371208224318055 -0.13398635638219503
Ni 8.764949529952407 4.901936251979286 6.282714259944189 -1.6794574404677527 0.5560545375738295 -0.9530020124384361
Ni 6.608345382657394 5.177789044269909 9.310298897251158 0.06656920327980148 -1.0046901848413472 2.30219765229459
Ni 4.023974479611161 3.751362765480319 5.8189761667310576 0.8278702782333934 0.07250279515541708 0.4408338918349118
Ni 8.282010363698399 1.4348345615583946 12.076183141557769 2.0442036480094665 0.6546365463148017 1.9526399795678564
Ni 4.223726756710126 1.8741765964516894 0.5218033974791078 -0.6742424934711873 -0.2355135637944202 0.33677414780882
P 4.815001275510644 8.28348273920527 12.931177708063352 1.399364804511377 0.49101668333688986 0.5292908963267401
P 0.7331902191493548 7.080644552324006 6.210462293561687 -1.3164798947906875 0.1902598341629433 -0.34163533255586326
P 5.293134385864861 2.574536545887125 2.311660104525933 0.7383948597793799 -0.07900562927094135 -0.29237273887530935
P 5.990790350092708 5.451261959168923 11.546019614471088 0.21301923934664604 -1.098389154458405 -2.125885024340358
P 3.7086453553344043 5.795408898397792 4.264049473107128 0.3354256042007256 0.10179023126562468 -0.10220520731585625
P -0.0038133599605652737 2.553117649362629 0.30456133660763335 -0.7320684033407199 0.6905371168661526 0.3017500663251513
P 6.4382999019486515 8.23424613184654 4.555891892993449 1.2989521703195694 2.673465205894589 -0.6953558784110346
P 6.893041688212564 8.527313679277258 8.763966094236496 0.5799755671658012 0.7135340919819582 -0.7612519668832116
