# total energy = -340892.3451502731 ev
CRYSTAL
PRIMVEC
9.05263166654532 0.00000000000000 0.00000000000000

0.00000000000000 9.05263166654532 0.00000000000000

0.00000000000000 0.00000000000000 13.24944149802317

PRIMCOORD
 96 1
Ni 6.4811865151591235 1.632886576545485 11.341655001515504 -0.6557063823402126 1.9033038523368897 -0.18826028723441127
Ni 4.547281824090775 0.1630831629113851 5.841666053381387 -0.22171033936274073 -0.21795755718852786 0.2339217938272681
Ni 2.69979355673334 1.5025015199030938 4.806646063648101 0.39822737001829484 -0.4681004408603487 -0.016449918025907156
Ni 3.5284714769613825 4.428013399369293 5.052727376481037 -0.5019811527681934 1.3406366945425492 -0.6517512543472066
Ni 5.010514048866711 4.55676898227735 2.6983677672157964 -0.23956870770040029 0.1892069674183967 0.0004131762780186433
Ni 6.9174781075273835 5.966707341438344 2.8022702546224973 1.2587501441793871 0.1777881840584938 -1.3969924476244586
Ni 5.235100792617395 4.328352975250978 11.785272888845972 0.005362806973810119 -0.08806645392162897 -1.636793325940323
Ni 5.725943544558455 7.967791613520591 12.356323769570128 -0.372426606905107 -0.47837071243810514 -0.1337968660792083
Ni 1.9153377431287835 6.530378516672332 0.3398557157175577 1.062012929822216 0.08902933205553054 0.08127359936951163
Ni 3.009484092575609 1.5673093113703491 0.39898207543109754 -0.41225890841069646 1.3149966253769418 0.2962563902004317
Ni 0.6645727151799552 0.029357685113606542 4.4005105985232715 -0.06307558830424621 -0.4212623974608874 0.6758792577436619
Ni 8.663142371752581 2.551710604809696 1.5001414987778647 0.49511784998945696 0.27614599260380185 -0.12532122450802932
Ni 6.919225265475865 0.6325245878783241 4.845585959582785 -0.283224496717138 0.3621509360107118 -0.7410199561070528
Ni 0.5756749650769248 7.28078738186114 2.1353864025293428 -0.11068393421082874 1.1717807799766788 0.8705081675085782
Ni 7.260654328610242 3.7793108530985777 3.8601979292709787 1.629311415740981 -0.3928684196992266 -0.9096902370246785
Ni 7.7030202369548295 3.7813386426346396 12.675965863613257 0.04491614378640007 0.6892798474202839 -0.2941439718431192
Ni 8.29094341293484 8.722337531468238 6.6443167517561665 -0.5472490234670575 -0.002774734531659737 -0.1280771899866117
Ni 6.95791621403447 0.7604889707620418 0.29173554581626665 -0.1358421786440112 0.14760163317278452 0.025981254555110096
Ni 1.8653219521165492 6.529047779789292 9.362837488012946 -0.03666470241088524 -0.17896652063731117 0.10595207595279818
Ni 0.062475833500784526 5.028012786247101 1.31902820899606 -0.30554655725310603 -0.615961755452423 0.5253625078066113
Ni 6.23847640242989 1.8574190045050234 6.95120006645945 0.7030614745854086 -0.06559346963009348 -0.6962267110517623
Ni 3.575038215235941 4.407310030311378 0.5044588155178032 -0.5212274025923151 -1.1756618601986397 0.9446976063377989
Ni 5.9855006051743445 5.571234066115181 5.044446934121058 -0.20575330181285212 0.6280030028876733 -0.38449433670291844
Ni 5.317624584629617 2.7066735569449776 8.989507855476216 -0.33590768604346666 0.6184654957108833 1.0118249961139156
P 0.11663501411415914 5.865408390953837 12.559158849493807 -0.6232107237053525 -1.5406975739563145 -1.2127016865607567
P 3.964256121945627 6.0456462912350295 12.574541986809116 0.31542293582655356 1.9911473916144353 -1.2772325192542908
P 2.4898449186961016 8.610926791198995 1.4160344014537798 0.2411797609412621 -0.8385511549860075 0.250109202220408
P 6.388741038631172 7.623547181878557 5.9238123506451545 0.42009434529471523 0.22034534069441408 -0.8647936336223041
P 4.840777201540124 1.0404189793730496 12.481596805002635 -0.6363575454999557 -0.3048155926243525 0.8450940983108477
P 3.928199489257531 6.116338293409606 8.391109879173985 0.25829790867878744 -0.4848164680634489 -0.09293997996384638
P 4.774557199503111 0.9753939247412162 3.8212580333362953 0.5999689795685925 0.2994910950876455 -0.5148114717636424
P 0.11911181419034869 5.688112596026305 3.6374488697873515 -0.6164572070316029 -0.6171038394766662 -0.25589855520867544
Ni 1.6016640492692502 1.2277088798711704 2.558361573435341 -0.04437492657094938 0.5955664796255227 -0.22173219373961164
Ni 1.6666166828462243 6.6021296767742275 4.862319749571221 0.5475940655113022 -0.7127015687783339 -0.6843764965813955
Ni 6.081422292335545 5.390896586883557 9.39264870998261 -1.1626667334905523 0.8490682524672474 -0.9770204868402205
Ni 8.52027373577881 2.0630133266188433 10.24902587316798 1.0072641162161102 0.6950681719672869 -1.234222591351668
Ni 2.316143018615965 5.409146692708113 7.00218448908043 0.15529900181704223 -1.7546051294451845 0.578299465014959
Ni 0.3422818210553457 -0.028972042996480537 9.286838833043552 0.15195142550104795 0.6030234501242002 -1.5756182970928994
Ni 1.4749724664246855 1.154581719726948 11.564576966267607 0.23796511065870632 0.24363773556345136 -0.5168038196033228
Ni 4.088666441562123 6.9268294762360965 1.5509131845501936 0.6359117162117887 0.24879279740182955 -0.18691045807473614
Ni 5.464575957571083 8.013905720202278 7.82107923006016 0.8847893600179407 -0.8478099545801141 1.6437445604471754
Ni 5.08239194581461 2.7947918754450836 4.886659560846262 1.164515099553201 -0.3169002917030284 -0.07536443297392828
Ni 0.8708378373144099 7.180882536682675 7.06737158582251 -0.8557852594761068 0.5870281031372083 0.794975841498218
Ni 4.9702298371012015 4.497483296243119 7.290916371646405 0.5888885533847149 0.15471021919310776 -0.49496641201325725
Ni 8.503245735255009 6.954937898153379 9.545534083106613 -1.3957552327832476 -0.5141882363573467 0.2510204011807677
Ni 4.477078664036498 0.5768635756398038 10.226819767221734 -0.00938915452438383 0.058787502451853595 0.4586503511910423
Ni 8.040185510484362 7.447917071212791 4.335283670201018 -0.222078778445753 -0.3128019532639387 0.7372594606233561
Ni 7.3753783321393 6.023259132651634 7.245126349185213 -0.2810215755285483 0.33104624418610734 -0.13467515491910356
Ni 2.210516910103612 5.598935119598881 2.6004807536783496 0.5208111409905031 -1.43009437238475 0.33695978145706484
Ni 2.0729712216620033 5.357981217449987 11.408895235162847 0.7012496181876504 -0.4768157092461595 0.3394982316082024
Ni 1.408906359129249 3.360011050726691 3.8179058437594935 -1.5524331172256876 0.8984555446511236 -0.7950609450128566
Ni 3.666234428567569 2.6957922934523606 2.817374570876599 -0.14347372704734 -0.2889004640559928 -0.5954885751997356
Ni 1.1224810871605437 3.3883005252811222 8.05978083740293 -0.33617842320635005 0.8123223031964656 0.32236594280329
Ni 3.6486089543411766 2.472328076051998 6.90603286507005 0.24908821715506135 0.8008258725210917 0.4610080527899415
Ni 4.157375917359925 6.757988839463393 6.154869010384334 -0.4159772378025481 0.1387297846044514 -0.6770696785073371
Ni 0.9130122386117488 7.66136907777885 11.707008360122664 -0.15189511834181582 0.5207376074400902 -0.6696597591965112
P 0.1798549739536234 5.409581219037269 8.30970499245934 0.40528787640950203 -0.6082867554056685 -0.9084252542693259
P 8.480188681914164 1.4763394138351558 7.746909206725963 -0.44726807749602965 0.14206604806653597 1.4927907229727064
P 1.6993872101700775 3.2131592567356564 10.296340358833962 -0.3861652966474382 0.4351643522539603 1.0416086551342512
P 3.9694704378954997 6.322928405027741 3.7579393998095854 -0.07904805247310256 -0.9684211752069838 0.6750626753796374
P 6.895625054223577 3.614761163826291 10.268145031650848 -0.729399341148989 0.0605016569294829 0.895519087730619
P 6.396969880989563 7.680352446783855 10.099161363294797 0.1313157515285674 -0.024514183091280364 0.15107133688893984
P 2.218899647203581 8.408319837598123 5.800181462631582 1.1476692316404558 1.41181562868022 0.9820007136636312
P 6.913712212674697 4.086140757273903 1.4838847824883135 0.5842425699722713 -0.5781912215718688 1.6981976971897337
Ni 5.5283698542703075 2.861500719602397 0.38719464348955357 -1.0805174163843068 -0.5750542186047838 0.10805883788315584
Ni 1.4559800447878226 1.3239111986199514 6.97576528826774 0.22089812787409052 -2.55921695137127 -0.47438010322147334
Ni 6.822479788815639 0.6376900196161669 9.083088532039087 0.19259002495801672 -0.5429586236218198 -0.26590246049892274
Ni 2.3787600731737255 1.5152385729264808 9.155483334266046 0.9682746223267905 -0.07167181461368947 0.05844348884887354
Ni 6.475573883407524 1.8950417425044523 2.4849193817024804 -0.38693817025772076 0.48945525238704085 0.815436680455731
Ni 4.139171074694658 7.305220435244311 10.290073221799071 0.09695809998430399 -1.4804648544175019 0.4396267589006881
Ni 8.127154144738578 7.610592865690593 0.15182168888075714 -0.10198126423050824 -0.5152938107166996 0.016315449330571902
Ni 7.667914130611763 3.5401855825848814 8.1072673230742 0.004894609088139958 0.6426297516619126 -0.1598159158507893
Ni 3.243060099760708 8.487466997927529 12.506439942608948 0.08492687985138277 -0.746942749349391 -0.34970499693787516
Ni -0.15035878357259838 4.456185189709578 10.584422262432573 0.8956805530091477 0.7129622786388883 -0.7637629062305233
Ni 8.797845533790962 2.3929908104535866 5.7173589337680655 -1.1287477121456042 -0.23517854905250468 -0.45381976257161843
Ni 3.5268691611226193 2.6715312400744806 11.510306438282386 0.31720985252364725 -0.13701305902366082 -0.1216517460762421
Ni 1.3695093052857659 3.2558695738389543 12.65507148402315 -0.6098600134300594 1.0877501866873203 0.6936602358761667
Ni 3.0590834625224024 8.192188252002268 8.116806986525548 -0.739588622977165 0.9956674125174465 -0.6806324561579309
Ni 5.607824804082866 7.871743189513387 3.595288952700985 -0.17149155241650466 0.18885524050593283 0.5597440706102746
Ni 3.148939886339133 8.485982366302911 3.6146597743494873 -0.3221034331705227 -1.0169504902659388 -0.13562312065466967
Ni 3.477586633290836 4.174693602103166 9.59981637951325 0.4860536829046598 1.0595762953562653 -1.0902328438998579
Ni 7.132849272047215 5.958559972766668 11.404867719249483 0.6977421192550242 0.7768837598831976 0.8011832558605105
Ni 0.7532052231695633 9.442800290472706 0.4731946461350245 -0.9473553556756201 -0.6016903331350735 -0.6935183109816636
Ni 4.632385616182361 0.4280582236939384 1.7103436105071104 0.6352671406492543 -0.8131735954531674 -0.5694479281616
Ni 6.072740818384282 5.625893857270272 0.30230630403617365 -0.45273552836850417 1.5549147459969608 0.7679946849236838
Ni 7.967510981933011 8.921730800759727 11.202270723543654 -0.0031385456289816913 -0.8641590853620988 0.6522302508661542
Ni -0.052637433198142645 4.761955935957586 5.829794431963569 0.586017659594823 0.6685978935909002 -0.4153961684880976
Ni 8.133056460709614 9.141438175939262 2.2513189324113663 0.04538382745143797 -0.25991153302281045 0.8921987651081343
P 8.646005739646489 1.745917737917206 3.6271008063111374 -0.8784914428243709 0.27164039142396446 -0.5033165837501654
P 1.8847489000825681 3.351773155736441 1.5916554594876888 0.07891538354998022 0.0668291418094075 -0.11236723545052262
P 4.4855700327187575 0.8978038170912866 8.057290458378954 0.1505900263771471 0.09238127924689896 0.031180796478178556
P 8.6693886877342 1.887383215953077 12.436164361499811 -0.8321820182348701 -1.7166453623719597 0.7708267550558402
P 6.4529423037639795 7.83617539894559 1.5176176045786103 -0.6145234803439997 -0.3321577320827312 -0.327658558660797
P 1.8774343735417744 3.2110680987765927 5.865687212015046 -0.26043475251613213 1.2698778786614322 1.5491269356705901
P 6.8627187374218614 3.8027752748730053 5.903129802640512 -0.4626391606354613 -0.02448153008113203 2.2015582468039567
P 2.1872425935981905 8.69694489910818 10.294418485090631 2.0235214370697667 -1.6659781750343954 -0.698869290880932
