# total energy = -381169.99476788397 ev
CRYSTAL
PRIMVEC
9.21582024441805 0.00000000000000 0.00000000000000

0.00000000000000 9.21582024441805 0.00000000000000

0.00000000000000 0.00000000000000 13.48828447708585

PRIMCOORD
 96 1
Ni 6.460151620628379 3.680669508129683 2.9310712934046954 0.6336661147107215 -0.3742793438431296 0.8710365292082225
Ni 2.192028878969683 3.49808568121771 12.976106874848387 0.048729603995219306 0.00071270979630845 0.05206535323667163
Ni 8.411748970206457 0.8990060110241797 10.522264842379567 -0.4147940161277243 0.6388078068126611 -1.0958494187556869
Ni 9.320235295320298 7.469588038614909 4.376260252591585 -0.05003829550431382 -1.3662130003497568 -0.3249714987469371
Ni 2.893629259688869 -0.07821097847118669 8.859024051220468 0.3945895161553914 -0.3751722879710442 0.013254551017061043
Ni 5.339010247766014 7.051715109901524 4.259667226759053 1.6545691618665055 -1.4132536466783274 1.0838145990783399
Ni 5.294755879866191 0.5257275139706137 13.451043239754801 -0.21384559190268332 -0.7015414383964563 -0.2840667901127753
Ni 6.626165403083068 4.59826106345698 12.478024977876085 1.881290324180276 -1.5333069379191981 -0.46145902428443103
Ni 5.01908305458768 8.360748622027028 7.749006173163409 0.1360902900990753 0.24484615404925572 1.061264738802282
Ni 1.8277551596909851 4.062674465192483 6.4631946844102455 0.7610226244812248 -0.44371686980966163 0.45079897346742365
Ni 5.2976219999030185 6.24387475559859 6.73718193620086 -1.137560425341228 2.4995622158231146 -0.5867987607352216
Ni 2.463361053002709 5.835319020959907 12.614391467216711 -0.22421150851803964 0.08860124337917644 0.04556046223861831
Ni 0.2911554029694107 5.888263907170753 9.820954759992086 -1.1830576384420786 0.8443927013684489 1.0559728942757234
Ni 4.514387885144551 -0.1158271911860363 4.102340276287366 0.5035739511766102 2.7505255385137017 -1.870572937762772
Ni 0.10785642842123892 7.668972305485521 11.67972115416514 0.6816290157432454 -0.05481283407482173 0.25226841465525585
Ni 8.759977946770954 4.163762795365986 7.594362869491479 1.325488268936885 -0.28991733535628134 -0.5354949682549229
Ni 2.0102376125823627 2.2984808164146755 1.4603499047579016 -0.3517371968765555 -1.1150154501611764 1.3088712292054943
Ni 7.874549603432491 0.26100216133437715 12.605947932883138 -0.49410637800580715 -1.0685623009049598 0.543806830554728
Ni 5.853050258744009 0.7662631821288294 9.505773714141617 0.2999636638486899 -0.7882135830737199 0.36265770044380125
Ni 7.380904202234236 0.5038740398763091 1.442382741980414 0.07470597345432295 -0.5238332156462785 -0.8584095844728313
Ni 1.7166768805788302 4.537473514380089 8.846816775976796 0.8110616913164871 -0.482443339845582 -0.1684849043796969
Ni 9.431562401573911 5.06683021828801 12.507982844125973 -1.2119781781311707 -0.905496510658305 -0.2908385616189701
Ni 3.511319598815408 0.2081752376202235 1.8547473750474597 -0.6511974387262657 0.3476200893843884 -0.7352881958295981
Ni 7.522643514666405 2.378308249723353 8.700402278031177 0.33703460055905826 -0.2658078439025874 -0.6450774418714568
P 7.873996654229245 7.08009061984812 2.6904545260300035 -0.8710812664032288 1.1053234196843933 -0.2775881243669671
Ni 8.455385878162655 3.1805546012534442 10.657511609583617 1.4504760213648955 0.9625019815090715 1.2400147725534127
P 3.1404842156581854 1.675251769435618 7.630888850693927 -0.45385755778808934 0.9041482241605268 0.600643637038114
Ni 8.921420682478805 5.12319417373893 2.6755092306482577 -0.637881952564282 -0.2007118827342027 0.08447796523942226
P 0.18143184940520965 0.53825089184214 0.7989111462525099 1.4000037236469567 -0.6287349959576914 0.5645242656077375
P 1.509588188142986 4.145865672820909 11.089325309292851 0.16274954455781648 -0.19116589091698044 -1.8949361970984848
P 2.0102652600425253 8.61385190399303 10.986868429841314 0.4185169735052663 3.003578396743466 1.347430063315299
Ni 2.3891552699270373 6.809753754380938 10.32613099524204 0.6463596510179901 -2.5158779222640026 -0.8045238901979693
Ni 1.0617177651534813 6.478804440417892 7.543444542110531 1.9111338899042698 -1.7881248584691851 2.465164455069535
Ni 8.56951459371272 0.08586379544411736 5.371965098697496 -0.25294564322793855 1.8070126965126232 0.0004430010746895596
Ni 7.989535390247586 3.92478736554293 4.951549525231182 -0.26511261760777566 -0.4695186613641139 -0.14260212307566408
Ni 9.120150626125575 6.7392158676868 0.5176562987672265 -1.3163963339379459 -0.7028868966807572 -1.0415358929147869
Ni 0.13050430620420753 2.252005435881813 13.027092477715732 -0.28293473339086106 0.008173536949727857 -2.3631909041485106
Ni 6.577837642719329 2.1524653634774 11.990288760496524 -0.21331902997525196 0.14226890810596143 -2.331997252154526
Ni 4.8522674957882845 4.4362561627258295 0.13102776478328082 -1.885230796885263 0.12322654676252973 0.7694674128144684
Ni 3.823616092988941 3.7667636990751525 2.07907057256649 1.059298873325163 -1.996573190615697 0.4015394651106633
Ni 7.4104501213277025 6.2659005655279065 5.652643035847392 -0.009042312707926362 1.347142613981867 -1.0826023239377938
Ni 4.214919812486335 5.001877118546663 11.392892578711134 0.6973171159024636 0.0033010393487749603 -1.6289779436609622
Ni 2.476788502821543 6.343976993026303 5.580197474402055 0.5329061244818241 -0.1401955705167005 -0.12119408971353322
Ni 5.509189580885159 1.542497881556203 2.5532650639585466 -1.4024575845040879 -0.4586608927140036 -1.2136303690226131
Ni 4.350392367281712 4.134972573516954 6.432171469362103 -1.286129050412972 -0.7182662073503049 -0.556381839006261
Ni 4.611531844334895 7.502193609966341 10.135663034273778 1.1857153877798998 -0.15840926531124977 -0.28780286011643985
Ni 5.198413697020554 2.5942994243314645 8.248962567934717 0.8029498608426301 0.5781084320500752 -0.8745121464616488
Ni 6.174783752652947 6.682538574354041 13.631665018577253 0.20775413429296477 0.7838416792582694 -2.4832112852689168
Ni 5.345046609901455 7.958588666505895 1.9221343728650975 0.43359803620810483 1.158334681774102 -0.21226024969343446
Ni 3.6498333742286397 5.029810269130662 3.853360152213572 0.5151117766128805 -0.09890956728371997 1.717951739888209
Ni 3.891932967050038 2.6047685959129305 11.694733725033283 1.3142201522222332 0.5679397190471897 0.10238261343398496
Ni 1.9361239877072323 9.052230032326804 4.044340512776842 1.2288772678793547 0.1632416537028866 0.4135308331445846
Ni 3.4118716846115364 6.553157676614429 8.064739246635119 -0.7356247532334106 0.4680814146969552 -0.11599171957698733
Ni 3.4194102254157963 7.187906498661121 3.0840151998586487 -2.315294337577548 0.1815149980907777 -0.4083210068088709
Ni 0.607209186979003 8.460371636811928 9.298648158425555 0.0789133266674512 -0.25828762426614227 -0.3863604433773798
Ni 7.645932755350252 6.733142642271144 7.870360091635894 0.021124440683441034 0.314218116885175 0.4360282429161523
P 5.990891279293291 3.49193872924162 10.197048690072181 -0.45605250855687907 -0.18191917550773185 0.7421671823376186
Ni 6.418514545623922 2.5147023865241405 0.7024592951482287 0.08710588978057257 1.0394898090190356 -0.01748864370306666
P 6.098246367103587 8.075417617331812 11.738637891771049 -0.47863862138751123 -0.11474730564692497 0.4065263768022934
Ni 1.3214840850186025 1.5660166543342846 10.901959393354801 0.8424738870791814 0.8863947568318477 -0.8021564184070573
P 0.08081997712850446 7.999506907546131 6.884298679634601 -1.6749965764829218 0.6723529897579582 -1.1775577916697721
P 1.499976087826552 5.662393373464638 3.665185087274772 1.0623584860870932 0.04520025068572216 0.844854471496216
P 7.508266835381997 4.361349977326046 1.094806245475748 0.11983423325152909 0.44987003389525104 -1.3241860051856937
Ni 4.0655498010493645 0.4997158618678959 11.045286591582293 -0.023734881723094608 -0.6632749387160899 -0.3503611424646353
Ni 0.2798190227208534 5.514571619796758 5.737605524090218 0.1925612286026103 -0.5595720638087848 -1.6058958650305182
Ni 5.024170187257548 5.059512857165049 8.824022366654967 -0.07599666724128848 -0.2895992898952303 0.9884487832818202
Ni 6.527408675383254 4.475819678218111 7.069412249151426 1.624300078569319 -1.9510890901409688 0.2761915011297566
Ni 0.9671634513983407 2.965291476429607 3.8941355480429696 0.36786521278666967 1.0055324782369843 -0.1329849117008742
Ni 3.560725610125477 8.368729522193885 5.761655128103416 -0.8236708954400653 -1.1595053050434352 3.0458704726434576
Ni 7.532965233127005 4.866266326450474 9.326150008631023 -1.8154996509377122 0.060637154066082666 0.27165967469767405
Ni 2.0238585946223333 5.052508833923928 1.3980472748641148 -1.5455808701905447 0.795653584291533 0.632961118223897
Ni 4.952047179514104 2.6040036828484396 4.459321517157249 -0.8430611270412189 1.2367186183006444 1.4813670545167972
Ni 7.49038814447703 8.173446295247352 9.992889706831539 -1.1357187441467989 -1.6816742456134135 0.6420911055496232
Ni 0.6955870581338809 7.864513575393568 2.1624414886859715 0.5968101222246367 1.7224874229750335 1.2713953437472234
Ni 0.12281001804103336 0.8146453158308872 3.189750146503432 -1.4390351265178056 0.5217884173021079 -0.8420707381034916
Ni 4.8214313618872415 1.1694875648662115 6.390411823950927 -0.6302928273631145 -0.4232524313077227 -0.2903181703391258
Ni 2.2751924391379466 0.7974974394562097 12.828288807508528 0.3173054975612471 -0.6607084635404944 1.6892872820739808
Ni 1.4469298275951106 0.3676808079527012 6.6538110200813785 0.5020125202267612 -1.579796596840305 1.5856738815566884
Ni 8.915540989284285 2.7380938646357 1.6496843198595081 -1.117925681829436 0.7460865719966828 1.722102528831789
Ni 0.8824912614872195 2.1885913780895008 8.593345782790635 0.21311179906045233 -0.24067351072880486 -0.022377339253935657
Ni 3.6828260100223438 7.8639882736504845 12.494076171664325 2.2988498188682795 -0.021908627147633235 -1.8413209828761903
Ni 7.959491816871198 -0.07072404625922994 7.991282709729846 -1.1858945936702414 2.113833492492463 -0.3541404070014094
Ni 2.3359339091145674 7.646236877412038 0.5927421926580654 -1.417035996538895 -0.2998029699011095 1.7351781310688246
Ni 3.375146641695919 3.11231145375278 9.415644837176458 -0.8706683472355264 -0.49659237765245445 0.6652631727907123
Ni 7.571966583595987 6.100319926615761 11.268922288925289 -0.18240459978458262 1.685672568139529 -0.010638453550452646
Ni 0.2301503605392423 2.218570440725512 6.235269944414069 -0.8974618132792866 0.9758010126108226 -0.544550907809604
Ni 6.777728779692915 9.17251491567301 3.4764165235244877 1.5733672962751937 -2.1171712986164444 2.088172597391249
Ni 6.984928061969409 2.026807657039648 6.299716174052442 0.07434576190142679 -0.15947035958591246 1.0377733405485612
P 5.908594006210114 4.993389348276829 4.908939259629013 -1.3049027314760493 -1.2710361606355915 -0.8811227097996308
Ni 2.456338598121479 1.9199317918721657 5.502369874045119 1.966891347280548 1.0620733507465063 -0.8623310310144247
P 7.195813672267545 1.9472106192323233 4.21874437780879 0.7212908531092417 -0.3321896137619311 -0.8482372719255199
Ni 6.477938153332805 8.645443735138509 5.975781942314582 -0.6596126593731544 -0.4215511323458998 -0.2620622608172261
P 3.2371305205656085 1.6923839789162034 3.4329703830434095 -0.8737331022037792 0.599610053567277 -0.18962117213767987
P 3.9610516174558423 2.2628893193657134 0.406049031583966 0.685820942337406 -0.4247943218735458 -0.4075262788217175
P 3.932408848727677 6.098025187422288 1.253610491902108 0.4213688411317646 0.7457068200597609 -0.6369411859175677
Ni 6.06724434844157 5.770448863599046 2.1792078301104088 0.033637485548787226 -0.3236982884614683 1.116867929988883
