# total energy = -340891.1562408296 ev
CRYSTAL
PRIMVEC
9.07162019423687 0.00000000000000 0.00000000000000
0.00000000000000 9.07162019423687 0.00000000000000
0.00000000000000 0.00000000000000 13.27723312768802
PRIMCOORD
 96 1
Ni 6.06737182075605 2.035227091126954 11.09407094424912 1.218550946252682 0.5058702034099546 1.1748167385895252
Ni 4.6931302012373495 0.3611266904734913 6.291257596008199 0.4996360495747846 -0.4168740385852046 1.0285963020349833
Ni 3.0361624627262547 1.1350864929385653 4.932518468459791 -0.9349999194340607 1.815721022919899 -0.8086091160109364
Ni 3.4113646792932 4.4057231261581915 5.050380588346744 0.5580720822244906 -0.2845851245100905 -0.3100624428455886
Ni 5.094549400538301 4.572232717190259 2.571281836292428 -0.4291983644785124 -0.26358846765376537 -0.2805436074508652
Ni 7.1766586254954765 5.99693976056684 2.448600871689799 0.331129547928533 0.32528568755324627 0.6175836073265621
Ni 5.152789203013151 4.616837874319361 11.18391808625401 -0.179967965318632 -0.061268359892178346 0.3567135670452244
Ni 5.467265993136694 7.648201449894651 12.365724331019015 0.8495616471638981 0.8689662769427551 0.5432234472474322
Ni 1.9545803864538365 6.145805050070311 0.45938866749017027 -0.44818621843492484 0.4506722180815722 -0.3177996635888462
Ni 2.50663384122128 1.4884623910079273 0.543359213849703 0.8935287967734675 0.06275368618845321 -0.38340290341095257
Ni 0.7033136520362362 -0.2927321162088677 4.973505863404007 -0.056110726950638845 0.6394703800973245 -0.26107135765886647
Ni 8.670618418419254 2.5520645157997923 1.3039864559257919 -0.661977560060905 -0.9598845984908825 0.6178659144536713
Ni 6.59412452644213 0.7030088455933772 4.815108115264932 0.5677983083733189 -0.581586620406663 -0.42150665226120954
Ni 0.9216221951136914 7.291895418460901 2.548113825149045 -1.0416503070054641 0.44517339975053005 0.5382753592135374
Ni 7.455737953117951 3.476507984833994 3.5871899172351465 0.8311913721868266 0.2355156206769492 1.393247892980362
Ni 7.593508650966166 3.8844768940082854 12.549733984816536 0.9486802451346306 -1.2127070858773954 -0.5857312387026559
Ni 7.980757979322302 8.961372921397668 6.791583764530809 -0.3719321837671917 -0.097084084039207 -0.31502004396118005
Ni 6.738807798976613 0.6432586183347169 0.2173115720039371 -0.8919154295397607 -0.02196082054180734 -0.0020933921939189754
Ni 1.7704446371338203 6.690673781541792 9.243078483103703 0.8678856422840666 -0.8386532277815105 0.19245195671825566
Ni 0.17859661795067905 5.028090710050646 1.7947901445951526 -0.0901621601083931 -1.5727800563131558 -0.46898387190656654
Ni 6.660265710218475 2.103808540770235 7.183899592837443 -2.1432703096963412 -1.9795324330833264 -0.6701804075866716
Ni 3.127713255027841 4.079652805261618 0.6793591314108329 1.1638622964605503 0.5985376464387047 -0.00013935379134169548
Ni 6.109890505210821 5.7669288272724755 4.629027410547625 0.03127592729514614 -0.915687592258694 0.701770780798443
Ni 5.475439523047884 3.274709790744737 9.1208220703322 -1.2805248168523171 -1.3407945602766522 -1.0741701340100405
P 0.132892887600439 5.438418240508964 12.57573052717669 0.6149286862022184 -0.4728772934237017 -0.5423248466925628
P 3.9957221740315076 6.0010401329529195 12.565029643843461 -0.5473588095720444 -1.1817373769687585 0.7898516328977752
P 2.1611321095924434 8.338152605194836 1.1984245460350456 0.733206373599905 0.6720552560118813 1.9399901520143301
P 6.224846077946225 7.715821307783674 5.793958627187438 -0.3605810204204306 0.6665574661221036 0.20784643689645493
P 4.604346253134334 1.2371422215744006 12.555722161391873 -0.12218190754809927 0.2182702033329402 0.26959096509410346
P 4.31187721391484 6.1835974203367 8.285617944741237 -1.9220307393224318 0.5077121417146998 -1.1163251701115355
P 4.714112859044877 1.0175636516516995 3.4123553002324924 -0.4344940656598129 -0.3772368838095567 0.7424921697772051
P 0.2214908674868286 5.7171074884575415 3.8904813995002017 -0.4680081382568585 -0.381334193807382 0.09217199144957029
Ni 1.5642829936691105 0.901377967200471 2.93044452096595 -1.5041889375073192 1.1271472004277039 -1.2287589971339352
Ni 1.995284746843969 6.6182459648814795 4.88938109949898 -0.9700281146827874 0.04753995456249232 0.387310723105791
Ni 6.194320075558706 5.563026017268238 8.946877379283249 0.47165987607683285 1.6023114901133695 0.5558660757121072
Ni 8.586216062932339 2.2668709160794918 10.278132218738504 -0.2304700878332418 0.830370418947428 0.4112836889816207
Ni 2.4435135070125567 5.307968340261559 6.9636297654461154 -0.6807759237143308 0.3803630881433643 1.8456422359593634
Ni 0.794247574155846 9.176488254121361 9.472402694739603 -1.3029535781694788 0.20512595264149835 -0.6168608702279248
Ni 1.5092636164089912 1.1820321281110497 11.453857756400877 0.15780711295087663 0.3931700101000455 0.3399867412088467
Ni 4.088960287713206 6.8636514378642905 1.4420664960270282 0.42333496371920004 -0.8341903069141505 0.1449271716644149
Ni 5.7813073454847235 7.931825659299041 7.997993150774322 -0.5389605582060201 -0.0392373482340679 0.6011637712076421
Ni 5.295195498846514 2.6399050153891963 5.012341470007564 -0.7635605604117301 0.8233356235878337 -0.07316459710913206
Ni 0.903272121523952 7.880970155767264 7.443973875882844 0.12684588868267188 -0.010156114597395412 -1.413928818368481
Ni 5.1512651707988555 4.759833825473732 6.750198125454405 0.2843169584503684 -0.8348469666615428 0.623411783972565
Ni 8.273580811734401 7.293809530349092 9.264654424880368 0.01890969242030937 -0.25432863961839425 -0.5265680980789383
Ni 4.648207537396936 0.2983828285081799 10.384522367564758 -0.11079809119118983 -1.3083737207437853 0.7633013932130726
Ni 7.883383206773231 7.403539849778342 4.477866093940356 0.9555139802270125 0.3225708597252444 -0.37824578469004533
Ni 7.346796864656818 6.181819382753357 6.9509503617204 0.3177209878321109 -0.11117912867969242 -0.8155289830592214
Ni 2.2972154860605465 5.111676619708475 3.0031372289396985 0.4645062957511871 0.16093897371163896 -1.0848479254388608
Ni 2.188664477273311 5.389776212336045 11.314473217297166 -0.10133411756481257 -1.056875865705967 1.072128420989663
Ni 0.985822052140874 3.1995514163671457 4.032016819782539 -0.01842401103314246 -0.1598064027690925 -1.2549634234434452
Ni 3.5297402528904462 2.9548172432882516 3.1999995544111113 -0.4799046325841283 -1.490362316036872 -0.8772629697339085
Ni 0.9994204110053289 3.393538945358141 8.176399264698214 0.6720727395133781 0.6265570144697661 -0.24013949260220577
Ni 3.5616360699467653 3.001527016332333 7.387811474462003 0.619118813024166 -0.5802295921581363 -0.46618162657108103
Ni 4.106141936605319 6.720102117870205 5.843429801457898 0.9455234446732039 1.6008246211551977 1.0804593094528616
Ni 0.5755825163996896 7.240912912244598 11.410215098188063 0.2496823990956345 -0.050211073636752236 0.08945664940093627
P 0.2289404820962284 5.831001681615133 7.78887688057035 0.7461266812059989 -0.6269295673178364 0.5881298208418194
P 8.79383823726908 1.5500133349007397 8.06635778869188 -0.5457680680461569 -0.14371798184766216 0.03805386944892802
P 1.5272979976114838 3.250062198326642 10.343535879782573 1.1185260344175962 0.4280123145902113 0.6990803784504734
P 4.16045372748023 6.184377579684495 3.708371342998353 -0.8368305727504749 0.3311909972940877 -0.6498668928403001
P 7.135754689458234 4.058779006897969 10.153591571969622 0.38674867995473394 -0.6717176701668044 1.9306377642651522
P 6.497557128101822 7.856630998440157 10.365270574914893 -1.1720558880149363 -0.04860927636727112 -0.6378804099023854
P 2.5590496634486453 8.527504536200682 6.135117774167567 0.2938606362747455 -1.0489661239405872 0.20007270648830705
P 6.9647909328474835 4.00512944430665 1.5088907728137084 0.4600202349553755 -0.24177162888899006 -0.2382088512383962
Ni 5.273314750626991 3.3490063611916243 0.0878096560803048 -0.21814216239550818 -2.062419656796861 -0.09051234435896026
Ni 1.7932234757653387 1.2539428624129398 7.359504390405536 -0.19204649374972088 -0.29685468590606295 -1.1984737158868328
Ni 7.131110019852763 0.5961360865659308 9.122840505854107 -0.7395464568853198 -0.13627823774016531 0.622387970693741
Ni 2.9073091676557303 1.781040289671301 9.52207344465717 0.20491100841721482 0.2339953273776809 -0.7228530553900389
Ni 6.182572327240181 2.0628501750110533 2.1836796219057204 -0.3684249419448816 -0.7516039022704861 -0.05049569475670659
Ni 4.103574668053858 6.813086226182854 10.50265028592718 -0.0032593874775621286 0.5993629705534774 -0.9742735202227025
Ni 8.476903038037955 7.0282650602488115 0.5270048967310644 -0.4631839773953378 0.6384609649962036 -0.39179087036433174
Ni 7.716619610372114 3.8262733780147284 8.066542849746472 1.317048108589332 1.4370008696965961 0.07865955878543227
Ni 3.0902837495743785 8.204672783759486 12.623289403883021 0.5091817842816907 0.43952879987024307 -0.9449346620492693
Ni 0.1991166231217243 4.985000513515515 9.938606870578582 -1.1643207241542075 -0.28283548880883547 0.0629262072105755
Ni 8.699184950816965 2.398608986412789 5.923279110704606 -0.0033902566284715807 -1.5462948655384339 -0.335734393690396
Ni 3.3953986275243944 3.0151435184374344 11.558070716349564 0.4217802176375704 -0.3487135795588833 0.7505998864860041
Ni 1.2249953219616554 3.2256413964166266 12.767666055650581 -1.5570240790304797 1.085776350790401 -0.5328521313154371
Ni 3.148704984455692 8.569841788248988 8.500708784090058 1.0274063954919403 -0.5174013439780056 -0.7502291334101466
Ni 5.662813840823277 7.916585337156089 3.3447073203204667 -0.5247225602297673 0.3083657718694561 -0.38393923553039677
Ni 2.9816964543058497 8.24264658643234 3.4275439141396014 1.8218705874610621 -0.4654434628534758 -0.3501533973292034
Ni 3.425443834034784 4.541897218829527 9.367327023698179 -0.5918334949456517 -0.33646792942231085 -0.014709538296032732
Ni 7.146132623107958 5.969171530757569 11.283723145887665 1.2471390423030198 0.45878019190068725 0.44376417810782925
Ni 0.5199208684206891 0.17527277626426396 0.08974191120914328 -0.3236625501275264 -1.2056257535505819 1.2105296186101024
Ni 4.430733583389213 0.17544876569853374 1.2800391925966472 0.759985441465962 0.22420508076013645 0.5058918006765093
Ni 6.064913411648467 5.484447642028807 0.2733460635782206 -0.2871086622628926 2.2678122328361843 -0.42174679329647363
Ni 7.97411755324573 8.824191878870458 11.586510246062751 -0.35021073292970006 0.27282952663605914 -0.6549527920036398
Ni 0.24775230116041785 4.682171683886942 5.847931139462261 -0.9021625611890656 1.2416474230608292 0.4069158989312282
Ni 7.93327711855075 -0.21015587789300852 2.2121599739103606 0.4414298735476978 0.3729158878366997 0.5788892760801579
P 8.43440249682383 1.261925888297343 3.7659280524628675 1.0499917369916238 0.6365534635608457 0.027272205452391743
P 1.652277710804008 3.0817382832299383 1.7990120766935631 0.1757017338431103 0.1319814101370243 1.2193251054145453
P 4.808203705036956 1.1748383331947638 8.389870819819347 0.574128878577037 0.47266646296447623 -0.5354458601845423
P 8.365467253987946 1.6709108189478308 12.524998397681307 0.07348289968049926 1.639324577002609 -0.9857486107418377
P 6.426880134163885 7.602444196984504 1.163746463025605 -0.890716267025337 0.620938382731408 -0.08045881677770014
P 1.828376004517682 3.175674911676522 6.046797385863066 1.0428432988723009 -0.562082231825148 0.10503033546947718
P 6.98562844472984 3.8639296739762705 5.866744772850516 -0.12132315909222975 0.8676542429995509 -0.5961961427897217
P 2.3564168802896543 8.364605450057242 10.61797598077177 0.8531768753189822 0.14188349974208467 -0.5137190100304121
