# total energy = -381168.19780999975 ev
CRYSTAL
PRIMVEC
9.24114802706480 0.00000000000000 0.00000000000000

0.00000000000000 9.24114802706480 0.00000000000000

0.00000000000000 0.00000000000000 13.52535424716448

PRIMCOORD
 96 1
Ni 1.3635129143745426 4.620518584526968 1.0552106568171913 0.6576352239318094 -1.9098609367291173 1.093646240456781
Ni 3.1947203322089464 4.476467568523563 3.3589678773036677 1.183375941013446 -0.05185040901238812 -0.5735622074402896
Ni 2.805852821725031 8.953628223151838 0.7849301788495507 -0.7486790153142073 0.24017985892183796 -0.6782238467164383
Ni 3.7880112789907394 8.268341647404565 7.519096161799635 -1.1926992752969008 -0.007710995491012526 0.28862612734868354
Ni 2.5411493766133084 3.6631171629215826 10.151927892459094 0.9902562688042043 2.1835003608609815 -0.05502495008562781
Ni 5.425422580799521 3.0104056340957883 10.127433305403756 0.38249427555375415 -0.302949228839575 0.17250328151047065
Ni 4.644296058492631 1.7333436598490268 8.035683731430321 -1.2263858689160687 0.6934941426119476 -2.0167015859344555
Ni 7.43927204894771 1.8988433805062614 9.164103687316063 0.5768542479280001 0.061154460022133386 0.6237817657174741
Ni 1.0727771551698262 5.526529981754951 2.9797980275968863 -0.43592359901748795 1.7187135577548982 0.6774247478539108
Ni 4.288770610219409 4.294712668423808 1.1200142076077915 -0.49241536345662945 0.28637358386908096 -1.053852762608927
Ni 0.4120877432213901 3.398422958957923 3.779727513867218 0.3598333436211287 0.32216591097734193 -0.4259513182961245
Ni 7.342729775135317 7.047780052413951 4.089999060076758 -0.37998513597865524 0.9363227520105422 1.69203219180897
Ni 7.0406643684055705 8.076698718877582 2.056529710476373 0.19288390204935166 0.5124871945058399 -1.3647793532270238
Ni 7.407408570427069 0.7046153610354893 13.557814926707366 0.38175585472583284 0.3344226168575079 -0.05221679121287136
Ni 8.210436613642868 7.7803073770584135 13.14607649888275 0.4492007757423684 -0.619826637724468 1.4906245685593231
Ni 0.7281959985474143 5.32787302184828 7.367097758462196 -0.20619424600501263 0.4539205498155408 -0.8025839928627791
Ni 1.9843055177913196 0.8352047966557685 7.78672258204363 -0.5760428077702983 -1.5236205638693696 0.8907599757790787
Ni 2.248408288278958 6.417921882747536 10.986171609716328 -0.33359189342609646 -1.172841102920393 0.037983935442941034
Ni 3.9250482636144555 7.480108682237359 12.678883789762699 -1.1857002182712482 -0.5315637515213169 0.34542668127749543
Ni 7.621008466751339 4.997880865672658 3.5293469241380766 2.4375765181489375 -1.0391396247684686 -0.7252048434516671
Ni 3.9475412179993854 3.939131773262209 5.864255130629548 0.24041999995710212 -0.6383861458942103 0.23946714912552952
Ni 3.8970106203918276 9.164511221945634 4.157464061509454 -0.09226635093558948 0.9374509520777146 2.939634032681021
Ni 7.268902243261363 4.307677999155961 10.235717381944779 1.8987619986024782 0.06493295322795914 2.0771906444584487
Ni 8.049520502424798 3.8558228234757905 7.936691629266472 1.2470575383328073 0.03225783159244122 0.057568542443087956
P 1.9177138048505618 0.2730870146343223 10.2982586996896 0.9918462389991435 -0.5501582266940525 0.6662677027958268
Ni 5.87561434982838 2.482542015598836 0.4538826835651544 -0.46058613476117455 1.5049304436590338 0.2933710982328367
P 3.5385649693307504 1.099539519959784 6.100556831284968 0.6444223247859611 -0.32549523246089107 1.3660921585011763
Ni 7.156733188074724 7.00710051864137 6.85170137281681 0.04693728798148691 -1.1643603191428913 0.11821958046624155
P 5.675561976564222 1.6497944402129743 11.94912326484825 -0.19040690126376886 -1.118797542911428 -0.2960280762397095
P 4.169578282505019 4.105638779058293 8.799527458630104 -0.16774674066209175 0.8970758906947776 -1.7878559210785143
P 5.368940683839499 7.678054073743192 4.491486282355275 0.806586686264269 -0.438057100420723 0.6450409322065666
Ni 6.404263465910672 5.2101223132316905 8.442134374333385 -2.0844707230596295 2.7742660766637512 0.8742480941669847
Ni 5.882415834802623 8.367268137417168 11.951124897518657 -2.3750969115574776 4.5378070751459845 0.20476342709575704
Ni 4.835680234873855 5.953166064371656 10.848470186546894 -0.11321364261121791 -0.19662897091408071 -1.593075316227082
Ni 7.046135128058767 6.933633391541866 11.385305111583241 3.294415672810855 -4.962116486963312 -2.839164834219665
Ni 2.701326195986353 6.026559262286656 8.711463938165359 0.9721137935672227 -0.5872263351909435 -0.8166078179456969
Ni 3.510046786408855 1.7340737105459905 10.269369022615578 -0.40928491338403705 -1.5811420551246058 -1.5666816567249018
Ni 0.45832767578337597 4.3978069162127476 9.690672620969412 0.04149426258904467 -0.06506407948918473 -0.47182494089978744
Ni 5.750442999317339 8.90914133637737 6.440029481258246 -0.42000821333881216 -0.3906739831510691 -0.7586924336861515
Ni 8.336384220591187 8.729447212295629 5.731247286561226 -2.545317053460726 1.45882310777801 -2.437153571678906
Ni 0.21790627132154766 2.8375314772844145 6.431413958919269 -0.5279688350812068 -0.7772110613156292 -1.6399933209348596
Ni 5.522990622046887 0.4131828192668355 9.492161671202135 1.026886004212096 -0.6909582635639713 1.6163592264556874
Ni 6.115985852090669 4.915995052687916 12.511264149739851 -0.018401899545955402 -1.0809195369187319 0.27500288013829416
Ni 2.643689155518478 2.4576463627175706 0.5795345737754634 -0.1780766618331901 -1.044475435159085 -3.921332384612885
Ni 7.137668699621105 1.4825296602757387 6.587172585403474 0.40089308977591603 0.7379145777088517 0.3356076383045446
Ni 1.1947048627108143 6.202353621885885 13.09626209025006 -0.1676809204211628 1.9934860670499408 -0.5303633034553125
Ni 2.399584229438805 2.3518074939539706 4.735510810446801 0.10234301844530115 -0.33832169480159796 0.23478285627598275
Ni 8.597030801703328 1.7172086153313242 2.5377624958482814 -0.24956464257084762 -1.2420873388117255 -0.5625501726005021
Ni 9.24817133535844 2.672447608290007 0.3128572194375204 0.1740099479629842 -1.4635403107480214 -0.7262499968867299
Ni 0.8317569243135264 2.053974533037 9.922388863956055 -0.9939044070797528 -0.17693972001526947 -1.401680340018431
Ni 5.74208900146854 7.451636705055778 8.805248653395802 0.05071500985636427 -0.22660160601677107 0.2430628368965878
Ni 9.006450625478978 8.434127843651748 3.326087872496116 1.7489512735935169 1.6071382220780515 -1.8187060736901517
Ni 4.591723167163187 8.465630917397938 2.234104839307309 1.5110756373248235 -2.8827835993508804 -0.13155023613687666
Ni 0.21571796746026936 7.897041559388091 7.148826461792167 2.776561043345515 -1.7243604716280303 2.601821416305358
Ni 4.607035749503297 5.997375716704237 6.874869855125132 -0.0695560538222673 0.37479562135791583 0.13987572528343653
Ni 7.973900187826653 8.740702930636155 9.026090837456913 -0.7100566749563191 -1.032526490327325 -1.1135239532173145
P 1.843026846206764 7.8671187219606455 2.3652053104154627 -0.7355370786156107 -1.0664887062053827 0.36222112712701493
Ni 8.48225574276297 4.72153357400177 13.191670475195142 -0.12856415692535922 0.745263304764439 -1.7324008254340035
P 8.003619719996717 5.916312365897086 1.336509355620145 -0.5649253577008981 0.9762689533861769 0.803557412519642
Ni 0.4201441761025658 0.33107983930261625 0.8878932023359977 0.5062877505633474 -0.7488931882075425 -0.18706421004378107
P 9.101893202671894 5.853601935142717 11.099946776436287 0.4468870400075271 0.8258542762446294 1.9651131723342028
P 8.106880308450787 4.507850507344936 5.802944733806698 -0.313706210245763 0.5435093539189672 -0.24296179254234931
P 6.478922701110283 1.3581530484981006 2.1887132441374906 0.2751422339296358 0.0030079335883883684 -0.6426901725862029
Ni 3.479652650430205 6.465781788564937 1.645670115832533 -1.8064951334462565 0.26023806312429376 -0.8585221987912958
Ni 5.900851925187971 3.5585350902945274 7.185047141624431 -0.9162293236947768 -1.2959632628945743 -1.5975014703192358
Ni 2.0387451210294554 0.7172600239298604 3.0132325012882077 -2.0663382751249766 -1.0121229869703086 -0.2592499881794116
Ni 6.86228248734875 0.2561415214315096 4.005723486202967 -0.5874893590443431 0.5151331167691193 0.5582561732108385
Ni 5.474197360275141 3.624405993686385 2.9569261861413803 0.9777023433985936 -1.1449780579615378 0.6559164414684897
Ni 6.00303129931869 6.69252259743455 0.4673682909332432 -0.4997954579707844 0.13080153089631022 -0.2277909983391819
Ni 1.6390469850159022 3.9642492136969834 12.419697310044487 0.3462103535210554 -0.44349755471000396 -1.3677721173067605
Ni 8.04648940586019 9.256858014537501 11.168141828565945 -0.7473901212994547 2.0495589987841085 0.9594066304131993
Ni 1.849523373294934 9.067654749099106 5.490008964610644 0.12113495434082365 -0.7667764962458665 0.17938046824627818
Ni 1.2934742532063488 1.4344756903490194 12.221645645335931 -1.1800337640140903 -0.2971205379729399 0.14266280111027044
Ni 5.915517627163684 5.007694964915385 4.933872977730268 -0.7861471874629945 0.025643411599717128 1.9546246140980532
Ni 0.5805834440805946 6.989422202397175 4.740582352503683 -0.4505919996629401 -1.150355520223367 0.7610825311848828
Ni 7.471505173390863 2.735361344301758 4.589490505791207 -0.06618379491592473 0.6318090068973248 -0.5198516052907112
Ni 4.215959604632365 3.3319051752016677 12.296183821495918 -0.4660926664017005 -0.5871016366876212 -0.23146150521223363
Ni 1.206940142746002 7.823713049509529 9.257929063597983 0.45862695415227467 -0.06471723767272726 -0.20979224776891608
Ni 5.26878512113454 1.9377578549988417 4.984999629387879 -0.976693442518105 0.384217428892448 0.3345054063793013
Ni 3.4653750766731313 0.9412756182357456 12.304691222402559 1.3003135694434702 -1.2695320652862394 0.8077526815479121
Ni 3.7548817631854914 8.10842358017728 10.22852222406306 -0.17454885118558972 0.7704842841147569 -0.3988128102081196
Ni 1.907225101799249 4.615842563607175 5.202757118225615 -1.7115568921054587 1.6047270415333976 1.2698236283847293
Ni 4.282024572133542 1.4016234089856563 2.4390679586520556 1.346192848474088 1.726483945728936 -0.9109351651753732
Ni 8.495747818934703 6.406047007486799 9.143775009807449 -0.9252888627938839 0.238746211799105 -0.8868017624622792
Ni 0.107141870640459 1.1745314364896549 4.647865913989302 0.09781402022669605 0.4253676778785126 0.3074106070450383
Ni 5.07078428274033 0.1657834239027637 0.2728929505250028 0.4801949101310375 0.1728956318528829 0.42198153501509905
Ni 2.0179525378880863 3.027769751305847 7.621793964336679 2.0023882546355773 2.310613387162111 1.07585703479416
Ni 7.738786898812116 3.6672849206979192 1.7066700100804721 -1.0024630952830413 0.3031945120811617 -0.3363416882570917
P 3.533288273786874 5.304751669395078 12.439430857617856 -0.693648923022257 0.6985820986578162 1.155764092833448
Ni 5.454079380942359 6.006274942288743 2.7636762219662714 0.23315534797488877 0.4442364897585575 0.2531168786984802
P 2.5954780860746904 2.65841954553063 2.454338031711077 -1.1024031607138045 2.4325034745014045 3.8620825978126327
Ni 0.7218815220760821 8.199855499110926 11.6217010719489 0.794239991773458 -0.4679580017452134 0.5696939827341351
P 2.144741089310123 6.746546349009859 6.059196224900155 0.8169947689714703 -0.1980590184923879 3.0480291708576734
P 8.545677741918176 2.414887570630853 11.491736337937668 -0.034973944972023635 -0.057972205639409836 0.1997402628495528
P 8.868702072454424 0.92093215489023 7.718865755933072 1.2128790926788853 0.4246716802527525 -0.3201833333296744
Ni 3.4233001295430636 6.791162611857205 4.354488110553423 -0.5151981656790998 -0.87769388662374 -0.797893015145013
