# total energy = -340871.8355560971 ev
CRYSTAL
PRIMVEC
9.24678774738189 0.00000000000000 0.00000000000000
0.00000000000000 9.24678774738189 0.00000000000000
0.00000000000000 0.00000000000000 13.53360854792535
PRIMCOORD
 96 1
Ni 2.1068342989263726 9.19565276944111 9.337160982013781 -2.5271653222523636 0.9006029300114295 0.5536695822814207
Ni 7.414961912580319 -0.05006118286974694 5.840076805203624 0.09178426909284837 0.13103472995303886 1.0567617087256058
Ni 5.932211795896868 6.619516264306965 2.098196874718569 -1.1817440618369777 -0.2528798229870097 -0.9888347058663294
Ni 2.5909498587160993 4.153564479074535 11.705095895021454 0.6736076881006656 -1.5898418968914492 0.14114996401016983
Ni 2.8309409816037427 8.551059212513563 1.0537971924296148 -0.4108967379558472 0.7967853839031309 1.0006887769914379
Ni 2.2720743916289305 1.6405650390200226 11.459934893240133 0.2212300572922125 -0.38673993820398556 -0.18886912446300377
Ni 2.3517354659788205 1.485977245522465 5.575995026830924 0.5315758357061748 -0.14125306524693737 1.2472259455898713
Ni 2.9191091004576255 3.739927933642889 0.8346011699604821 0.3549050530815758 1.2007913082764157 -0.03144716276568777
Ni 8.162370499768626 3.3705280196320055 7.3364603853834724 -0.8804028009144708 1.2896146949687273 -1.3287579408270922
Ni 4.391465827986197 0.7354543403026961 9.847066756831863 -0.16479717111546457 -0.34302218560106085 0.030406380205999242
Ni 6.438464164971986 -0.1335152894539173 1.9572712097586733 -0.671968866945662 0.46324131299583443 -1.8850173953228762
Ni 2.383794078256368 0.21952335874678644 3.3687452390011687 -0.5594424802094559 1.6549270594265562 0.9850852661262262
Ni 8.930686073504246 5.04567604391826 9.211447207177274 0.2407071921802177 -0.24807545961983082 -0.7307278301524255
Ni 5.216242286223318 3.0193720173671856 8.956772185732738 0.44833534241827944 0.02437791462373221 0.023181837433102013
Ni 6.410770036396487 8.388528428549776 4.050013404528432 0.07531249669007029 -1.5613646153873626 0.3783216322333033
Ni 0.5283605133192436 2.1702302740561286 3.8867031163780297 -0.11547647050346564 -0.830364248299841 0.15328942758618117
Ni 5.168935721351114 2.3993379280511635 13.140781712665314 0.358174467861467 0.5118991832128539 -0.46453946298196774
Ni 7.2633793250216705 4.415091370059786 0.4408248747306575 0.13026057079117567 -1.0189729200126063 0.16015504435776287
Ni 2.8861535497921573 8.150876742900731 11.111037881162625 -2.3193607943374377 0.09648758810578865 2.5456579817399128
Ni 7.248778647552317 5.952600962343938 7.059928732314929 -0.5991991912821034 0.12329905187167796 0.05199336234815562
Ni 5.8481400039074085 3.9197039763022694 6.561296640822138 0.00999644909107956 -0.775624947775432 -0.7387483864640567
Ni 6.591036158793597 6.875180692014465 12.053328987756153 -0.060215236037315656 -0.29064367199934465 -0.15083248140525635
Ni 2.0428002954588176 7.4687227351305525 5.966412888839172 -0.4442717138718671 0.7283346473299004 -0.8504317084736773
Ni 3.539180176923665 3.627977077327843 7.155557159327313 -0.18683743874495565 0.14728564459426247 0.002566989396227837
P 0.4920465294321991 9.37966384077748 5.01412045688095 0.03341662778723277 -0.0651062455810298 -0.09361026655799362
P 9.212796313474158 0.5194549322738136 9.185043005458631 -0.6794317509816105 -0.27025790925414106 -0.17846515552086037
P 6.112320722906405 7.905078637460361 8.32828468328025 -0.7398881564954548 -0.7238295603706952 0.09947341020698998
P 6.700268459582367 6.390547312124495 4.881031444330982 -0.9322254420127171 -1.2727050636975823 0.49745164032895617
P 4.896673310073323 4.574071387621906 1.3630106912534985 0.12793577931274094 0.10852575021724535 0.3126379168822487
P 5.527128528906737 7.905929341910761 0.2073453396035705 1.5235835399838469 0.7532419520945415 0.3855690578243359
P 2.912886012467205 5.840520651003833 7.026189054069093 0.06154063971695853 -0.7145406788696017 1.7183605452908535
P 2.0324901273914784 6.112875530156666 1.604111428641663 -1.967059497427296 -0.12882306701370072 -1.1396188505321536
Ni 7.0260975108728 -0.12733658604351725 12.832391177929317 1.2909192727127639 1.0251474242544345 0.11175222757434301
Ni 3.2397969378956453 5.945730599228214 3.2364274085290634 0.6353126491752091 -0.8264464013026736 -0.45850971184811995
Ni 5.185154586633727 5.02059875620649 12.846249338362071 -0.7331415818002406 -0.48822137997993975 -0.05790715672942931
Ni 8.21632550485645 6.6893295099647325 0.5371911953858883 -0.6871520024440037 0.9724529220741962 0.47271351415232776
Ni 8.14337759823471 2.60264704490909 9.511149460374195 0.574838503049552 -0.7827661868059035 0.4783753404237954
Ni 4.782429250457201 -0.0220082789390799 12.16270738778749 -0.5781472557078108 0.387058754995985 0.15379053559231579
Ni 4.305110079483165 6.2426634395675835 5.375454398151796 2.3423084042725466 1.7212458372584485 0.2516786035900569
Ni 7.184531967972163 8.816636196425716 10.09761493701321 0.3685750943695007 -0.5394364694011743 1.3700902239169759
Ni 8.587648750668237 7.283953427218828 5.215176131624068 0.4303643597621556 1.1825958683143118 -0.12499340885496536
Ni 7.963425866612749 5.9584264384716725 2.875201654672017 1.0146184996986525 -1.3710351043287485 1.339288408044771
Ni 1.214158680044883 3.0299780826346634 7.671756297720849 0.49116760709245727 -0.043979748015059744 0.949524595412797
Ni 4.75500327871933 7.49901521099477 10.31384089133595 2.782874130047736 -0.628444461300466 -1.2537056397769442
Ni 0.6459851984469525 4.655045505797412 0.5309533125354605 -0.4004829988216909 0.27983681119182774 -1.151750343688365
Ni 7.381544022539634 6.515674840633225 9.783567217682057 -1.5309032135737117 -0.15698770237337478 -0.04714040513122849
Ni 6.471808080712636 1.5474406420638134 10.937077143164723 -0.5802010529130459 1.2488557678838106 0.976679301450718
Ni 7.488362911789771 1.4453838483784116 3.829659684263756 -0.5617436175388067 -0.15603048066642808 0.4671894990103051
Ni 0.4768734758163274 1.9906854010843567 13.423187849835365 -0.2819877960965595 -0.04365090392073128 -0.5792204341673315
Ni 9.02627011593661 0.8798068647117 11.420538030399143 -0.3205312035873964 -0.17605963140316133 -0.6715837156921015
Ni 4.8731864698123 1.0405409978633928 4.3213761033820495 0.19473072545010334 0.48333654108381274 0.17446477611221567
Ni 2.9331919578267356 1.4755283756425603 0.1930118942930929 0.5615037336138587 0.06617042517948604 0.8834459586161689
Ni 4.232282381098982 8.039730357098563 3.124734537585389 0.42407621276059865 -0.08526189459329832 -0.7297186721616207
Ni -0.07188822477374177 1.2346218207919875 6.80597033690198 0.10851880823870988 -0.45728329564018666 0.7474104330144289
Ni 6.989332283755544 4.146157802283558 11.257863921229038 0.6351709813910222 -0.08682461109472789 0.41134616678844
Ni 3.5634437473350538 7.84855302544633 8.115915564025572 -0.09363854869276778 -1.6254583605434778 0.19912731185590224
P 3.7955288669064857 8.536153391056565 5.1227008591506635 -0.8806272582204512 -0.4227734347887751 0.36748828906322517
P 1.4022290910956563 0.056261153891406984 12.88268260580792 -0.07712306753624783 -0.45124583119685513 -0.7609395778491154
P 1.1642722614589678 3.885028523160994 9.908739130770808 2.3062299133824347 -0.8870372755118529 0.09678609318281395
P 4.318388466339398 3.0837111648223843 4.874846268169329 1.1563850142468985 -0.831036077555885 2.1012805955281166
P 6.838406218109704 4.4375518169078285 8.927999881734234 -0.2614966181217432 0.48285034547601363 -0.534805398387066
P 8.473635860739721 5.557578200158529 12.241852491394638 0.549219516929867 -0.06927528935705489 0.04756258027031164
P 8.234893054165166 8.081664538430745 2.601579040952338 0.40948854475441093 -0.12340806664571649 -0.046230748832765546
P 4.421980226750519 2.648335421968034 11.02109345442916 -0.4213369594525647 0.07116659284249678 0.7957518004322941
Ni 2.9214947716337454 4.549826310785526 5.029048470627956 -2.8825246892625387 -0.5051628929302847 0.05286676609204443
Ni 9.00049007237451 7.602375801718284 11.570192662763137 -0.6179535890714712 0.5683004448207181 -0.676757546583557
Ni 0.7895480472030857 7.193751015113991 9.052671543619 1.1607810864320653 0.5822291390866682 0.5431779387214775
Ni 5.800750217947666 2.2732209932794687 2.091944197008134 -3.1571347048377887 0.5482003316367332 0.6509490701608853
Ni 7.751471003438264 1.84070250776396 1.369343816015221 2.573067226990801 -0.00805115243925065 -0.5775227347499344
Ni 1.1995857429380428 7.214186415498581 13.387404631551071 0.6345958256138425 -0.7866153853486646 -0.039548451716583506
Ni 2.838939452794997 2.6124208993011773 9.317888827497235 0.413123827514153 0.15404713168781214 0.20667632784775372
Ni 3.154310387418021 5.589128239123337 9.47347157533026 -3.198104976602563 0.006819594024994706 -1.3822060333439035
Ni 9.293298845486945 3.4437255895163617 11.64089267534257 -0.13296588553748068 0.705423804169998 0.5258674724674879
Ni 4.962602904979269 5.678415219265245 8.234090433009788 1.7226977392136267 0.584274194541155 -1.6948606623967004
Ni 3.919047454389461 6.697069071105865 0.4859075872080677 -0.877651977642211 -2.422633009465228 -0.08371948980684292
Ni 5.413605718715954 4.339609843661858 3.484985680039478 -0.7054004071312302 1.5476948312097538 0.9618743752274016
Ni 7.919808769954775 3.77732194231044 4.798272696167139 0.32351753990922993 0.4421441260059031 -0.25421525396898154
Ni 6.3170723386150085 0.9340087590258904 8.450235940281239 1.0229000229811545 0.6231158499987011 -1.2827948438334167
Ni 1.3591575549004402 7.535567761999427 3.2231638165328382 -1.2894833115971855 -0.7295770043774339 -0.5685809521756143
Ni 2.801711886302524 2.5887398765025624 3.371790206126348 1.268145726461674 0.4590702123372804 -0.7201775654404049
Ni 0.9595113989628604 4.275178228331616 2.8398789264054383 0.42678178461721983 -0.3895745794393033 -0.7840769351975271
Ni 8.291270717579128 8.048764468490303 8.045865600607693 -0.7158378004144704 1.0764751279941331 -1.6077136349655474
Ni 0.3501185127068332 6.024152604052523 7.079132460603942 1.2441156820956638 -0.8498516676004912 -0.5863192499956418
Ni 4.910839388529972 9.202828276544478 6.822373213255929 1.1538879588566577 0.7148103875912205 -0.9783566891531408
Ni 1.455046741320447 6.105089735078011 10.944384879329403 -1.491450149784412 -0.8571430590555819 1.2814591557411286
Ni 4.966726972206205 4.974660715884928 10.524586274704864 1.035728027983758 -0.8474420297177341 0.2798715210845051
Ni 0.7396459090784134 5.719387734696977 4.431336126347411 0.500422550031822 -0.8562303174333254 1.885272705866792
Ni 0.4131963983464397 0.06954231478389068 1.537648294096717 0.07812296955567191 0.5054858234873424 -0.1186749228361053
P 6.852692504803909 1.8506150639686128 6.3964162481535 -0.28572026655579824 1.3925508669133373 0.10919912213518612
P 7.2556027767305205 3.7532987883741646 2.6198358982009076 2.5288830762744188 -0.42282974194800726 0.5037007065624616
P 3.2202862162614876 0.8708125145062283 7.914102577385847 0.34807543175425215 1.6278615706683317 -1.7299716471672204
P 7.470498118331386 2.1710070042064933 12.823933141399097 0.4521811985269309 0.2567187371171256 -0.9789254171724173
P 1.3169182295806143 2.3880660940833733 1.6948270374529915 0.0012266733182495005 0.3748964086018382 1.5846125301717096
P 3.498910417342264 6.130943752940147 11.7308639177598 0.44420357963809304 0.6004477189772239 0.4639200842304139
P 4.166417513705568 0.8694328938105808 2.2581773946886576 -0.4909356935873094 -0.43350573360461475 -2.0167478657913587
P 0.7490406451828229 4.054272474852931 5.949848193703897 -0.7970661483683434 0.3535919906971072 -1.5212654333736317
