# total energy = -340868.756155896 ev
CRYSTAL
PRIMVEC
9.29756091484719 0.00000000000000 0.00000000000000
0.00000000000000 9.29756091484719 0.00000000000000
0.00000000000000 0.00000000000000 13.60792021073633
PRIMCOORD
 96 1
Ni 7.286610125747989 5.16797490087687 0.9460891253198885 0.6954846906794151 0.2740633990431603 -0.4739070202397967
Ni 1.4638358963855864 5.920770522293203 7.999034807550013 -0.6496398644311586 0.6694250174778857 -0.591784129764955
Ni 5.337441545207963 5.05890521279611 10.470465054776913 1.022253390536091 0.448896357128072 -0.4898884832697175
Ni 7.705288595099687 8.58103516316848 12.549223970278877 0.2268828847026157 0.23250357332350277 0.09085044442466934
Ni 7.039276408049207 1.5608187551674824 7.475960534031814 1.1606998395721688 -0.27218263708067963 -0.3728230710125773
Ni 1.2073068908586673 1.4102819450306139 12.355883048814226 1.8681666423141243 0.19998811719430074 0.7231124796990127
Ni 3.5680041163420637 9.057377105836764 8.600777604194025 1.159974788480686 -2.78230668758004 1.4094743821415532
Ni 2.759516104540958 4.501693084557416 0.6226288376724524 -1.1631490724436098 -0.19970195341244965 0.27657870926584627
Ni 0.18038755948066662 0.8341641562562951 3.1174656947146566 1.4246449192344044 0.3571239151097656 -0.11164115591777547
Ni 2.4134980743974395 7.257611032991711 9.82528591265718 0.7133541147606681 -0.4589339438697322 1.1365381547243008
Ni 2.4129216256154935 3.7704585070980587 7.9230207380894475 0.8701091322979467 -0.1967143315390354 -0.7711620269080719
Ni 6.310161674497651 8.659608851172104 8.166711671388773 -0.1879386422289344 -1.1644611063868138 -0.46999225856642285
Ni 4.848891904947823 2.907431002476073 11.526045047690825 0.5034867907794425 -0.6680610472508236 0.4646124823117483
Ni 0.25430781820422754 3.7635132290317106 8.947615679217668 -0.5628656469583919 0.5323217127332639 0.35221927871929665
Ni 6.8691403393261785 6.5399230019080825 6.328417435519437 -0.7117528317118194 -0.26409600341780326 -0.03944843580360948
Ni 1.1973213103456049 0.49314449490590745 6.347972065812802 -1.5344809036226412 -1.1308832704313685 -0.07716086275271873
Ni 8.45734041163609 1.0499828611924358 10.896882813904284 0.7437370979278998 0.012727474868997436 0.4119192656830906
Ni 2.5704502016237063 0.5445060813772861 0.6405982338154657 1.7260167762845307 0.1410538047519377 0.40751213775433043
Ni 0.06234107625524791 6.069689556816225 10.00764548482576 1.2249864174653806 -0.11314525126712772 0.012267761623759517
Ni 3.6590086434015205 8.893953876155106 3.3734173217035295 -0.4353042202659342 0.5726453520529752 -2.77728660865763
Ni 1.5509633405084076 8.62960562182792 4.4158793858037715 0.27915315486124187 -0.11672962618427639 -0.9757418772381131
Ni 6.353172191679614 8.851938198000049 5.744651473067236 -0.20147010105646593 0.17696363127466944 -0.4661721134893842
Ni 0.7664537385240512 8.497385006859332 8.69714868346218 2.412306687838555 0.431430853353457 0.2991758778400718
Ni 5.643275516713254 7.907380380976717 10.333664461260156 -0.8898732022987512 -0.5968492029926882 0.25374885585552426
P 1.578037838137866 2.5657270406361494 3.2244099603510175 0.29064110089618334 0.11884333009316952 0.9243069584965888
P 6.196843001040289 4.586263699405477 12.61194345726679 0.5111440502143842 -1.5591138716799728 -0.23461573457049917
P -0.07308998652633888 3.979951151530393 0.197758192695336 -0.43126193187576056 0.7793448198291804 -0.2265332146726808
P 4.366701796411088 5.899042122238244 2.727884872265827 0.3833234563232688 -0.21096749902393988 0.23002117322128127
P 4.00746263452681 7.105605208216981 11.90822315207215 0.5973423405790229 0.14668323512357317 -0.4159862366636126
P 1.2063678371977555 0.5183501827745414 10.498538110457678 0.9176825112015358 -0.8991852237282967 -1.432501953384978
P 7.391031033329187 3.001801246617214 8.904546587401411 1.579750574093718 0.31375891786056936 1.583703645204195
P 0.10486254172865632 7.311406720932663 11.857451960724216 -0.5902797773052867 1.4162171001820256 -0.49635377927908714
Ni 3.404050925683454 4.974390383314042 11.839625747020587 -1.3126260682622362 -0.11721170802701748 -0.8901429110203702
Ni 1.6889577408574539 6.286359918339885 3.8588662253704595 -1.3559766673337292 1.8029084445362629 0.4398489022138231
Ni 1.0827939539583558 5.730393663275075 12.718125322901221 1.1187654041219117 -1.3953901361343453 -0.4053076739038439
Ni 8.164894927969543 5.26864889137542 11.78656828542297 -1.2346074854949125 -0.23450183470045424 0.9721423328123129
Ni 4.039269590704825 5.668574180191879 8.495642643928095 -0.34038577641947826 1.0821981465208395 -0.882930452432331
Ni 0.1974885634263613 3.283312798548788 11.724379689168106 0.2606178150612157 1.3457048530940758 -0.38729503937650717
Ni 6.302621352527359 2.0804501418477033 5.279818981159772 0.38361604786302317 0.8721323333755625 0.5653542177082005
Ni 7.763974800126178 0.43480044012418434 1.7090730140790655 -1.0389699319598236 -1.7313477015791408 -0.44322244667174643
Ni 2.2443661422623165 8.32483157227653 12.069028188576453 -1.5018381778869554 0.7484576433320207 -0.38212223692631614
Ni 4.538176713917991 7.351190984447927 4.725051181707749 -0.6821815458126057 -0.5953008846689619 1.3920394744945574
Ni 7.20320170602482 2.8973059585480234 11.191997627333683 0.16932205556901161 3.34460797739453 -0.9412086193479339
Ni 4.34302090854631 3.3081558815384557 4.1478437187843324 0.04456518820488454 -1.3298565732079097 -0.30241238249949853
Ni 6.57340351906594 7.367303657659415 3.501535852759303 0.1507761742460242 0.4367496944632091 0.18720639204860015
Ni 4.656423094704891 5.6316721605863425 13.611322483209275 0.4231094779719552 -0.12164788942150016 1.9425311732686286
Ni 2.630531040800066 2.332599996144034 5.594066315613173 0.7348860752951731 -0.036340486302247094 -0.965292399770015
Ni 0.3182675998294235 4.476980167421736 2.417583422700456 -0.6071564984559673 -1.3505683518339642 1.1314440280308449
Ni 6.0641575080217445 1.3808737595903744 3.163692238246217 -1.0107230212989884 -0.6131741654049568 -1.3999780126153438
Ni 5.159067837439707 7.570167141099372 1.4915640125532834 1.1091489640780705 0.5819350048850173 0.0757531837719147
Ni 8.074504039936027 2.7064921141629354 2.029389796352697 -1.114385015666029 0.7698373945593774 0.23399738426020988
Ni 0.9216449076970831 2.2985895180092264 1.173659017602826 0.8197795308054591 -0.16633160548212 -0.6403216723540263
Ni 8.041720839853106 8.283159903878442 9.939347461238372 -0.31783411637120745 -0.5262382255433453 0.4612751904083991
Ni 6.1649802594962795 1.9625756635007685 0.6585304397144822 -1.9488907969380695 0.07759743606950506 0.29764478590752613
Ni 3.501824077150276 2.6116476944108387 1.9280649765842084 -0.1833494801963552 -1.9587129252348139 -0.5377346562187191
Ni 2.6356818895935823 1.4625528329677069 7.827738403214292 -1.6637107191564575 1.6512889484533368 0.4387700673273476
P 5.077360871379377 3.7961662632606457 6.040991705036318 0.052481614838483806 0.3908027954194495 1.874438077145133
P 1.7005703945453639 8.14361281084254 2.1563517108201786 -0.15919062356196453 0.22267604571011973 0.20352981179897206
P 4.439938684401214 0.680360183184333 4.940192094447053 0.6058202961430469 1.4191959803046914 0.5469242931377871
P 2.3289274595493783 5.020060002941756 9.731309885102402 -0.16350004957059583 0.20444332475217694 0.8722742582700656
P 7.690068487744116 7.6137355119412815 0.9474921272746568 -1.230547970713558 -0.4766383031280308 -0.38048264444036406
P 6.459080709020672 1.255421769029151 12.160731892223046 -1.2150766145508365 -1.8273089848678143 0.3181143666157876
P 0.4421092528255982 6.075184415366709 6.046652060172588 0.7561113032225365 -1.0380499912487156 0.2053308695634528
P 7.086340661826789 6.216042464503486 9.788258375978154 0.09677555165985269 0.4083667724451419 -0.2681493475515705
Ni 0.1011332900119064 1.437049623147101 8.585781568058534 -0.33711610452927104 0.31459375505703885 0.2891804571902568
Ni 5.93413111744895 4.284130157177839 8.062801199906428 -1.0814790089666277 0.4383525201739547 0.15528100409491322
Ni 6.123104044756211 1.0218298464870785 9.933332869028035 0.06773596989439302 0.5884717775622704 -0.31077052465620675
Ni 0.8405720352968936 4.053829571229458 5.154639409135822 1.4615844725732312 2.5650320153911506 -0.3818910947521165
Ni 8.842863778464901 2.359934825481468 5.1369489398227834 -2.0758171611496894 -2.3546401863650224 -1.5742424997912952
Ni 3.112432924945829 5.185900598483188 5.44090945278675 0.7085224976999799 -0.40024028668326556 1.0341084901024642
Ni 2.736569723995112 3.0618263004275796 10.47873802455394 -1.6866429024725982 -0.9488301404489335 0.053735541850242936
Ni 2.650539392070188 4.4749997869289215 3.1215343074078747 0.49513301949810856 0.1685844060720387 -0.6352614842222994
Ni 0.4956120675950758 9.1102337401168 0.3061036007742654 -1.4372852337062343 -1.8767780381322197 0.7862379474045879
Ni 6.2226251376908674 6.742814378031037 12.35073870831341 0.6156660785888752 0.3468716412541381 0.011719088209141108
Ni 3.9766040295707072 0.4707224968004123 10.99302238390356 -1.1938698985662342 0.5634670279878167 -0.9205675460588144
Ni 5.72001758520005 5.283803915803998 4.634694694649931 0.6580460862169828 -0.06803473208173444 -1.1279722674321606
Ni 8.331702469854886 5.821612034237512 4.279201520092202 0.09783150372819281 -1.1057185982402828 0.20053961882239657
Ni 7.645207755923328 3.9857900198378453 6.537204395071938 0.5595065006781719 0.1010068161323809 -0.48162572904029316
Ni 2.2213732739114747 7.5528643800799955 6.468388497336899 -0.13660888160670667 -0.2827663261337969 -0.292907785443173
Ni 5.0535498176606115 8.887566451748704 12.823423920240737 0.12654738360564657 0.06186768403907408 1.6614196091294355
Ni 5.409311691731215 3.9610585075801668 2.085250472591553 0.884852094935076 0.8463989331652004 0.44133345717914957
Ni 0.8946810510435143 6.211393684003922 1.2974067652329095 0.8154932447252794 1.965241727492267 -0.15052292058463754
Ni 8.578422548527724 6.944246037077129 8.009472249527633 -1.9622137392992207 -1.1716743363058015 -1.701623692152147
Ni 4.8286232219697265 1.163348022454794 7.088978379882241 -0.8241321513472 0.376429557416913 -0.32248241377649617
Ni 3.0586186418828807 7.319328242903919 0.44390368209842973 -0.9455684389785264 -0.06079501980018562 0.313334428728641
Ni 8.77139342706461 7.807273541699114 5.367140744307475 -0.7708576082937757 2.3056023071007647 0.6439764954977942
Ni 8.818206646695216 7.64539370714331 2.7066018253827253 1.0102399110149827 0.5463537653462978 0.6262412830015601
Ni 8.221377611039241 1.6856478091417644 13.351710406455046 1.6240481104595128 0.6373031972426767 -0.6747502863455411
P 4.607294782385503 0.5430054550320268 1.3984043108542286 0.6337018530446634 -0.17072870610855112 0.2869237999455962
P 7.850423522296063 0.469819703627397 4.4026926550387095 -0.9369683560143411 -0.2604072417123064 -0.46299140176855746
P 8.416356762751938 9.142617145076763 7.374145732798672 -0.3175050151665629 -1.1618547791122182 -0.36504394128779066
P 4.250724020507975 7.787042048965013 7.003533794300263 1.6522022042962257 -0.5246469697968256 -0.07633451019668144
P 3.085525783414355 2.8246548169008436 12.799228877252707 -0.9451352080958496 -0.17707213182807569 0.5680734164115765
P 0.765242266325865 2.5250037234599723 6.801170519642059 0.7392194125632042 1.8189482716079446 1.6723401126966813
P 7.356834603974398 4.1235798738449105 3.4735306692738317 -0.6198608333965131 -0.4980162545831746 -0.31100192394072246
P 4.194269230121274 2.0158971758307636 9.28486053080241 0.5227800917914157 -0.6132636397949697 -0.4395151730234882
