# total energy = -340870.6448372326 ev
CRYSTAL
PRIMVEC
9.23165913831764 0.00000000000000 0.00000000000000
0.00000000000000 9.23165913831764 0.00000000000000
0.00000000000000 0.00000000000000 13.51146629933150
PRIMCOORD
 96 1
Ni 2.6296103304770493 8.721748180156888 2.9314209534932165 0.03580055463837705 0.7536340453266376 -0.18770750005473477
Ni 3.008837644669113 7.049654738000272 1.3991936051833258 -0.5676772094144222 0.3664804166240011 -1.0377761687620386
Ni 7.0883353886116485 2.256125108094121 -0.4460432915023168 0.36017555745189583 -1.5605740011652671 2.2545044599836848
Ni 4.826366640460964 5.153472008745669 10.275334817564524 -1.6582959758987892 -2.4915755980732124 -0.2985217891958407
Ni 7.057880146041976 4.516099817931665 9.011972148141473 0.2074584574294169 -0.1063811930704168 0.05953183681704585
Ni 1.1718944703007161 4.154920396805292 7.301285756132621 1.7479845388048734 0.898022570878763 -0.6079669101724046
Ni 5.086311690560045 6.18122335765115 1.022577004116059 1.1762784107367161 -0.5296598496303845 -0.5272286144810726
Ni 9.058694496783296 5.904052032124664 6.992616010585606 -0.7081759129938384 1.778055647158641 -0.11781206061517774
Ni 7.212270408768625 4.118963085556769 1.1670986235244367 -0.7184772949198465 2.5608467736652094 -1.1193027646826208
Ni 8.104011727732003 2.3451182994768587 2.004736882589715 0.4411385675595241 -1.6775088013818142 1.5430773870424004
Ni 5.602407578967925 8.858358267924707 6.310273639980862 0.04790068033602073 2.116635480717632 -1.3524524562305547
Ni 2.2077419840239 2.2183583917096 1.2389043124469692 -0.19492150130467076 -0.6768331370164988 -0.5339489639240418
Ni 3.722084839629872 7.399710010203803 9.850669278477664 -0.4670892259870149 1.1805682963613218 0.016851267229383883
Ni 0.3596045001253469 1.1032940133333793 13.46759444573419 0.048928350269586696 0.07790905377265292 -1.0513767902646087
Ni 6.118928123683233 1.8544094729260876 8.352031320919442 0.485340458887719 0.730007149936317 0.020757544262325543
Ni 3.318061289747556 1.0110328147152172 7.835853270747734 0.025015033987098853 -0.8017704958225482 0.8075019989896867
Ni 8.057576483680636 5.299895349878616 11.077388724399107 -0.6719436701346815 0.692313492040285 -1.1784983012061703
Ni 0.24661730420704112 8.491132110246912 7.715844475102694 0.8594627083276939 -0.7881557332525909 -0.9220127631457733
Ni 7.6038312191938155 6.793014621772045 1.0301423485494774 0.021741248331833524 -1.729554357124144 -0.6408541478187285
Ni 3.4952999081456038 1.4193398543072417 5.549104903892739 0.9809954123275685 -0.08940111357265249 -1.0028798711054856
Ni 7.509280569179085 7.882618085020299 10.491383329797948 -0.15217793968955728 1.1468464786288444 1.5351995269562206
Ni 6.172277880218591 8.125475334574832 2.077360496486989 -2.0772127559456353 1.2747470338282756 1.0525528128505808
Ni 3.3836245309508968 3.762344103905818 5.523379040155573 -1.5542881681565555 0.5138156835092763 1.3366160034189303
Ni 0.7031256041898011 4.016316270724334 2.487447399906668 1.0752852214510902 -1.342955572483713 -0.15782279668016044
P 8.440265669944123 2.7769845324722806 9.582682530348137 -0.3007149401924176 1.4516607857016162 -1.3276942754492682
P 5.29070984931577 9.097199745876386 8.613722077708406 -1.3609941751529786 -1.482050453737067 -0.6256098200651483
P 7.562113352818443 4.977175019551048 5.616851432415792 0.7906301629350125 0.2657906175114068 0.09416511062019912
P 6.925802802773009 5.444444664263565 12.824610329500937 -0.15472718847397224 0.33356104018816096 1.7133371239343331
P 4.1937118273229546 3.3555141297309343 13.277501665543472 0.8690498377954969 0.6756033783744558 1.1297152182651962
P 4.898715150924295 2.656206739644442 10.2928860473837 -0.7956237594948621 -0.6849069151635689 -0.7886005340994934
P 4.3728983257398575 2.789751916671692 7.318863757762483 -0.6164734049815189 1.0194460029942831 0.06561840933075795
P 1.5381697671162253 2.4129617604179106 12.120649260184566 -0.689362122721445 -1.5762330478587627 0.5876554523085621
Ni 0.6588542609745461 7.21666467838462 10.5468203644009 1.0674395001544261 -1.3808785727817314 -2.5556336048953856
Ni 3.9782356779386716 5.133577783908553 8.040349285087345 0.36911965401906105 0.07207624914095975 -1.4291582337237259
Ni 5.224131125638145 0.2633829198574758 10.710323197585426 -0.7287969316782997 -0.41572706946495497 -0.7871614876601217
Ni 0.97273989377584 9.269877924799014 11.36283161626158 -0.6974127609400633 0.9581478183054335 0.37695611934434436
Ni 5.5819040646462375 6.6770188282322 11.706469039227635 0.27253822064788547 0.46883191970973453 0.6482152161694902
Ni 8.425134981077287 2.093352499125196 4.587129124344313 0.33697957895140673 0.7231381907306256 -0.20315494495805658
Ni 7.23583883383088 8.466538971051518 8.096826727643498 -0.05808122041344836 0.5119362070983763 -0.72130756527979
Ni 5.489282831332647 7.088150755434506 4.4233705742094465 1.1370071239409192 1.2088620010996922 -0.42472155965408137
Ni 6.042942339630192 4.121584876672194 6.839571723720325 -2.016783089904669 1.2478417247969993 -0.031085408550894852
Ni 1.9706083629607893 6.4209326115354 8.259437782582422 -0.5395673385520836 0.0415971067154961 1.0410196154000007
Ni 8.106070387657143 3.279159079323608 7.1555640210728155 1.1041114016541629 -0.9761825643199574 -0.26685993931618557
Ni 0.43132987361582226 7.731661999388502 1.1317976832206555 1.3904626169257408 1.2591332385504186 0.7571865385645863
Ni 3.4425502094359604 5.780606289887114 12.674876515501822 1.1596114916039963 -0.16023423433513048 -0.9824786817413144
Ni 8.81971454394876 7.062514438788255 12.50687509495622 -1.4576545413912059 0.5756350308089183 0.738888768696663
Ni 6.441463820833658 6.685539649357331 6.654451114990058 -1.7210542900729329 -3.0347193411226443 2.045415408929381
Ni 2.255617366856979 6.113878406288382 5.841749412829661 -1.212790132509505 0.46007268545986574 0.2789590365725647
Ni 5.952028963205171 2.1651378783982427 5.546645589973199 -0.7901812483230519 0.1735281232305592 -0.16705357124980905
Ni 3.691094160846485 2.50410592831436 3.0247308685575485 -1.0511914137266798 -1.0285903884977126 1.9996178909792914
Ni 4.985132709485895 3.757515946323539 1.7886071317583472 1.2180606368798248 0.6004065813266434 -1.3435759796765312
Ni 7.687211561991418 9.462634961735898 0.9893947295199891 0.8068350548296492 -1.0685802986270887 -0.31713991851766027
Ni 0.4979510629241902 4.344040160152467 4.944831902745092 0.6999861780941945 0.06026048745295428 0.1257228308218222
Ni 1.9640538851722265 8.984961237491394 5.845452231197257 0.49266938844896446 -0.15878593192437815 0.5221429724280491
Ni 2.7964633326608257 1.1354940394270505 10.368172071695371 1.6546786908611761 1.6254015391636136 1.3428308739803907
Ni 0.9281509814958997 6.186937754483713 3.0712916631693723 0.23681274222181797 1.4905237813154006 0.6361981371039559
P 3.947281925790713 8.270837034939207 11.955823530285814 -1.8581303411240448 -0.8409409953744227 0.2844655682130907
P 2.5892125913182467 5.701075548832936 10.455861752847483 -0.7517152310373699 -0.574148933181695 -0.606905815897742
P 4.379222012056991 5.966328802774866 5.799945692026917 0.28449924966450363 -0.8281793248333802 1.57273197668404
P 0.5957014058988022 5.608288145659917 0.7195062596658934 0.49181552508910137 0.11594055462407775 0.31246642430139093
P 7.620272803618365 1.0427989528426034 6.285926062911066 -0.06145836441579738 -1.5226173194158357 0.8418282830753824
P 4.335500875709622 8.980742369393687 4.325250041714664 -0.09902629536724236 0.23137203082222088 0.37226591295752665
P 2.7068885467700885 4.521408021774516 3.54005775978263 -0.9821788911127084 -0.5962046274301539 -0.9365261262706
P 4.240931762377177 8.968039606806274 0.9686899650352169 -0.6362487878362333 -1.2080611024649517 1.415652228817491
Ni 1.8580929048100827 7.399073025742661 12.76047153325925 1.1485359505161252 1.2123463601038669 -0.5088434271056655
Ni 8.46070456265381 8.38870685522705 3.203892441495537 2.052809901621239 -0.7518910944936019 -0.9329350664852321
Ni 0.8180292924868472 2.1139852566708828 8.139901647870868 -0.0472663891861315 -2.246998124304311 0.20304310197054065
Ni 0.10605052745305796 3.542935267848397 0.25124882745566346 0.9193570706904812 0.3831473357567208 1.2547963017379615
Ni 2.8957128970338357 4.597873852088128 1.0615281423319496 -1.44277119652147 0.16348256606909908 1.190762206175188
Ni 1.0699123349059956 5.173403160218213 12.010747284656313 0.4057707295831915 -0.3442784266056652 0.5794497765693182
Ni 5.653209397658714 1.2694361777851568 1.5000965596576479 -0.24197397470778326 1.020171568306398 0.04952330354110825
Ni 5.824641302635627 8.705325059050054 12.941660378482267 1.2313182732206795 0.12710814120512304 1.080665769036713
Ni 4.998389371604734 4.418631963718082 4.097703498374683 1.8515349472947145 0.931683453466318 -0.3805862598977639
Ni 3.8470076472845616 7.855606251204335 7.3252409877009885 -0.7311595183732053 -1.0806948225024355 0.4910035707107673
Ni 7.7189777001188045 7.799874726683838 5.36433602136493 0.015549003478192576 1.4865586260200656 -0.33184817126211236
Ni 1.463836449998611 1.2452769265560464 3.930755410104678 -0.5677070342110933 1.2248576051970002 0.3436302514987049
Ni 4.114245707880775 1.2157263865543717 12.843472454877825 -0.6775144793542396 0.555173934741089 -0.2981037278218156
Ni 2.6046386932685115 3.319916853177839 9.01716034041918 2.7146234253004535 -0.5257304326689913 -0.08052129458451938
Ni 7.906241900035696 4.6566056657371915 3.5002803880990263 -1.298779649297447 -0.323881608116868 -0.14280318334287664
Ni 3.335287565174961 6.584905336155752 3.706208232727379 -0.12113932521619782 -0.39383823981166366 -0.14635541947050923
Ni 6.783616793055485 0.33777255009411905 3.972073545651537 -2.1526563788969315 1.3223592363896 0.8481411126672876
Ni 5.902630356660666 6.784623043870912 9.316142383161521 0.5965044180587599 0.4599646991270917 -2.228491580859691
Ni 0.7543502328562468 4.433707262631776 9.659049581911978 -1.1298437734232605 1.0381620913465475 0.3496965122974429
Ni 6.001566044632533 3.7283808309704347 11.793902080263518 -0.446281030992412 0.8524376831601125 0.3845575858406861
Ni 8.760391904132838 3.2032009902471383 11.716629402965792 -0.2611441198783309 -0.9155487526879844 -2.093388851484866
Ni 7.017353163659172 1.6160757362115497 10.834101279541832 -0.6418936448268364 1.0099200657817187 0.4760207241486899
Ni 3.027347120677659 3.697131665739048 11.483989753434333 0.9954496400796855 -0.3631043010629166 -1.0755063363229604
Ni 8.561837385433675 0.6955030234714684 9.573737976081464 1.7742511858108863 -1.7334279811469373 -0.7114188454111684
P 6.039683564053625 2.4217687629676132 3.3732859961967963 0.5728155590822522 0.35333719437382377 -0.6716744756336949
P 6.493087257162732 6.117275656747807 2.7894288086116927 -0.40152738092580526 -1.1463086038475032 -0.400237201359472
P 1.6953756857943008 9.31557463614181 9.008580436677363 -1.3149326049082257 -0.8914045513416131 -0.0003638110973219541
P 1.1148151235870782 2.4636251042258435 5.960434388594589 0.4985160770377286 -0.8240326496548582 -1.062504524746654
P 0.6620281052896275 0.5630554906823315 1.977551493587237 0.11323395432619209 0.06832912339370167 1.1104951936933198
P 7.9467873457362135 -0.027011833815963823 12.186045408362592 0.4611525487876058 0.9177334190441292 0.6133968229387243
P 0.4838487808540376 7.633981817021203 5.4011140270858515 1.1947435594204392 -1.2688342678882665 -0.49991038628209383
P 8.203602863482727 6.547544812760945 8.983449091770597 0.38503709658026597 -0.6460385202331455 -0.6885080022512658
