# total energy = -340871.9002476248 ev
CRYSTAL
PRIMVEC
9.23074640193239 0.00000000000000 0.00000000000000
0.00000000000000 9.23074640193239 0.00000000000000
0.00000000000000 0.00000000000000 13.51013041737266
PRIMCOORD
 96 1
Ni 3.965030259981762 5.636644615232695 4.6208831104306975 -0.26093688896353123 1.1999145620984173 0.581694606739437
Ni 4.447733689614971 2.279754399828507 12.962024774427695 -2.850385128415517 -0.5135122933362446 -0.3994265325327186
Ni 8.646384914173003 8.54933284488718 6.388359691736434 0.12114189631935912 -0.15453075619245 -0.49860323743489615
Ni 0.08690563267188216 1.5833684181791743 12.448274651829301 0.060627126763753654 1.772303318055896 1.5813955658963088
Ni 5.269463978743112 8.228453633120603 1.4702400806920777 0.5222650998282101 -0.16468378546605186 0.5976770982106222
Ni 4.7926220731727245 4.443229085295827 9.036804878191024 1.8185623490234357 0.7100692733618095 -0.6230847396504495
Ni 5.5115772301505555 2.585338264552416 10.37098467772787 -0.9174742518454714 -0.7569947342687543 1.0617902722884487
Ni 6.92012453931278 5.662010706767548 8.170995005035815 -0.7741879582185892 0.5946830485793049 0.10330306836572531
Ni 2.1923853836795324 2.424834043443238 0.44037861052636484 0.795625816377391 -0.028107813979809656 -0.5006585773020281
Ni 5.872000960161422 2.6547996323834813 4.164525154541893 1.122736730064834 -0.8269989313720338 1.1676078795459117
Ni 9.162882106946348 7.006570480806193 13.43458176744696 0.5737781801058377 -0.46026783218980727 0.44006950286506147
Ni 0.38029291197184617 8.624914197684623 11.873634832651396 -2.4521762703399834 -2.050196889478424 0.9560742236058568
Ni 2.608692053338143 4.916295615524964 9.456754000440483 -2.2936178810453787 1.4625977443290938 -0.5673599352843197
Ni 7.889112928242779 4.343943175343543 3.954401978397618 -0.3788350815346121 -2.350326903701649 -0.7325993361435255
Ni 8.171629157324187 1.9396290814934554 10.502491431607211 -0.9431405462633241 0.12164737520086791 0.42517381670015164
Ni 4.504945856766724 1.9135337609807084 7.850493330803363 0.41430499230644774 1.7667695327218604 -1.013425764942132
Ni 9.118352985562023 6.461014897875745 7.849224103151965 0.06794680035361847 -0.698673629930358 0.29942424640545207
Ni 3.575086602486012 3.7479969469659475 3.419900214467529 -0.07498442392669022 -1.2927936069173414 -0.9512549478403424
Ni 5.055052197749094 0.056163554343034355 11.211085075576356 0.32873276556158226 0.8799790831134909 0.7668785690413696
Ni 3.974159468325274 5.777828883800953 1.6974401379642559 0.025227921328853323 1.5910346316479695 1.5366432013812825
Ni 3.707335508388427 0.3539815919896976 9.153910744368938 -1.9147303490062764 -1.076432961902288 2.709087068863257
Ni 2.752737853338644 5.2864023986726805 13.121808997305534 1.3391200007877067 0.7453216688062002 -0.870703571348836
Ni 1.3910827366789857 3.281096555435966 11.025185224543348 -0.10512160963170282 -0.7020330333208942 -1.0104018905141439
Ni 3.630046467478193 0.6652294428001371 1.701668742961387 -1.2637776793009656 1.2269391703163772 -0.6462346954043515
P 6.937201420440683 1.26919072841198 2.5004006270461923 -0.4514075535857 -1.4539809491943605 1.5917298579427814
P 2.674950352114407 1.6414575062537118 3.6648528435154817 0.17296248053507632 -0.09962124863876391 0.6984360599982552
P 8.808467592943193 7.662802714938563 4.036867621976245 0.9947798677061708 0.5590616998312694 0.9615447598021247
P 0.3738156971137653 3.762664603242833 1.8318111924998086 -0.5927323526108373 0.5993804540549742 0.862882018421888
P 4.962883193391195 1.0464620447713455 5.835173973703108 -0.6131600243375698 -0.31488171861110287 -0.749358043659103
P 5.638407687824819 4.558908801130898 3.54272083583803 0.5514946861172889 1.9270680446360229 -0.7089385021914757
P 3.4950744913418696 7.51827691611717 3.1668688360340944 0.3230747959448565 0.36808298522443056 -0.011785679781018412
P 2.0528811109843974 5.731638228036614 5.832188750267019 -0.7523850034108849 0.061017934444269104 0.5831650206373763
Ni 7.079234917692059 4.641542444296838 1.4834935865966414 -0.47132897509997534 0.8265610725036667 -0.29693876097943694
Ni 2.8059069534990346 7.805057750107274 0.7955048150889598 0.5830704040410409 -1.3338268707095673 -1.9627582989487808
Ni 1.807980174117156 7.574279855470135 7.129646793856285 0.7450313912592911 -0.7204655289944689 0.2626153051072187
Ni 7.006182789450857 8.398594753633851 13.036479053070694 -0.1886107285952945 0.6604271848546497 -0.38086393903918275
Ni 6.542762389372345 5.634161544409233 5.319681086155014 -0.5258834133070879 1.699208912063067 1.2712912140691912
Ni 4.616600967103544 6.394765829846037 6.979279778614492 -0.34494588498633494 -0.29276123256297965 0.9346299376891516
Ni 7.848276105480702 2.3856218320749503 0.9974227806199413 2.25840585192062 0.127795911300767 -1.0471154438850934
Ni 5.137667379421923 6.5609931138197 13.144114173282542 0.02804147951824848 0.18990682169889875 0.014270650986401229
Ni 0.8328071849948889 4.049962359040052 13.148815392503321 -2.007874217450813 -0.23088043589778298 1.0230280639185865
Ni 8.485908385303492 6.11233267748363 2.662603305521605 0.25803051395001364 0.5709908471686876 -0.24770316388207658
Ni 5.0345691711421665 8.701658624548076 7.5386390199442195 1.0954789227901456 -0.336458159230298 -0.6174177711726593
Ni 8.743224676288047 2.1266347759638276 8.222873646827729 -0.0461340753539012 -0.0250721124772794 0.07632808243877823
Ni 5.616890817603661 2.7918485264948205 1.4421121497877825 -0.34900977064306343 -0.8181034286546168 0.9405038799714254
Ni 1.0059206058990482 0.8104549322104472 10.433522985642218 0.8399025268075795 2.2702056727690256 -3.417078633760431
Ni 3.73529543970541 4.01689782487781 11.208396159104705 0.270637661191063 -0.0730373275026484 0.8425250520320909
Ni 8.82878446611212 5.649936890272793 5.565458020870384 2.054845443994029 1.4444179880962738 -0.2756140313597318
Ni 1.5977499213128354 5.9704468721771455 3.7271206905557497 0.06261227551458248 0.6943801447613267 0.265333218259014
Ni 2.5944397806562605 9.22421118706191 11.816946048829347 1.1187119251761573 0.34685647174548656 1.010996072454717
Ni 5.220439483786197 4.099476083564415 6.290830392853684 -1.2573411796470024 -1.36757491369429 1.0849631108604865
Ni 8.399720904713638 8.35354871044241 1.6664885216885954 -0.5170514168377546 1.9846628123313563 1.251537685591348
Ni 6.7604695468867195 0.04904849489795992 4.727019157401909 -0.48418757623019837 -1.4638151616759627 1.4752843386578272
Ni 1.0196190337875932 1.6257098526298184 2.2592722962962344 -0.6040310654531081 0.6503464035798799 1.4983749019287034
Ni 5.942551556086051 6.72404502097823 3.288797767287322 -0.023237630371701914 0.018052743736652777 -0.5194330296960538
Ni 7.680682671016806 3.9494395290493145 6.795406999525098 0.15948321510171887 -0.7127185380591984 -0.24420106426608912
P 1.6625774543729779 6.880118483740709 11.961275232749106 1.2056656056495816 0.11522141706986608 0.3150426696689994
P 3.3655394249268076 7.191342334610104 8.892381540656398 0.808718387895291 -0.19949035162227577 -1.1934832046507768
P 6.807629431039399 7.571796784646674 6.917187315758781 -0.22415005915248493 -0.8892381398179138 0.34729895859954385
P 3.265505824503518 3.8080798762964996 7.651664896144548 -0.14377454611721047 0.2532354065542155 -0.6817848245948194
P 3.1730783592420617 1.9042476299457514 10.831558315568627 0.17937429759869106 0.20753173386951354 -0.41469888531075677
P 7.930817441181086 3.606277295097463 12.424943016835309 0.30476082812701705 -1.2942930742810033 0.06283698993087888
P 7.36937574342841 8.839990592430645 11.006514193485287 0.1764527530765219 1.2468724189051945 -1.2013446096767246
P 4.261844915477829 8.965307207669788 13.205017715981889 1.1376421864217567 0.6373062825664702 0.18606610779656987
Ni 1.1312926056175236 1.7007188991408133 6.147487975740721 -2.9080022647083528 -1.2357526548429494 -0.23728068299717203
Ni 1.4224765057146602 8.316062648680024 2.393752273641143 -0.8726732934806971 0.26831209838167985 1.8932001882439846
Ni 3.7567569254472337 7.208834599333009 11.065945432109014 -0.7667950081886278 -1.0332273730490915 -0.35981611722994805
Ni 4.9728431689247135 0.6876546184823682 3.568890002323222 -1.3299846141453415 -0.831900225328393 -0.9257035817337993
Ni 1.0168682713140174 3.9363780226731073 6.971254567559033 0.4204848958649145 1.7827237420582716 -0.2051570629897499
Ni 6.451507228923452 0.8091635507673155 9.264328934667304 0.35619009044158656 -0.8775079958651791 -0.9915443914880084
Ni 8.167789166757046 6.998890499671914 10.051294386117657 0.1442607417250096 -2.4915755980732124 1.6695124134398986
Ni 1.1156926439385204 3.53225593846792 4.029058410390188 -0.36139348901939694 -0.5578573951105231 -0.05087081870793819
Ni 1.2841999223114235 5.803979588793035 1.3619837312370389 0.3459308746074236 -0.5467620565283099 0.366380400711027
Ni 5.960283820219404 7.615975137661886 9.697369101681948 -1.2264529747085782 -0.23491603941973738 -1.0719690125936636
Ni 3.035198697940717 2.6756888118388567 5.721364407120206 2.1112788443914092 0.6103544365679747 -0.7054942523966172
Ni 6.91272148057517 1.5446731286180015 6.7925020835840435 -0.18882335882673287 -0.6906013944451849 -0.9459885572350806
Ni 6.447501084918312 1.5604300129884505 12.629837898130477 2.4872062653609226 0.29481425843726644 -0.5532587199962472
Ni 1.3503936058617982 7.742759441603373 9.617132683396505 1.0971588815957298 -0.7677203482163746 0.6788707362718179
Ni 2.9268666563639223 0.31090354396391473 6.637243695742426 1.129292528905481 0.58176479785574 0.4945041276648581
Ni 7.262668313245405 4.192835854227989 10.366552996306515 -0.3278452207503063 0.9030246520790448 -0.5052821921169686
Ni 5.7635304573862935 4.203266597835844 12.510002500196066 -0.05687280192764399 -0.500060538706713 0.3442010364005104
Ni 0.24951538707039764 5.442531245914494 11.357331485555719 1.1116524472262144 -0.27680625189562 -1.375822755525379
Ni 4.456069053754699 8.038900252600879 5.187714641097202 -0.06601461632791211 0.213786970750606 -0.6202758094467447
Ni 8.562477427982387 8.71411090165161 8.86136253993088 -0.33732487810596745 2.7837333927242383 -1.278023133476386
Ni 1.8731215525601894 2.3833141454360445 8.620841592304282 1.1023106009999981 0.4789497248700268 0.7469514911001395
Ni 7.519883066017848 5.792607309036507 12.36911915396552 -1.7336164430086594 0.769458928174036 0.8185618563482742
Ni 1.4877009608766947 8.686797122593521 5.0223772010914995 0.06111692191597861 -0.3215215925251237 -1.563569336348165
Ni 8.76363385692253 0.6313655259861775 4.098946238712123 1.1343041231874595 1.2058144725226199 -1.2566428680283972
P 6.377005873473017 2.9394297024261253 8.34084351088325 0.9864291817486303 1.0819461784110334 0.8094421534351932
P 1.241480027251999 0.43039001967852486 8.149189212447466 -0.689597892881335 -0.9901115156962239 -0.6243744049961505
P 5.574337075982238 5.92201314499979 10.993571763739649 0.2295411482610692 -1.237332083514927 0.452161401032589
P 9.094279198544957 4.709582277158337 9.278595976543675 0.7885709664131387 0.07844821410557457 -0.8649108759264588
P 0.6914355322715516 0.4164617462007449 0.6073185081341232 0.18690197343430393 -1.430858247133968 -0.7973361142002785
P 7.003478180710059 6.886598467822757 1.0380602192564172 -0.6423960383845517 -2.057925111360617 0.33440050537032084
P 8.323714937574636 2.501956930915471 5.228677002012435 0.6427562499374478 0.1946890735788905 0.12996360837604715
P 3.830418282961108 3.845289015662217 1.1592276139188065 -1.5202274790274206 -1.9934634413421217 -1.808061963712744
