# total energy = -381172.979304439 ev
CRYSTAL
PRIMVEC
9.23566516477940 0.00000000000000 0.00000000000000
0.00000000000000 9.23566516477940 0.00000000000000
0.00000000000000 0.00000000000000 13.51732952399229
PRIMCOORD
 96 1
Ni 6.941840020362407 2.5970044208295078 6.223257237848176 -0.07815305146265895 -0.8115879961336021 0.5379398302509897
Ni 7.911538694102486 8.86780871055776 5.541672530356593 1.3435890923026539 -0.7163378799793406 0.9774236358159101
Ni 4.809869816592382 6.5945790066700685 5.247981145858926 1.310374296113582 -0.5132127598179549 0.43891636309722476
Ni 6.198941578357506 7.847036807942186 6.646052139851226 1.0456375737879864 0.6412254151152182 -0.21749373017823187
Ni 5.032698712266718 6.339166683966303 7.6611625796637846 -1.2751733227324167 -1.0589980542552921 1.34596093496894
Ni 7.8105651658392325 1.073830799521492 7.944526643270207 -1.5686459795401242 -0.3751424631743733 -0.9783350918865861
Ni 8.451437213741492 3.710086797696543 4.894273637816662 0.7710406708388592 2.1255134999335525 2.294873093608719
Ni 1.854161392816154 7.6568744602846 10.641706630884695 -1.2588110793243092 1.1097182063179791 -0.6189730314749211
Ni 7.806473766130039 9.560206534933148 13.371680618696493 0.4194657105717807 -2.593017444860483 -2.870088263271399
Ni 7.071730416547753 1.341665091996965 1.581068312542904 -0.9323794510920781 -0.006930922791878387 1.7179507114469448
Ni 4.518059737107725 0.9259862700750308 2.847263242319435 0.9647923202051449 0.2995216912152648 0.29896813270463996
Ni 3.824045671312228 5.4914711482814305 3.557315040835059 0.8208851051648121 0.2027469108863605 -0.9116599591565395
Ni 0.9939238237112231 1.285687724869591 12.703181001742124 0.22465733780620667 -0.5668837669788495 0.3962278230897628
Ni 0.9304101537335049 7.444195560728559 3.4071643657737316 0.3810940527721179 -1.0977021556937094 -1.4947293347563162
Ni 4.497972165172065 4.871009920598853 9.513631998604716 -0.4578432819087147 0.04878899647824501 0.8323056882969277
Ni 6.03816711755016 8.489312676963628 8.81926051256374 -0.09123662411949449 0.16866179627719338 0.2766710118693364
Ni 0.05371924697184791 4.212774822011975 13.574643598401355 0.21949816220277038 0.6488165971989148 0.44761131976806134
Ni 2.903332966099387 0.2770256265400108 1.2785559441575374 1.01692452212401 -0.9057271386118723 -1.6873355576642488
Ni 2.9817345284726384 8.484362360385461 12.46119364205706 0.039132190114771315 0.5068145696010948 0.7543040748104687
Ni 4.980295547594103 5.066150291830379 0.6713654438838561 -0.7842494562196494 0.03209739475517698 0.7092670891754881
Ni 8.474812682508922 3.456632436027425 9.448451291047967 0.01680601581374525 -0.6509580690219499 0.10968660329456593
Ni 3.624740015049445 2.1144316754455095 8.332474456689145 -0.411986114365284 -0.3055974650956995 -1.4055799321831535
Ni 2.3830787064636665 6.610455115248184 8.565823698658614 0.31334985534760873 0.2870292151752089 0.1830823425778976
Ni 0.3766895374697117 5.352991583406353 10.046335935007914 1.011954065492612 1.1044212195850978 1.6836447390762233
P 1.8150391147842195 0.7110741866596595 7.097922763218803 1.113596715436779 0.06047260346376036 -0.3666740206920459
Ni 7.526854764785644 6.940796390188278 12.704343771998078 -1.3709304604300843 0.8636914016970608 -1.5283850751375485
P 8.72091545463285 3.5632766627589527 7.13571695258667 -0.22329413891009284 -0.8941718296741054 0.2249152194532836
Ni 8.004366365608382 2.3746927224096073 12.299026442928842 0.8228232027277893 0.3869985911820109 -1.362650222699163
P 5.0191315200030475 1.910748313850541 0.877263518007639 0.24991611237299538 0.7512953698911319 0.24742034253433517
P 7.506019103964104 5.511798847513793 0.8757460982057865 -0.6055145919771701 -1.1477214250346297 -0.33264392769053036
P 6.4750787338997196 3.5028754119731045 10.259233719830567 -1.7228538051755167 -0.032089424335376995 0.14750573102486855
Ni 5.430192509296094 0.8379897750654769 6.864140368548746 -0.3077397082496829 0.4895051317883698 0.5162646592704012
Ni 1.962782051912845 2.444680593733026 1.2897015449906202 -2.556279723119817 -0.18867757727748796 0.26945983883287783
Ni 5.672148467719281 8.997283501806507 4.698745368644309 -0.671200878431386 -0.10199411974631467 -0.3549675308883951
Ni 1.7243448819528697 3.339542671889355 6.881509884199043 0.33782650033273426 -1.2545908705953748 -2.2802692276526146
Ni 3.9747347856580837 7.098689323435198 1.143882396935189 0.29662611483502466 1.4398987600696815 1.8813250340729535
Ni 1.8891553284778633 1.36862399888441 10.242688949087787 -0.8030537334103459 -1.0136201403411254 0.9093431380979049
Ni 7.5713337286670885 4.838888276832312 11.601599798820596 0.3498510355974362 -0.6286208389773302 -0.04681181814721616
Ni 4.19598438257334 7.323845606754494 9.953796416258061 0.15461663103803694 0.026158917783554947 1.1986763188159422
Ni 1.540037946068713 6.508437956810802 5.686429576907378 0.16187408393139865 -2.057305218388431 0.1845722968598628
Ni 5.77521849199605 1.6146067073599877 9.23779684931643 0.44741720147938424 0.3822525918565933 0.9464343865232475
Ni 0.4125146830046207 9.407540988222129 1.4094521042894557 0.16863788501779345 -0.2565503298600614 0.8290247035528109
Ni 8.503101525193486 1.2100106837473832 10.206070459907236 -0.683107657171301 -1.406594232380281 1.0905200361229734
Ni 6.497216623522606 7.547662718611411 1.0857309542061349 -0.8636518067083772 -0.045441934382883034 0.5348845883644338
Ni 1.9863514696506865 3.7353001638502685 9.037808677391098 0.7969175386056211 0.696074244634298 2.722549879236382
Ni 6.703338200745626 3.624435238095938 0.18501161714332487 -0.01001059015846663 -0.5212083764289217 0.4503096925358309
Ni 3.5212359145055614 3.384714310665132 2.6051946087801023 1.2370780585225922 -0.09718821371723907 -0.19563729642477273
Ni 5.269667411450708 9.224536281139317 13.365259984209287 -0.3508249694749313 0.015923356098475804 0.4307122300198776
Ni 0.7651055991172202 5.2467167832851365 7.755852161285648 -2.1359483221136313 1.2210135488605618 -0.9301194514133079
Ni 9.106763077772172 5.069428952996889 2.8030613483957243 -0.8109513909908679 0.6748988961082635 -0.07235649938553991
Ni 7.421780601147939 1.3175600056741725 4.070392264998962 -0.8799708555833748 -0.1757518703547554 0.2493029042690287
Ni 3.6836912663898222 2.793594791506505 10.535109506045984 -0.11826097522713826 0.06310438465965261 0.22500032296792216
Ni 8.309808287013515 6.298862240781373 4.780903999644423 0.3149115434077738 -0.07406396899494987 0.39357727284079314
Ni 5.005481206752056 6.9966721649978165 12.47681946410669 0.6207015841302536 -0.32550705953543296 -0.8564023242348153
Ni 3.057596282900002 8.999056749536 8.732641055244121 -0.6308078193263201 0.06987744171742805 -0.9223626902860245
Ni 3.393506663990534 0.7731609463550515 5.152738347888122 -0.10290583292730664 2.2860572950893014 1.5941662352984158
P 5.201064889915956 2.1592893016025223 4.8897453911407744 0.07122264289141282 -0.6493542148699397 -0.7244687366165911
Ni 8.400502519844865 2.942649193101735 2.984112712276515 1.0433904296250225 -1.1588823267474557 -4.219058417380308
P 9.295142942035007 0.17767388109602267 3.6606547465373542 -1.2204095967279758 0.6207262667206019 0.4361269732775457
Ni 0.3487017774725505 1.5457825298590488 5.545714057473394 -0.33287095609967193 1.0103599815326147 0.19216219339197874
P 1.878284950469462 7.703847053785643 0.8188396231534806 -1.193857814381376 -1.1461587085332001 -0.4549734165600874
P 0.08461254725910508 8.966233195209869 11.626322751149132 -0.2457522108032929 -1.171139546848254 -0.46537764261254694
P 5.302029182513951 7.878410362822847 2.858117919696898 -0.5448789805729841 -0.46080750674336124 0.7316200029493916
Ni 0.44578154926312596 6.656199365269943 12.450920811590835 1.5608030864569378 0.1181838421322997 -0.7645008128378125
Ni 4.755998181143781 4.140127079094317 11.945115750250906 0.18200505035331882 1.852145841405836 0.6301403609456502
Ni 0.6113290018756902 1.8730852709293349 8.489950861432941 0.8599998117780866 0.11819001277988678 -1.9881903658686404
Ni 2.0487383884669566 0.8283089507422772 3.1846698011817267 -0.6243738907755182 0.4008416677126903 1.8972730727617775
Ni 7.635660137187491 7.871575970532094 3.1952261665713637 -0.42081348284892683 0.9679416644674039 -0.0069391503219945
Ni 3.922673340600007 0.4538839983937719 10.685529862532837 1.7809118856605135 -0.16790100685176892 0.9216443240627611
Ni 2.483775164769187 5.475234848758262 10.930937189062856 0.8653453923607161 -1.4843503055148373 -1.4793502811970844
Ni 1.8555282712743049 3.050845011596568 4.22647685498841 -0.6702919934638715 0.836886622799391 0.3049418337895716
Ni 7.049232335979814 5.639260263736346 6.649877552400996 -0.7553818812556796 -1.708830237202915 -0.4101873705936484
Ni 8.459813962130294 7.570945830726262 10.189376994953808 0.5980303677849831 0.4327148622722031 0.23725137242113334
Ni 3.295248421313066 7.994521146443594 4.266028591454831 0.34347547108839555 -1.1594669956063322 -1.972599453408919
Ni 6.368462214163966 6.6555621043671565 10.401990321286517 -1.1385353876599875 -0.14293019583904415 0.8690043292695421
Ni 6.589360855799426 5.436989958925816 2.9007238906640653 0.22873433608905772 1.376510782731339 -0.7284847997545196
Ni 3.327573249715279 7.8637441263935015 6.727129274449655 0.38802986066000267 0.5613774924486397 -0.5300007779095711
Ni 1.2738106593480925 8.644148605010226 5.340750632673698 0.14272887846151547 1.4320466110151142 1.26463874174968
Ni 1.0352718970702814 3.2177704254655923 11.43648549890862 0.3496553746468623 1.6960343709898273 -0.3150089882175865
Ni 1.9164559549798459 5.299489374568062 1.659860543556559 0.9450470192574176 0.46574325348208173 -1.3930756290685555
Ni 6.008880823017756 3.137641793689137 2.6858524441758282 -1.0811432228937639 -0.1860997892479827 0.002967310158440051
Ni 0.2967095999039065 8.644785865913011 8.18052559760213 0.24639781480709175 -0.8747132067288612 -0.22887471832166387
Ni 2.805832047973057 6.151183953309552 12.928204291481707 -0.10124284340258691 -1.3309343796531208 1.1472681395472952
Ni 5.849510183329591 3.9145182481773912 7.906556052695916 0.12941442074079648 -0.6225147260795925 0.08536499583006589
Ni 3.8608867400254923 3.611569956391858 5.822252040887795 0.09969375374791219 0.28803503073190395 -0.0996832122249509
Ni 3.2939923708380086 1.7401563408741803 12.945600590561252 1.3093900778234417 0.7687732149609211 -1.0405498748524338
Ni 6.303239946113559 8.984261213793044 11.183846646481767 0.3178444007838526 -0.18942011187046734 0.018420154378400538
Ni 5.656235416480135 2.005912608666654 12.062337584402163 0.09750600206797401 -0.5249390471159475 -0.5413743098538354
P 8.571685575397723 6.981876629254861 6.996299044121403 1.1579253621508252 1.1098783860449273 -0.25622739930300387
Ni 7.633785297140163 5.488866690678738 9.00064897822644 -1.0846638344525128 0.7089305317716758 -1.3523452412287291
P 1.758008881817459 5.2891823721403854 3.7755926006703633 -0.4177767529051321 -0.6268619473046946 1.647896120721704
Ni 5.993207899075312 4.315124464398637 4.762791012940874 -0.3191155541867923 -0.003280470523484673 1.1199175154484842
P 8.924487988244726 2.1732813344680513 0.7909137421135465 -0.00980104525082183 0.5956549255742709 0.3547207049849117
P 3.2700997048161455 4.9448860069957945 7.572637804601486 0.2295666021823659 -1.0129863634118683 -0.48872634464081643
P 2.7796674082977804 3.8742876903145236 13.523006993945135 0.49785710329749094 1.8105209667761981 -1.0191505832410512
Ni 8.903070480511944 7.019253366553077 1.251490827119628 1.4497247450211679 0.6706915428951353 0.0004661410031411327
