# total energy = -340874.9448927662 ev
CRYSTAL
PRIMVEC
9.14916086690490 0.00000000000000 0.00000000000000
0.00000000000000 9.14916086690490 0.00000000000000
0.00000000000000 0.00000000000000 13.39072174006672
PRIMCOORD
 96 1
Ni 4.364982208213625 6.1555278442467 13.22162315838447 0.08917897025951739 -0.6392227828628927 1.6467920890242476
Ni 1.8667032493629643 3.7654743068375653 12.781765365768926 1.329243365103943 1.5591534666686568 1.5549767095831477
Ni 0.3672546282018766 6.36912414900398 8.952393320885237 -0.6227286418626113 -1.7992237965958242 -0.10126932576514819
Ni 6.94397506240262 7.943191494672025 2.4462568313406 0.8326867257854305 0.19381052762867912 1.084167097321752
Ni 2.0808668020811347 8.472022129953253 8.338308061830354 0.6846600892600854 0.4412331841558595 -0.5375233115388615
Ni 8.06090459571748 5.147272041245684 10.473726734343911 -0.2889737404960894 -0.1492689935728784 0.1660904360055914
Ni 1.266079150386442 8.582827614700765 12.363184861183178 1.7228365787843363 0.7553335445162476 -0.5761119704453369
Ni 0.39137639028071525 1.9619734593106022 7.791163551656956 -0.12343660589080678 -1.764612891390174 -1.1387444183470001
Ni 6.4597923311398775 6.1713284447057015 0.9860581094088761 0.6833107743210425 0.6367748355430324 1.9863430282472565
Ni 2.377976645338562 3.135563744589902 2.1786704146153952 -1.1511674746017013 -0.677235257550924 0.6108758562890835
Ni 4.870793555275486 1.31931811626422 11.295636092695977 0.139148874419741 0.9015349549073957 -0.5406184055244173
Ni 8.620613648224603 7.3205362168273655 11.578689165516108 -1.0902765526535998 -0.14753041361521688 -0.413387622698501
Ni -0.24477481445281027 2.9620590618426625 11.608390085765127 0.44836799542842787 0.5020991664032965 0.2087056995729567
Ni 1.0613300839869233 7.3693195414639545 5.396193255309392 0.4446000437455633 -0.710824406360279 0.5242767309416002
Ni 1.1681099380442441 5.110977320909347 1.2738724054362256 1.530829165802667 -0.052397282654793625 0.2918793441786586
Ni 5.798207374688937 1.279958427106942 0.12359601134952844 0.48026972923303096 1.0722932287023015 -0.15837378408762404
Ni 0.14500230254462 2.4228075325702365 2.4833228259205353 0.8742596641312104 -1.2163801638536085 3.747192595940256
Ni 2.915416640800402 5.973285713069615 6.593230094610857 -1.5015317023901302 -0.5647001290639695 1.0593328118868919
Ni 0.02805407133030269 6.943115041300625 0.479688663546784 -0.9703590156596449 0.34212821303188173 -0.021389778529685745
Ni 8.419725527623406 8.796579455189255 6.016946422652936 -0.2937811891870618 0.7301251635714199 0.23551819178011052
Ni 8.997989077948048 4.558990159998862 4.93477546559968 -0.034065060004509075 -0.38898194016062687 0.7832459546557995
Ni 6.443058516293605 4.648331713839127 5.272931188323936 0.8426605491686908 0.40408768545381374 -0.6823736072187538
Ni 7.293399806311214 0.6132627495115909 4.1008011090858965 -1.6910299757967004 0.8124045784976267 -0.3581752391924154
Ni 4.8097320570338145 6.687789414775249 9.42246164199853 3.352227441613001 0.6684068606260166 0.5169370027470774
P 5.730293155113279 0.7888699093783892 2.269914993872842 -0.33050811229445015 0.875002712944822 1.6755357368158437
P 4.137104063666826 7.873090625698742 7.81660645253503 0.2109021930036432 0.317239420210002 -0.6654729748086733
P 6.761156534103984 6.996518692070274 10.382937783287307 0.6150991503418116 -0.5389212203276526 -0.8828602613160279
P 3.855849715832357 8.829287704547058 12.611916687621235 -2.068670779912895 0.5416183075438414 1.417061964680824
P 3.068610186883495 6.4048058755761295 4.590928050029133 0.5978917853245896 -0.9343239764129586 -1.2984340930325702
P 6.404659489005577 7.757930140477296 5.092947069997621 -0.378563058820148 1.4888451080613971 1.1711287482149766
P 0.5861062108419877 5.526706032117521 6.866079108547421 0.6475207612056267 1.2542226886226786 0.103808290136918
P 3.5340188404728923 4.184368627633935 0.8727841811154241 0.8587456276560115 2.059223775567383 -2.211938047376384
Ni 2.6595146171534774 7.613611280233943 0.8877421438776822 0.2907105206815381 0.20779964281891955 -1.4264084388927305
Ni 0.9689235613257169 2.2128434445947884 5.12665074803518 -0.4577180691847601 -0.3701730349842399 0.3386253420849458
Ni 7.5203264381494215 2.4618744485864097 9.868640589713737 -0.33026308616317956 -0.7141326447979056 -1.1889734897058812
Ni 8.432049447031785 4.780646875297183 2.5496066650666647 -0.9069800371823671 0.5469754580906967 0.37408496844413636
Ni 5.799973162696226 4.152026344702513 9.933063489581718 -0.3623543102707695 0.9031604063259607 0.060231433987231756
Ni 4.676172609726063 3.744156762500871 12.239414100865053 -0.8572150499440979 0.892223961919115 -0.8315376997826519
Ni 4.355302396235848 4.265475936880628 3.900917566325113 0.876842080146406 1.5814436455254248 0.5198161240670853
Ni 3.401264519303179 2.0040321508624404 -0.006922254954996906 0.6644797576574685 -0.6572102205792487 -0.00027999313426403395
Ni 8.940047443491274 3.268290618277637 0.5996542879466128 -1.1868423022954915 0.5208497075379224 -2.042937122592217
Ni 1.7708017473298192 3.8610464390869677 6.929269616474564 0.448338427742073 -1.553943126112311 -0.44776172930299657
Ni 0.19654501403612218 8.914210213788774 3.6338535666735674 0.1722302303547421 -1.3253270607686722 -0.4802926120511664
Ni 0.88435420968546 9.048702875483796 1.199014887836055 -0.27111202972432014 1.736662686034151 1.2756242942269063
Ni 7.432576838263914 2.7361205393556833 6.595546662089848 -0.44761054843711295 -0.598886288027375 0.7769824902445909
Ni 1.297845036196314 4.652796504240976 10.729931595208663 1.3476298380309308 1.2399512663053291 -1.2354238107486206
Ni 8.911410570626959 8.347492904216452 8.358086717344117 -0.3556056786930263 1.9077783431684754 -0.37704173707961514
Ni 5.207967573060976 8.310411356063396 0.9779281652468218 -1.5316727447498848 -1.5844595495336131 -0.5307998767720987
Ni 5.543778365908196 2.492789462454946 4.876740509704178 2.197992898050202 -1.274516405874708 0.1492823633093171
Ni 5.588499463211955 2.476769282140117 8.197866615874508 0.6068245690378452 0.3777279645133623 -0.33221121102848594
Ni 7.000068566406171 2.7884079925248706 2.3532858054667005 0.4217205680442286 -0.2822037687621075 1.9897155442639152
Ni 2.698663875615586 6.211145591895956 8.96159280192839 -1.5079473761084867 -0.5122390830507759 0.4539573165907472
Ni 0.8368828746874465 0.7847015517819095 10.031431605328672 -0.8889059532894756 -0.3789993750266183 0.30902757382317103
Ni 2.6629089557581613 6.355144231516226 11.834518910793825 -1.2350818540281696 0.9933130533526568 -0.7583309365816747
Ni 2.2851401121263577 2.2753596593813255 11.159666756470507 1.0215717910880342 -0.6531514771288429 -1.691418983705003
Ni 6.406150802193079 5.760714114306202 12.266021689895085 0.5849359964948699 -0.6851488559710458 -2.6441638858273104
P 6.277019548644539 4.557114582063659 7.530460048495913 -0.2780720059819211 0.06549679615122912 0.4725769885744635
P 1.740060567513814 1.1374968464774722 3.377688962115714 0.7895004202059436 0.16343937153598947 -1.2319001138660783
P 7.332109905061666 8.239139394525694 0.1488925256570502 0.42240628125734353 -0.2899744138464619 -0.33380760898132833
P 6.6517234234554 2.6876940319848157 11.959186288856584 0.15196710923033183 -0.0009132558428887498 -0.43827718685132905
P 1.4955858455306361 0.3927624881206334 6.468682570552738 -0.5502348455682589 -0.6486219646896054 -0.5319779562406
P 9.310002903919841 5.144966452759484 12.55858165555653 -0.6605369709596366 0.35879976015029175 -0.15617831909820198
P 0.6236086203853822 6.781678101463299 2.6104138166420023 -0.17486715375695688 0.8753115024344925 0.18886063982257154
P 6.1802122797061 4.9208211657617715 2.792701693622386 0.3557023521718906 -0.2458172597132734 -0.13273731446644235
Ni 8.343256842831092 0.7853566316851315 12.281112315486906 -0.4198776012982188 -0.5514422356127986 0.6265369598651082
Ni 3.381246155780137 0.5749323409285093 1.9020180945926664 0.4461537613859284 0.7017620390476947 0.0819449144049234
Ni 7.405339786980507 9.135903525729733 10.1439671963569 -0.3366034265589106 -0.26838126105671845 -0.4639892469054525
Ni 5.837283439865771 0.6025252945615719 6.52974406879441 -0.27134240056757136 -0.3370561978256131 -1.3127201706379392
Ni 8.44158287243901 4.097588838778337 8.133832555334555 -0.07579663541534043 1.8573731512430462 0.18921725183104188
Ni 3.572628298456089 8.261801865479338 5.730585928254385 -1.938138700627888 -0.5203074618812071 2.888845232163928
Ni 3.3012916407765447 5.938729333258587 2.226300945008884 0.13662765065978405 -1.1338050720638537 0.7162211518958181
Ni 7.850638585440266 6.4076421153805825 6.506806208104915 0.3978545600599083 -1.5239278106971434 0.3289975891871947
Ni 6.6247333995098 7.7897051754478275 7.707243790423526 -0.9230846560537135 1.1412322177658605 1.9615961603198797
Ni 3.5739366284304013 2.0693846054534304 3.9361491541928135 -1.2467760025366463 -0.8518422156679587 1.0503452636763009
Ni 5.664885805558333 8.143128102564633 11.922535666170589 1.750722763671643 -0.25010894511009185 -0.5736344554391217
Ni 5.152185140519849 0.36908263050164974 8.956584551383365 0.31854194107150946 -1.23194382261982 -0.02436814443171932
Ni 2.6763582219276634 8.11911155583338 3.4421118619836957 -1.71303913307794 -0.3098850367274599 -0.8150098773309576
Ni 2.147152471059396 4.445824191801192 4.22256271372319 -1.2667514172173087 0.1465752487907992 0.5361038054835154
Ni 4.76584353335007 2.9127542350484803 2.0434906509548414 -0.02707525895023724 -0.9248666876548007 -0.3427015690368485
Ni 4.733318267205458 -0.10755112830091876 4.176766590041936 2.692312934728712 2.138803017953607 -2.284367051871072
Ni 5.118113666223777 6.696901978792137 3.663004622366947 0.03722571712067782 -0.6251081978383815 0.15239648345826656
Ni 6.349334514497428 3.9405617943789024 0.498156244338036 0.5110738590980811 -0.6784657875239155 -0.8811936722468825
Ni 3.789518301050798 4.009583062394363 8.232293992520237 0.3095039992389573 0.29894267878334324 0.18847394590711414
Ni 3.448483337466989 1.2656125431928062 7.211626438168508 -0.519187489344151 -0.05323571939568896 0.07885547684632226
Ni 7.8265579945843955 0.7757673963978828 1.507018636690779 0.523142360226841 0.10432868141676226 -0.8858972483701388
Ni 5.189330732797523 6.31323192653494 6.536774283845189 0.711351996728975 -0.1426113790470447 -0.28528575012154095
Ni 7.9942804077948155 6.740159210390374 4.222442859718551 1.296905572203186 -0.4929457820388026 -1.3407552223982844
Ni 3.4808439187197306 8.755719303683815 10.443932492656167 -1.610352872360607 -0.7070585115599436 0.4520315603229441
P 3.9471766375357396 3.083843539381605 6.089965873876608 -1.1019210788710636 0.8736305151876438 0.12155275860453259
P 7.5260995585255825 0.8374043768450394 7.850096040213156 -0.8120543942470596 0.13965203930840467 1.456690891926356
P 7.895259041976772 2.6585448061235675 4.630792772854817 0.43471029543567713 0.3199236519103845 -2.648085075258588
P 3.603030959327692 1.9284234871721226 9.360006726588411 0.7756789409418189 0.22281000018482272 0.5102755315665018
P 1.315502916269198 1.7272334442691595 13.131919297782085 -1.9779995413785676 -1.6327721205960717 0.1271117407495488
P 1.327341930162624 7.6880122547172025 10.380889286215638 0.5152776127667835 0.2915749255643624 -0.5760986007088982
P 0.7011422674784641 3.114145559485953 9.495896465116145 -0.20477011196397638 -0.8906468472399822 0.9005301677919653
P 3.8673685091027 5.150638932368389 10.493812801655832 -0.6014949292948157 -1.6773277957192596 0.7728589549945206
