# total energy = -340866.06330428715 ev
CRYSTAL
PRIMVEC
9.27127651945165 0.00000000000000 0.00000000000000

0.00000000000000 9.27127651945165 0.00000000000000

0.00000000000000 0.00000000000000 13.56945034121027

PRIMCOORD
 96 1
Ni 5.149786014060687 2.5103649244137864 9.29617239609302 -0.7069857493404792 0.003921189431277118 -2.1798817902717875
Ni 5.038771752386743 4.411551372332816 0.29352860569543104 0.2256526118399404 -1.4964422036823646 -1.2899353115329397
Ni 1.149675338618327 5.205942134234321 1.8391356503132692 0.33381095141543804 -1.1288855232750494 1.0890977018541501
Ni 7.829203389398368 8.069023491847 5.50229013503373 0.0019915765087320536 0.4979758882635423 -0.8687006819861942
Ni 8.804550920913373 3.6740862465327004 7.124395407019023 -1.060206472741097 -2.914012475458175 3.6333765438583483
Ni 1.8130166108955443 5.991664252853284 4.0885707034120955 -1.706878769903499 -1.5995457544427742 -1.3795608824115724
Ni 1.3296308103981225 7.590829606042865 8.263143619463229 -0.2457406408390671 0.1372819964143313 -1.5669544507703141
Ni 2.2356291956528036 4.059381944431965 5.081732065090814 0.7709833352383625 -0.23906065771573023 2.821667191655534
Ni 5.887343852623184 5.142980897301987 7.225012859519661 -2.068604445451334 1.5342813860173252 0.686504855778308
Ni 8.186444205401411 8.421369073996374 10.886647782064712 0.6061925918808012 0.31978249834682987 0.1265512402603885
Ni 3.4644348769625557 3.2870939050818793 7.412162841660153 -0.24526138720980342 -1.4271178062549292 -0.31179228105250173
Ni 5.651315702155896 8.167901652925389 1.709533406909736 -2.1140978018974432 -1.2581155959191817 0.8287796774215405
Ni 2.6248559146769854 8.273761085011 0.2011829858543454 -0.41424045761709943 0.0961533446948215 0.4315699500344825
Ni 8.20126897610599 1.1940847517984001 6.267701668798083 -2.509102808323698 0.5928010010652436 1.3786751373725095
Ni 4.529324394384271 6.640458892713062 13.319080212677026 -0.6257304048034127 0.8816001636566816 -1.3933191125379296
Ni 7.92810936430547 0.939736559484804 12.87070460550958 0.34966077396350104 -1.8523828971173066 -0.961475597127086
Ni 4.773826491333099 4.111282548812351 5.244416076366819 -1.0710794108998587 0.2080634380032675 0.8432601304259026
Ni 3.8758292174718214 0.6156906209243356 10.407564780869352 0.5088359709064978 0.4160736541710963 0.35593503700798707
Ni 7.937111773532579 6.421860741573236 7.19800934034883 0.9838382810930024 -0.7018291448402042 0.3937040282266446
Ni 6.316372160537147 1.060244608026472 1.3344973032954544 -0.5288427530457279 1.084584130254513 0.36707896943994844
Ni 0.6178563910535351 8.96137455847933 1.9060195642219049 -0.8038240359174672 -1.216761458452427 -0.02918510620438845
Ni 5.801677260183961 4.616112811248293 3.222119874078274 -0.17403694454617769 0.1611734583199482 0.5738511994356181
Ni 0.15798347422333273 7.834376761539178 13.135960454317198 -0.13709276322166067 1.4794587817504907 0.48311928286668415
Ni 7.131076288676133 2.2897919914352647 4.025893167532645 0.027993399889132433 0.38636018626706364 -0.5029265474005983
P 3.254115975503274 2.9089463611621214 10.228569813307814 -0.11241351530742574 -0.12098377347494003 -0.38031089474919016
P 7.346383136751465 3.7407003663028098 2.0852713461352352 -0.4775510447502872 -1.523431330676699 -1.506933847242308
P 0.874601208274657 0.7290319729340212 12.590142806760634 0.12113341167892686 -1.2205715762271367 1.0417073854956447
P 0.2425273151101321 5.094770260864329 6.033737304421378 1.6302917773763792 1.8390221595396845 -2.826711696057977
P 3.2441400822711737 5.510559186310413 11.720869800939958 0.7114160171976909 2.505772715509201 0.22065901528009094
P 6.159288927236524 0.4857787168944528 4.886277800823936 0.7973718525342203 1.1302536072671696 0.540046077960715
P 6.411847763236185 6.26260802963292 5.335100283506052 -0.8202721541711615 1.113217220610173 -0.7635726445965881
P 9.244639861379282 4.52681187852377 13.087150893434563 1.0355015137952488 1.372525829941662 1.9062547074350975
Ni 1.031893045290634 2.6435097224678636 0.16487295959579878 0.4222584428255695 1.0095935356802355 -0.9033640376963347
Ni 0.6016882124220674 6.356127393045737 11.440552763883694 0.9146095287031667 -0.6090745414142865 0.7647396683214958
Ni 1.2801778229445713 3.6053490045040864 9.106024083217156 1.815255910358022 -0.4647351239325415 0.21315447937292967
Ni 0.6756525999936722 0.7295474558928545 8.245598656310417 0.9596843095546183 2.2911169690003965 -0.021495450869614595
Ni 7.187816499252761 4.436305679888306 8.976503427044516 0.43136091934747 -0.4342230713866134 1.0292565613268014
Ni 2.5035876214838004 1.113619345328702 1.4174103266919873 0.46176472845030797 0.5501489707226719 1.1620869497276825
Ni 6.807879599019066 7.310456941329171 12.840024098182756 0.526237711322713 -0.02155201513916288 -0.1653461016403991
Ni 2.1392728217111547 5.594668204341649 9.942525908919329 0.3518066166619102 1.0907727755637278 -0.5329143520119403
Ni 1.3842200848875315 1.631290325354289 10.712605530269522 -0.010464389866433593 0.7787537232124008 -0.38182861694529724
Ni 5.315408092776518 4.20577539623016 10.95536370015798 -0.3991267419041126 2.2554367419899672 0.05788607368350676
Ni 2.1260148966907986 8.121665798326427 4.1650884004596485 1.010300589049589 2.284746546697678 -2.4747567267436605
Ni 2.6014273996235313 1.6997123439908108 4.990463767548586 -2.2061818616188975 -1.1420575418806331 -0.3925915118887562
Ni 6.852919458983324 7.996837335057846 8.675288933347774 -0.8595400985328487 0.052045555742329726 0.936016276513717
Ni 0.7733514547345854 7.296568569524631 5.876697646119076 0.032901892934343334 -1.004250526200767 0.8803197542823612
Ni 8.528368873059259 1.8633781834204206 1.3126801360521667 0.7608956119850573 0.22056234180122658 2.8303935157849383
Ni 7.407582831198575 1.1103558560929219 8.724436895813094 -0.2382294200636865 -0.5110815724075649 -0.8352776264410583
Ni 3.8232332673735847 5.956387046767652 1.77552171553378 0.2643024630016545 1.3962681678639244 1.7852629635403576
Ni 3.037733659384333 1.52174092532595 12.68522345309193 -0.39059890693875954 -4.154710390121541 0.33467612762921073
Ni 5.666066302650572 8.260632957857975 6.354708887781322 -0.6934342359082896 -1.0254207325204792 0.33888605194550026
Ni 4.062191141132082 5.0313083750151435 8.760110912521714 0.3928203400701106 0.3298432250169416 0.9532115573460809
Ni 7.75787019002311 6.112265014157332 10.925741045449909 -1.947928175914484 -1.0334006654021621 -1.4507580713816886
Ni 2.1453733214757658 5.648144925682497 0.058510097210464185 0.4743217391797122 0.9809727866197491 -3.150612844558871
Ni 5.162979040147377 9.250888701563703 13.021040203964178 -0.4192484523546521 -0.5410410948841328 -0.10305984200666767
Ni 2.611236409883347 8.13200327133181 11.427091797913725 -0.005518872935700174 -1.3662945043199695 0.4494548007347034
P 5.7460866878608465 6.218569467502367 9.449601819428242 0.610351094133865 -0.30700694384871646 -0.13832277897401984
P 6.472259399203065 0.3367281173264437 11.214567259837422 -1.0882906325718225 -0.0934184622621617 -0.33648232760001406
P 6.275216965316615 3.0003147884877204 7.02052095517597 -0.01603648463757238 -0.9126495767633186 0.975261852277901
P 3.690468591645266 6.157647911342396 6.839993445652289 0.19457748770169073 0.3307189427536756 0.059891277038993634
P 7.557527181795929 8.369802235560556 0.9246457031521932 2.203510742544637 1.0211827831797315 0.5185151458674747
P 0.1191442438070567 6.094797929724919 9.01679083080917 -1.4255967416247126 -1.8529570244532219 1.8373008059732034
P 3.4486180797005086 8.132021813884286 2.202145054391603 -0.27268914440345293 0.5249668150300895 0.8525891211363124
P 4.483718986569494 2.2260241534702243 0.7646299651774885 0.6694669264594149 -1.2748187676064755 -0.7705968984332213
Ni 8.665741373077871 4.541534665189732 3.3939092057476286 0.639835219635911 0.7072143204115175 1.3009314055331271
Ni 5.280687163265166 2.1661224376964348 12.07261738577198 -1.1151368062303892 -0.38148177512883974 0.6052921915537188
Ni 3.9630719268715056 6.5194223814258265 4.681311207136859 1.7937445186488077 -0.5166338696843619 -0.24533569209116457
Ni 7.01166225073055 2.957546391201775 13.447840624198147 0.42194245424704757 2.0527664499778133 0.4625969945436162
Ni 3.1030961568623114 3.766687753597955 1.2796261820084094 -1.5120943083973248 -1.3737026238585825 0.15058282728829553
Ni 4.47492981669586 2.177016187276098 3.8050912340310443 1.0015760646923977 0.6489495232323533 -1.9392496743038794
Ni 3.5878077498617693 7.94424138495961 8.857268324730327 0.7753608954807679 -1.5327695773584893 0.3841264118405385
Ni 7.169728239312401 6.790023120984657 3.2922737671160562 0.11067185002597067 -0.7535252876629152 1.8494058167668537
Ni 1.565213939605984 3.382894002449248 3.074444204776362 -0.3022861413342794 -1.3765609192429842 -0.6366336819794778
Ni 3.1074073003129863 8.252233181586337 6.188659403230919 0.4291279162518932 0.3911432094780038 2.1412766763050803
Ni 4.730019711108497 0.46057197105854825 8.028731452444228 0.29277897317479257 0.37381500261220135 0.556893488535357
Ni 6.929435301775629 2.418625646038667 10.57464523133742 2.444989008562925 0.2587776765286834 1.0759128277327599
Ni 7.187538360965621 4.316289008987252 5.562510782710108 1.850418317191768 -0.9141012216081806 -2.062521729592364
Ni 3.07037782301837 3.5561092564040093 12.363573212311366 0.06724617474216806 2.2022048792490203 -0.3470043101772604
Ni 8.723195471924825 6.4153337631016765 1.6078034012605356 -1.0738528598799377 1.8968974345899139 -0.8226967044522541
Ni 6.358463754657716 5.901417649952483 1.357881316222966 0.6830426082613205 -0.24695497286214246 -1.0500894389117528
Ni 9.005672716344547 3.716622861912695 11.212707441824076 -0.2404595949457859 0.1959121473527142 -0.5281521547366066
Ni 0.19595954882185 2.6887257366806434 5.097635085221874 0.5489955738445191 0.8364130255970821 -1.56161915460033
Ni 4.644807411204938 1.743454225281747 6.081094983445139 2.1256101734124164 0.024875680195757158 -0.2798023584094665
Ni 5.118078249326689 7.502251832864907 11.183044920628184 -0.0696846089803316 0.5369489270926301 -1.735296916034876
Ni 7.366835572132517 9.083977915450788 3.346253918756628 1.183534320968181 0.7768246245104881 -1.4621678558805271
Ni 1.962432498747331 5.089494904684901 7.554071777142021 -1.2191973215874294 1.5019536204188972 -1.4332432024263768
Ni 0.46033926202497416 0.313181857064767 4.961940686202344 0.6104295127802842 -0.5998013436424767 -0.9410363554361277
Ni 4.337065939036635 8.996290184791679 4.23524229349743 -0.4137810014821777 -0.07117764858609031 -1.208223596184745
P 6.662830482275383 5.0805203092865066 12.554020987409716 0.1211894617278429 0.0005813264247667407 0.23412722496985486
P 1.8456515032533434 9.034524927997237 9.710786650839747 1.2845555352782652 0.010897106528478006 0.6631980627315676
P 0.13532447509763365 7.377692236607228 3.660616936414118 -1.3976578491225993 0.2726145824117756 -0.6743530509071225
P 8.888112933646566 2.5179488283764795 9.404497060530318 -1.5023955930523223 -0.9221099508452699 -0.4432450723795657
P 3.5488220332809326 4.454458838762331 3.2489741257016727 0.2415939656605452 -0.2944267931908607 2.2358989290673557
P 2.832717927933194 1.0424159438207767 7.070240028257551 -0.8731175801069674 0.18700970265676178 0.4147983870030985
P 8.602418556372255 8.659455447788499 7.538630466567614 -1.5686562639527695 -1.2792433790367324 -1.1231496492325366
P 0.9176143672532857 1.3973574833167932 3.1388304368664772 -0.14457827296542844 -0.04291042621028094 0.3367078133472588
