# total energy = -340895.19423019193 ev
CRYSTAL
PRIMVEC
9.03473489057520 0.00000000000000 0.00000000000000

0.00000000000000 9.03473489057520 0.00000000000000

0.00000000000000 0.00000000000000 13.22324775736188

PRIMCOORD
 96 1
Ni 6.423994791146357 1.9968029399063347 11.503313820766206 -0.035454998373500225 -0.06231916975419591 0.5086367104114983
Ni 4.493452598347775 0.2044343715919561 6.034878689277099 0.47997816613454114 -0.09674315576002049 -0.19295460738628706
Ni 2.9413664234925667 1.707158367840958 5.038599478595218 -0.5711050041490487 -0.7401362679505189 -0.7979562642827805
Ni 3.171002285128478 4.43374203417609 4.93276117097748 1.380863917493712 -0.02022172636351356 0.022147739741632824
Ni 5.266862060498326 4.528064668455466 2.753661670856082 -0.04225916577952722 0.38472882131122776 -0.170342526413726
Ni 7.244285493648985 6.326753937434773 2.4604628340085686 -0.22568526485008877 -0.9748998409527918 0.5763027462999043
Ni 4.9568351260829235 4.339410365161629 11.422175575395249 -0.07102338239641318 0.21986840105799554 -0.0021957220997381537
Ni 5.780459645831634 7.819635493283014 12.3707848133522 -0.549583328027189 0.1993330001088051 -0.4827724410502266
Ni 1.8989838631493607 6.498892744994636 0.24427664983990843 0.20927134226843958 0.4359871052655717 0.24796824461800523
Ni 2.880318718528415 1.611055890749988 0.3627400962643515 -1.0801044972166043 -0.3624345286894016 1.1749581492633958
Ni 0.6715934185923128 -0.1772849926638405 4.217726939153166 0.5449424868210679 0.7449483446271815 0.8172274538075668
Ni 8.738558398700198 2.4502111201084915 1.1195446188035936 0.041796881431128016 -0.23249971666876088 2.004751612661431
Ni 6.853704861222575 0.7708661842243398 4.959286249711276 -0.39193510925167985 -0.5725273384178721 -1.5918697259547552
Ni 0.8843686576140314 7.281183351732986 2.2729179961830748 -0.40583346450032687 0.08275738300388973 0.9377795390617268
Ni 7.643367811789658 3.971272014684449 3.855594880559983 0.1162395739217353 -0.2146125519756949 -0.24134508287453274
Ni 7.789649207538449 3.8310709956473454 12.559877301297622 -0.0381050344018376 0.20720083289265606 -0.39345848787474175
Ni 7.89632232467797 8.897885951910618 6.942919256285326 0.014054421210537085 0.06757501883649653 0.30355575207532237
Ni 7.000320542169483 0.8220298890063427 0.409893282142464 -1.201665483351253 -0.4194952782581356 0.21003341724544472
Ni 1.9620824529776333 6.4082291784243735 9.17796544994232 0.11451127837671891 0.6471590069908337 0.5614314856150266
Ni 0.0937886814358985 5.043062637726829 1.5071862519071038 -0.236356885631322 -1.246989404099033 -0.5276147941758977
Ni 6.326645520613763 1.9822299122154694 6.88264763506491 -0.07244674510650104 0.634584769870249 1.1659217500927403
Ni 3.3440897398721847 4.162799363735073 0.2700148031478671 -0.8026127892181854 1.16422559333724 0.27881608323679724
Ni 5.944720164398046 5.671202594458022 4.893011950500895 -0.3858508507308129 0.6681219823957462 -0.5509547544534188
Ni 5.491031907408278 2.6664304001443186 9.481294031766273 -1.5982499184494863 0.5610584185463241 -1.2838235422082471
P 0.20721345610386568 5.486749442978352 12.328813951518404 0.7776229520420672 0.7713029233613103 0.9564431769095012
P 4.063218513636673 6.177834399041386 12.532637575018665 -0.6968131796828516 -0.8034825934176485 0.2193780916851383
P 2.483802265151664 8.558920761020422 1.405009722419005 0.5203560557309554 -0.5861636982543841 -0.5936237540768551
P 6.193889123286065 7.766601598338575 5.882890954849108 0.25141969350171534 -0.2373354474945074 -0.22725183800626023
P 4.745792749250361 1.3132348834333816 12.652757088384048 1.3610895630802624 -1.5476151270117542 -0.21946216675851235
P 3.966727542937081 6.174608998616315 8.315942402612118 -0.42193037006218953 -0.3982777636402561 -0.6244343116998085
P 4.645597537166234 1.143110821797303 3.7678459195278937 0.37174166502294037 -1.3918029330037192 0.5097667102508834
P 0.04571846994673653 5.642851595763704 3.715944076889509 0.3398149915176728 0.4254682080121189 -0.2768509890906264
Ni 1.6733503891557637 1.2199873826290284 2.5032133934801353 -0.7022700890323648 -0.20478888101705375 0.6998699642313043
Ni 1.7486549060828331 6.4492559104418685 4.830664147158123 0.03266098056813085 0.4872482174333931 -0.6105228438250389
Ni 5.955643159114881 5.524966372384651 9.289860643960527 -0.006342654388576173 1.2257816596731665 -0.578791574160029
Ni 8.410534271997005 2.4748127037428533 10.16711715811625 1.0585635378210347 -0.9856138849361864 -0.17578220937205857
Ni 2.3525094949076117 5.150323012646824 7.123654614277834 -0.5793096514470282 0.06546465736171306 -0.2164179806155499
Ni 0.5249687029103203 0.1084213383783198 9.041885173577134 0.5122334266238211 0.6654434071223185 0.11494296659749882
Ni 1.416384453890052 0.9410760758437188 11.44416612059027 -0.5674869477804872 0.12022632648362519 -0.16380035441983404
Ni 4.226629767105168 6.751711736856685 1.433016497706614 -0.09398230518543169 0.9174616534399812 0.5976166772863322
Ni 5.42277448384691 7.850615599886843 8.059794110871529 0.16892224902743166 0.1929083275293839 0.12398142265068325
Ni 5.214162450752005 3.0055220773256943 4.795397962230334 -0.08213286204601339 0.2188672134869908 0.8009258884340659
Ni 0.5830593390814034 7.276548532634775 6.807341311190823 0.8161635313194266 -0.031542036472339226 0.5603433947571704
Ni 4.960205082269343 4.531452694112053 7.276462702651476 0.17066931362552543 -0.31410473123576227 -0.762314603819771
Ni 8.278030847251665 7.257783387864827 8.88895782670038 -0.7318555159989654 -0.3702460543140204 1.1333525579074675
Ni 4.820609390482882 0.20993291136421935 10.461626031550978 -0.8111514228168158 0.6454307114458174 -0.23202740501803265
Ni 8.12621115889624 7.37799957289561 4.85129225430244 -0.8681319539669177 -0.8951786736720648 -0.4061785065445714
Ni 7.298620390445553 6.129625052631927 6.993458660873009 -0.5853476301109919 -0.12960133994062192 -0.2583812124212131
Ni 2.3985595396319397 5.285952455731308 2.5611314662111093 -0.5947576105709822 -0.5048420192557563 -0.4893567791359637
Ni 2.3031165982021182 5.233885277440882 11.47242406151322 -0.012730817303107106 -0.5973117444514036 -0.7599898123413363
Ni 1.2319222676752983 3.392552058864002 3.8220742064504676 -1.8315705883576456 0.0028418403241692995 0.06689393360907188
Ni 3.534144427104078 2.853991500492964 2.9239646202468283 1.1306732113030915 0.14047016433432583 -0.40150552654893434
Ni 1.193072906813103 3.1263616590772907 8.122141914214302 -1.750336326866502 1.366721050334427 1.3984870298921142
Ni 3.4106034595622967 2.7173772712843 7.376509745080221 1.0340115595132837 -0.5910631924385306 -0.9234430678343967
Ni 3.929106906046341 6.774551547149622 6.0372195891374245 0.30225811630982136 0.342542674861481 -0.047806063739685406
Ni 0.7391714300753474 7.306796825696783 11.119904961049658 -0.1726189811527285 -0.14368352906530096 0.5459534445840856
P 0.2705541768323957 5.446066030894058 8.140958556974232 -0.013210070932370796 0.5236660939407949 -1.47624181747509
P 8.374630234772269 1.8185295472242793 7.939158714132837 -0.061468648828442524 -0.9133350328661173 0.09339352256149722
P 1.588198010986882 3.102266020607645 10.385539106565615 0.9845669317289106 0.14005930204915232 -0.026803236235773194
P 3.9673057659824713 6.061629636388001 3.7227544601960028 0.9095956204283432 1.3013942041021587 0.5884373247799092
P 6.918836266444799 4.051211350709729 10.443589086428819 -0.05354605154725617 -0.1567316204985107 0.6314611366396028
P 6.420109855060137 7.726830694497788 10.107520431606625 0.07746708113922789 -0.3732154213549895 -0.04503210053897406
P 2.226520114158004 8.590018319180347 5.786307829851656 0.16199441155934682 -0.887597261780381 -1.2465672289599499
P 6.981474084783776 3.847758151347921 1.5343067196829498 0.9283685301604722 0.7610226244812248 0.2440758515421345
Ni 5.17441865111647 3.0091992145049766 0.7491620401314906 0.6514715183232587 -1.4020454366673336 -0.04977321476838524
Ni 1.3110936512184186 1.192801864760576 6.872955171266546 0.07443215096764601 -1.0703201641363307 0.08555808567747845
Ni 6.921790624817342 0.7287634152583127 9.22869006659923 -0.40968214882245574 -0.4707710457139763 -1.1944550816457427
Ni 2.815458355358717 1.5268882987052874 9.397577273002277 0.05229546696960671 -1.0465498011896106 -1.0269891054488638
Ni 6.375297569042349 2.057733193314392 2.84811530879418 1.1254482154587262 -0.26793466043760306 -1.3061067790864795
Ni 4.2900445726613885 6.751991813644296 10.45693158320121 -0.5102922437370503 0.8146177840988615 -0.07360476997034421
Ni 8.121242054599913 7.213937818501051 0.2204339839526216 0.1482536649344866 -0.41312665572763047 -0.16184734445852128
Ni 7.514451176872759 3.995268271068168 8.207207558926376 0.7466640417667076 -0.9011850277671447 -0.25994598580517164
Ni 3.2623163526248056 8.417762060064389 12.348225983320383 0.0854542131097625 -0.20413942035851296 0.48918400100352527
Ni 0.14722552556509397 4.718580127176656 10.16677383818305 -0.2542347943530073 0.8876116599580843 0.48390012689676665
Ni 8.64794904054044 2.329172774185042 5.715749259264334 -0.6970967723615414 0.355523146281549 -0.6208257684129437
Ni 3.392425572572823 2.423504443199503 11.45502225826748 0.7674483255019106 1.4476642629477132 -0.4515998721021642
Ni 1.2338376315131552 3.153474899065069 12.641041747400324 -0.463774302681169 0.6013152091838418 -0.5236846058835561
Ni 2.7418162296871462 8.484456474456186 7.839587802243031 0.9488177991537594 -0.45279183552773633 1.2001233356751138
Ni 5.678340035174565 7.900225330234358 3.6192028440280835 -0.4468818978012046 0.39457666063958496 -0.11820338251632546
Ni 3.161651334316298 8.224039270388298 3.636446539409848 0.09738464599876132 0.44401100401131277 -0.10323673390416413
Ni 3.3532961349230166 4.17816744811335 9.33241334273375 0.1563456979140017 0.02839860574735109 0.5654884292932196
Ni 7.300074982794114 6.140277005296236 11.356296997581559 0.1830923698802266 -0.802465979227676 -0.32344812012387525
Ni 0.5077999958297552 9.05885782690637 0.5296179775846658 0.4287427649983326 0.4568552069638326 -0.6258828712208769
Ni 4.718851169229183 0.49735313165185835 1.5885088058737795 -0.1852353843651584 -0.7807406717354425 0.24465126442963028
Ni 5.968996497569376 5.331406207940076 0.2591686036792472 0.11065976584111265 1.0735458701624803 0.32855973031882774
Ni 8.004404860490633 -0.16717422063107706 11.161638209350741 0.09470889893881108 -0.5341263700421705 0.5437860046191216
Ni 9.117222215550507 4.75514370006254 5.8918561224731905 -0.3920207269869507 0.3626304467502916 -0.00952053789592554
Ni 7.957062848649259 8.744548428061043 2.4388300643228846 -0.36385609162727656 0.3986917112492231 0.293985591888384
P 8.53972194896643 1.6139379712418576 3.426857851452338 -0.04645083526337161 0.10633028522782333 0.8321061706916121
P 1.8500698074033315 3.2208649880583513 1.7318358432500278 -0.5116323027047124 1.0886629283095766 -2.307142397894375
P 4.721272478231756 0.9936311298286931 8.128992050355167 -0.19446101672848445 0.30902628827159034 0.5669876395465654
P 8.532692925070899 1.5372782440521535 12.298612639078835 0.12920821826726137 0.731194742486515 0.7066939291316733
P 6.227552546209911 7.817141906399765 1.2108595897734293 0.7990250718669272 0.10428214444954298 1.5882164454728842
P 1.7373885914327964 3.228625825495706 5.963764482482097 -0.2999608356352124 0.015946496026927375 0.5858050293633846
P 6.721463443794678 4.035003035968618 6.0317978446133775 1.206374458791148 -0.18203718914283487 0.10313954620466755
P 2.4025709620093387 8.463821139523802 10.234966211651813 0.5031648886636495 -0.4181071396613573 -0.5588986918908438
