# total energy = -381168.7090923104 ev
CRYSTAL
PRIMVEC
9.23855533890152 0.00000000000000 0.00000000000000
0.00000000000000 9.23855533890152 0.00000000000000
0.00000000000000 0.00000000000000 13.52155958596513
PRIMCOORD
 96 1
Ni 1.5513566485802672 7.525357437783867 10.186791150855143 -0.7500396431071599 2.6420298702034435 0.9326895261333291
Ni 6.156314435438655 7.02290938041386 6.974527991239421 -0.11442154687639004 1.480946936260243 -0.17822630003717693
Ni 4.513375990206513 2.9016084298632463 11.97278677401475 -0.8451956568857186 -1.5577591574242913 -0.2823132977567783
Ni 5.481308646013394 4.942248194803844 12.690930148742805 1.1291760579322747 0.31202702277112715 0.5961786592882249
Ni 2.131325421748306 4.151261584722108 8.236535865826172 0.8181463660774104 -0.5392333522514327 -0.9503632892640084
Ni 2.9919430215773626 4.432363100582757 12.914928155564288 0.27895980790351316 -0.5140059451432115 -0.7460881146585795
Ni 3.861438872852243 6.930810224676692 13.026872651499973 -1.2079469454845908 -2.1017266819266 -0.14701387899011456
Ni 5.380663826813805 1.446397424151542 2.9202379762113253 -2.0479859978700343 -0.06559244118882897 -0.04431836230140109
Ni 7.394123762666356 2.6268630399076205 3.7439032033733612 -0.3301515002859798 0.20537020744182052 -0.590420673758525
Ni 3.1104367292195447 8.272922838921408 7.901268701446413 0.34711589605446025 0.3381723137079272 0.059153884652336834
Ni 6.279224172416012 6.997438684018296 11.25254717113575 0.5818493871497462 -1.6689354578905062 0.32016662115912603
Ni 1.6310484248255086 6.1399160001459006 12.209169987795933 -0.10772253758965963 -1.6790823165165212 -0.951948117252625
Ni 8.763545545770443 3.935310359387943 1.9438455755044008 1.3791968142039344 -1.394595665257508 1.4264979132827433
Ni 1.849863602238972 6.196030983789953 7.113462002028206 0.7845590170402681 0.19663462734103554 0.5354394324266392
Ni 0.6986648051667909 8.679022005210774 6.783361037657297 -0.4121797184333288 0.08749386924761061 -0.1946695331948647
Ni 4.664066062353061 4.9247596100099384 7.649389659205208 -1.2891871205130057 -0.5119909715957117 0.536846854297127
Ni 5.672158717155777 0.20901861359124546 7.86154291454002 -0.1710755479250086 0.36727334483894164 -0.7108508887228403
Ni 2.967950493996921 6.293950429236662 9.319383213031621 1.8434650258023864 -1.6850871279497042 -1.6206167161804605
Ni 1.2275730081829839 3.5842360272414777 5.815108727844145 -0.0373190481654325 0.2504025650911107 -0.5527820374701448
Ni 5.767879386489993 2.7558332690269767 7.466916185967017 0.48700036308864514 -0.19198170195005648 -0.330479830159676
Ni 3.86714829990065 2.7562397654511352 5.586094185606344 -0.5537212614549625 -1.6653629100478995 0.9493150505051522
Ni 2.9475332872380546 6.104449187138077 3.514631829303932 -1.1452917325472147 0.8595735228739454 -2.9044346019617526
Ni 4.443052108827104 4.816077247878125 1.12336857370548 -0.7282171479154298 -1.1521342093903448 1.3276353971868746
Ni 7.480236334702281 9.135813123303713 10.938616449746762 -0.924583352086427 0.47117445179998213 -1.5929979260219276
P 1.17987434823003 4.8115688329920046 3.827683040247923 -0.4970816585840472 -0.9171924589389946 -0.10265360770718449
Ni 7.809369098499286 4.2825876453905645 -0.13311094951271546 -1.5950936322086915 -0.46167911071503714 -1.0850379299624795
P 6.012978253147336 8.973112929534302 1.5785337061017868 -0.2449405135352749 0.4973526528572467 0.9772254037621751
Ni 8.390030763299414 8.644137221173905 8.727950316846806 -0.31506889492124446 -0.029910671516503326 0.43565054786175933
P 7.358499894221926 2.9095535872445244 6.001449460244898 1.0681519528404184 -0.002616097466608398 -0.7708375536891177
P 3.3434238501479867 0.8256709174730543 4.450283125899578 0.4761747332280509 0.001523121512745764 -1.9739837353509553
P 5.789913340390399 5.4338963812683705 9.439630398430742 0.1171749412518111 0.11772361466642951 -0.15543527028459037
Ni 0.3569943982510271 6.547890593119451 5.379687311540316 -1.2003513925255198 -1.5385280771088212 0.9710994933700953
Ni 1.2617094692571973 0.4056760404660368 8.881825842789942 1.1947283899117875 0.39084804683508817 0.8424399485174524
Ni 5.552741154004144 7.703273531793935 9.27704753431103 -0.08350171736908199 -0.18990476481636973 -1.279640357364835
Ni 4.08499342902919 8.178624907071747 3.47786699930533 0.5116161047547962 1.6538780493367518 0.275870370344912
Ni 4.003731098417882 7.852605536341592 10.908896941863235 -1.3487276990807997 0.3272934620118944 0.33265549765475616
Ni 7.245678659407773 8.830562024426015 5.764889790061409 0.7354681730508882 -1.7075788812943171 -0.41217920421269655
Ni 4.507500269166404 3.1340504760411116 9.546977789351399 0.1297661476532604 1.330218584533019 -0.42114721203926175
Ni 3.66409409747842 8.76304666379534 0.8950459992442564 -0.6617312483780539 0.5741453336372692 0.1733741141511982
Ni 4.043586225095598 0.7923566878022521 9.59318165109006 0.4846285204223589 -1.5499226920990081 -0.23524668328627873
Ni 5.829103291101309 8.134215172732437 13.179937032305812 0.26212550995499373 1.6828764934516305 -0.2764514396593626
Ni 7.784147843091274 6.46141771743484 9.288729687228038 -0.7283801558558552 -1.3179716488448656 -0.35835007420738285
Ni 6.905154757179238 2.1482596932365428 12.55398335115485 0.7469239802963136 -0.20326267418051444 -1.2424434365995636
Ni 8.743008237795348 7.16631023259084 11.454221133426861 0.16179232285086972 -1.0548241253832609 0.3403598082775493
Ni -0.05668869791542132 4.57806435297827 7.490456948203337 -0.1679881672489365 1.226038769989295 -0.21164986980294517
Ni 2.305998782920202 7.6204776010369395 5.081604407560448 1.5870517357408216 1.4437117060578684 1.1088208913146904
Ni 2.033941812497079 3.953824423797341 1.4032265800504073 -0.3783640554354645 0.10179151681720534 1.3823721266081226
Ni 8.568482693504963 4.279816078862211 11.021463192556778 0.37745594179889835 -0.4521578014881632 0.8084587064760013
Ni 7.40177328628461 0.316979444570177 3.377212017695137 -0.05751892015207513 0.14747513489724923 0.9729260050558729
Ni 2.3636566052650374 1.2376060790156214 6.261888023781165 -1.7384179781623608 -1.0226076885517161 1.8886529351929344
Ni 9.0811485928095 1.4683667081662861 5.263388684588588 -0.3029104051818396 0.6935771892440572 0.4907384899748387
Ni 0.7300398621232554 5.495092570214403 9.885625341040239 0.6254972057466841 -0.789197544253544 -1.0861152221870585
Ni 6.9189848741557185 5.3259992963195915 1.9482810058052749 -0.7595635234371951 0.13174075488112794 -0.17412461916397753
Ni 2.331497194981049 3.150402718558394 10.19096974932439 -1.17493860887937 1.0140855100133181 1.390361315461186
Ni 3.1613042135699154 4.828983509345155 5.339515302422859 0.012193970963030612 2.424626899966805 2.7748232347188018
Ni 5.093954508010789 1.4798779478140454 0.35716623537578496 -1.546373284184853 -0.5428023005496135 -0.39341503623131596
P 7.020784512742122 6.349908357444107 13.300278450966896 1.3284910603189506 -0.3358794039086925 0.29765558454080354
Ni 4.885939201502808 6.90935829974724 1.745755248734451 -0.15427287454537303 0.086322988867961 -0.4089514413040182
P 4.093243458728587 6.652591138005531 6.5931391882613415 -1.6749464399712766 1.2556416804573924 -0.9672487521654374
Ni 7.606555098509514 3.7169755868393937 8.922187242286835 -0.44666026870870174 0.32128119437954344 -0.7703780975541958
P 3.8656701310855284 1.9754894744141156 7.8725765208893925 -1.458844705044565 -0.35305977234272096 -1.52693317318237
P 4.709067064218419 0.45247301744176655 11.775669267096252 0.31121018329678657 1.2573812888563183 0.5627540610811922
P 2.2610532123854123 6.7552222465504395 1.080788997130394 0.2525908309916811 -0.9471419541132335 -0.4894858485146602
Ni 1.3477481328523668 8.138390999635156 13.123862698304176 -0.1655466476869794 1.6233099467419074 0.5497859309562984
Ni 2.614437183305505 1.2920765998528512 1.9901298126723852 0.4345917675799419 0.2740436015488184 0.43696361024622804
Ni 1.7453755441200667 8.11861125317781 2.6343379548345887 0.21763436952115423 0.4964471103238418 -0.2697426601806193
Ni 0.21792180913582448 8.590036242540455 4.41746593049286 -0.6495375345253394 0.8134862415975797 -1.2647295016912734
Ni 4.115822487379569 5.131407610363932 10.927231778303797 -0.6223925986794314 0.4618855702988884 -0.7662072540059579
Ni 7.189803878196178 1.6581635840278945 1.305900249840766 0.5130880613146325 0.24276176071640124 0.7407317354426727
Ni 0.7177867665014073 3.787548909206354 12.865817844392893 0.7678162503642906 -0.6715094108107403 0.060005176909038595
Ni 0.05528998067411254 1.344884180773069 2.602926867513255 0.8142231197636042 0.6097833945558531 -0.7947480417581281
Ni 8.798975404557888 8.513448620806969 1.7129241954950918 -0.22168977053745048 -0.9572792996575512 -0.06308510138594296
Ni 5.536481297037807 3.9317719927867456 4.947295217451975 2.067191881374524 -0.23658648514362482 -0.29588615134520657
Ni 8.233039996578409 -0.26706353139454075 12.986876174929312 0.6872167942436681 0.886255403040506 1.6648612878211329
Ni 8.824880313042893 1.970491416107986 9.65182430340797 0.13739949582880207 -0.939709151984272 2.0493664231573283
Ni 4.505264538833534 8.973759628390917 5.903715709755589 -0.8550586657227274 -2.310652210819846 0.4700981880166678
Ni 7.72843935587138 1.1295427000751408 7.372427016026899 -0.04656859178815851 1.5578308912024912 0.22314707180926732
Ni 6.399011277771426 1.637783331489406 9.72753149084095 0.13953016901855972 -0.25717485081793773 0.16059881676340082
Ni 8.150798379127083 4.642106016893412 4.644087686961184 0.5188866702742806 -0.40279030679862887 0.7550635786843124
Ni 0.07156461932860093 5.885744872385748 0.747668872954599 0.46585921023465576 1.7395461782295332 -0.3438806769466142
Ni 8.780572202809624 6.507702878458334 3.204123068721949 1.2106910838886311 -0.46783047502841363 -1.4957091821710824
Ni 6.378095189037457 3.867037437239516 10.83308073948014 -0.38533714431918803 -0.01898605418419956 0.6886766666186462
Ni 6.648498458098663 7.4653068296695535 3.089973329685206 0.2274765524225566 0.5536955504233496 -0.4711646816079692
Ni 5.216272977462099 5.914800128157981 4.0368346890325295 0.18661992341751088 0.6204462735863379 0.18206675682918966
Ni 2.507815018959768 1.1691206701000205 11.141061831388264 -0.8645288099966918 -1.2810572923170194 0.7626635025187575
Ni 6.825001053179271 4.899427491940792 6.90747455836347 1.5710982977353587 -0.8709709660776096 -0.5099651994149346
Ni 1.7014462146456728 2.234372265272468 3.86090580822329 0.751819360715402 0.9569458275775325 1.0316898533586425
Ni 3.611027837015556 3.907705556765548 3.4115840619242603 0.4594967583517377 -1.7414238548682202 -1.888950154718379
P 7.308094337626281 6.627379121152614 4.886461179865647 -0.5793042521303894 0.2085714879879376 1.680337529079861
Ni 0.44994627262341813 2.285156602626988 7.643723653365745 0.9582146669876273 -0.060376444205528276 -0.9665321857143869
P 9.063761632121631 1.9688931460766357 0.4038865323442303 0.4745677937522472 0.5246827081307673 -0.43297120125738336
Ni 5.853779471758744 1.3163832383065062 5.2429982696394966 0.797267465745872 1.6819190146343679 -0.251640808373586
P 5.58100189403825 3.5938995558703346 2.4783662007405085 0.645941589643965 -0.09296594810577538 0.4855356056176606
P 9.01033506801008 6.832299511703934 7.534293892126786 0.1631966593975641 -0.03839016974242421 0.39935505586483483
P 0.48920551249753735 -0.05278263682146259 11.074711452555004 -0.2508116276040713 1.0311404086130758 0.03411365385425738
Ni 1.8150712037530483 1.3163555226412227 -0.2186396448666679 -0.40084912391185806 0.3180441754994845 0.8692233872588838
