# total energy = -340875.8830853625 ev
CRYSTAL
PRIMVEC
9.17652768249456 0.00000000000000 0.00000000000000
0.00000000000000 9.17652768249456 0.00000000000000
0.00000000000000 0.00000000000000 13.43077584096283
PRIMCOORD
 96 1
Ni 1.0267983779353194 1.046426970446121 12.772950068307427 1.8595207937136684 0.854651917202612 0.7512807146031125
Ni 6.588948691814342 5.345804499463565 3.043978084072851 -0.1147035968931831 -0.5845863264649351 -0.22958305724259817
Ni 3.9311051238545205 3.4283598834165665 6.429311982587408 1.5357330308621873 0.6784279923074445 1.587860604795362
Ni 8.82613105861116 7.37321144559796 8.092834739051476 0.6854504463718647 0.3126631136932293 0.9056921716088788
Ni 2.710158951739195 5.841474637131146 13.243483861605869 -0.7657961346104681 -0.4366339948209512 -0.23116531412805347
Ni 8.893248181390032 4.565019649635812 2.489850712711226 -0.10130506409909004 1.115180514984131 -1.189676429310177
Ni 6.761751882824583 5.6833263606789926 11.27673468048113 -1.1534637268350458 0.658214493474047 1.9001416525588244
Ni 5.146444437613557 2.5442381564199774 4.4562906448562485 -0.41384399350962925 1.1476810587149977 -1.0079521434220706
Ni 3.959212827856664 8.342381230280434 7.619036854889971 -2.64059493752913 -0.5168742678299421 0.8574027404748717
Ni 1.1676397233564437 1.2330867181142922 6.506902276302501 -0.0006998542805020206 -0.9652728593859893 -1.0900304980810647
Ni 4.78121863960986 0.307264096799407 3.809531733409988 0.8148643528920289 -0.8253979054335011 -0.5929210715828755
Ni 7.449954745816676 2.9605955661441925 3.7282763345762353 0.9372092683805536 1.053975147119404 0.7179895566501506
Ni -0.10336991266815199 5.459813678217282 6.2036079453376765 0.8043922497161115 -0.822932474612144 -1.0201828811603075
Ni 2.447113788428241 2.8482840449942617 4.876405842627763 -0.811189732253919 -0.9694141352478726 -0.8593997163002426
Ni 4.231122516817658 1.0668447443294937 6.2302685109391875 -0.6335167336170509 -0.645981698853281 -1.5969666808616885
Ni 6.104932744183562 7.98958962715852 7.403648152301946 1.971721935899972 -1.5224370850842297 -0.05415180345205513
Ni 1.5227896940684813 4.992434775103606 4.066637848065968 -0.17739891903987512 -0.059700244074110086 0.31189589650990157
Ni 4.3574282425393385 5.744047443729004 1.4891503792362715 0.3520832673620646 0.32079731276458945 0.9819765452939153
Ni 5.770521725820478 0.9882019029000544 8.27664792786184 -0.2238505256341951 0.008635307077494806 1.6510248961586727
Ni 8.263325445109533 7.948304429539962 5.8408295272417075 -0.058449145275828375 -0.3765725107526805 -0.29843180058519575
Ni 6.243654311731851 2.2552784792004195 6.558207324394432 0.5438924482899987 -0.6577067005996932 -1.669452506736241
Ni 4.323144735470449 3.0779358244123656 10.956088453500096 -0.3189911127937861 -1.786101657391569 0.2797509363462408
Ni 1.312114973702429 3.64719253680838 13.181997456155017 0.2855767989993985 -0.3747362288748901 -0.5352445428070137
Ni 6.183676527416469 6.5862966753414 5.008323014969526 1.333534279169813 -0.20425871954519662 0.7042953469925096
P 2.9097484267789038 5.23402521691374 5.763629235949107 -0.18439617629331467 0.8655827051825027 0.5805532940461421
P 0.3050709067058673 3.7780773497964883 8.586831995739757 -0.19806390358839437 0.20750242329347487 2.3579162860131326
P 5.433568809315509 7.244070172851576 2.730678585078795 -0.36088980991010106 1.234108434371307 1.1094883496953603
P 4.566542953215425 2.8420531827619877 8.525721827920014 0.7940137346952647 1.0354385217677975 0.18644817372633696
P 1.9715585992336275 5.971184854587987 2.1228419153971743 1.6912040394807195 -0.4884031569734428 -0.9123166189039321
P 2.697788992550527 0.3192523124404128 4.755071959553279 0.5069762919899398 0.2899751851774103 0.7725527366080114
P 5.585623871449209 6.1397117837422055 13.201767367190673 -1.007213465483833 -0.05401784897735212 -1.7082481394472
P 5.059570250937652 3.786171047129133 2.559516157201293 1.2697464952898905 -0.7866737493904258 -0.19241673260494604
Ni 1.3962178490467478 7.0515466240546525 5.378703268519421 0.9426036999232476 1.015375175359019 0.16071580195723933
Ni 8.501419629908627 2.1387549318875814 1.1278126759716234 1.1251232280191399 0.14974978986403886 -1.0388778864666495
Ni 7.365218690068782 7.8660919188787775 12.39319415652084 -0.8338082409843833 0.780189941438295 0.9291797132078577
Ni 1.0166216088401911 0.2579806377351192 1.753683057669246 -0.2783633119700948 1.5349329035583952 0.21914643529030645
Ni 0.7282694177469605 9.059912275443878 4.073406454814901 -0.5985286475776401 -0.17681630706352774 0.28030809440129145
Ni 2.5250133311230494 8.005428313775464 0.7230553147714405 0.9235461690711643 -0.4411136278588596 1.856626759995325
Ni 6.039834457474059 0.9474122377712494 11.254721108450198 1.4887975426529134 0.5590385599028178 0.44426862854807364
Ni 3.9834113311063057 1.0378102110409586 12.257664185267668 -1.4698526261192943 0.45455586940669457 1.1618406380448314
Ni 4.334459393986493 7.717000875156012 5.328418650295279 -1.8487113618029904 0.3045116882306884 0.35337781780377203
Ni 0.8671212919869995 2.5664728827657806 2.8950301941804586 -0.8369424157379908 -0.32638020616900565 0.5572148764305178
Ni 4.175274169916891 3.542846241604861 13.668769115020481 0.5790736241768221 1.1536974401124067 -0.8585489382641729
Ni 8.033517664722433 0.49195914991098033 7.565784547643858 -0.051983335045826605 0.43723537585037603 0.03435739443394728
Ni 6.23997452416905 4.200041617876991 7.6380552083161675 -0.9136155402210137 0.41358148387686194 1.441581547088743
Ni 7.38817836209404 8.252598084359123 3.641123181461655 -0.7847276814076486 -0.005591378044848435 -0.7602374095757681
Ni 2.931184795224548 4.388261375235128 8.977184043932247 0.3254996033362652 -0.5910773335059175 0.24058300789752757
Ni 3.7558793295610378 6.4505941853695745 11.005177370179515 -0.562499778978541 -0.7653521050945141 0.37915749787103736
Ni 6.329170372324727 2.0594605569993916 2.071683691746651 -1.8583005481533221 -1.9605088407929718 -0.44934758573287775
Ni 2.8457696764351406 1.521605922009625 2.9221339860644715 0.9731689743046144 -1.4477203129966292 -0.2327596551983669
Ni 0.21623569608440013 7.152295720443663 2.1067784038543227 -0.20022131625102937 -0.13859145925437422 -0.10650692001500366
Ni 8.485103763857104 2.851459123539721 6.911316435370892 -0.24521870689732606 0.25981254555110095 -0.2259349189670496
Ni 4.349545605341219 5.334398075671641 4.007219831933456 -0.8031444933519394 0.3336605418805028 0.8895147905180681
Ni 7.3278702227854895 6.033089709696855 0.8265335104651311 0.9154415376861589 0.7847618770796937 1.122314297815435
Ni 5.292433815011568 4.781677465989262 9.928808307866403 -0.5512913118572312 0.6560923049247217 -2.515005804071694
Ni 8.719729221227922 4.440888760952495 11.20419514755049 -0.7273977373379279 -2.2371073475531604 0.022118686275910297
P 0.15207708579991142 3.304467584450538 4.818519388949695 -0.03961067241308662 0.06928737354191293 1.4526414044473306
P 7.709191650178597 0.7911570789605067 9.737124411343785 0.5535783081191951 -0.6103228119990909 0.14973179214190988
P 6.15055843935126 0.6974381203566886 13.514315308575268 -0.36564943608227346 -0.18263831306194353 -0.31643646469273246
P 2.7755967699694555 4.41903944876539 11.580068470514583 -0.43344222735653093 0.5391094250790586 -0.6203832815588863
P 1.6415156080024471 8.337490141076012 7.343343683604431 -0.684651347509337 0.8871781719650914 0.06880734858170084
P 6.122395676183588 0.07027384826915363 5.647990305895756 0.8557230387796037 0.13555935729626975 -0.39624864902536916
P 2.7042492679725023 2.2347964696239306 0.8157244786191876 -1.3266473222419926 -2.3864434469185483 0.21817841495008233
P 8.512523228290148 4.342644856595018 0.277184357018595 0.08641709124366408 -0.7340733495858905 0.1226385354695436
Ni 4.760874277947192 8.001684290519547 12.624700512164484 0.20860722632187947 0.17039189159442267 0.10974908110138519
Ni 6.737819498874995 7.880113653033291 10.095645838291667 -1.1423578467298714 1.6365125614751106 -1.4789643586125756
Ni 6.665838816474466 3.1780517403978013 13.550309320386567 -0.5526755937992676 0.3352831650855903 -1.874661763120165
Ni 7.28318970995936 2.885357216449913 9.302357051972459 0.5054860805976584 -0.4239178328058635 0.07041017429244648
Ni 0.7533130791874604 0.8666743950934622 8.921084260175569 0.03066631873560525 0.6572598428702616 0.6130021586034669
Ni 7.888299115641817 5.299573153475057 8.898614614723511 0.22251432332127483 -0.4504480178859081 0.4116007060014073
Ni 1.274408621843203 3.029116697644032 10.440359344177834 0.8854884429674944 -0.7418285680512773 0.23392950713675195
Ni 8.342739114856368 2.0160555815079975 11.7113139210369 -0.7071947800274917 0.2045741939030864 -0.4644631012180775
Ni 2.405525765399277 8.158024791036858 11.958400185219507 -0.7987229672454761 -0.07421077898545929 -1.0028611020524083
Ni 8.110563790351554 1.1311997323043663 5.200919975987154 -0.4854098786730737 0.053659180086352745 0.010598858561768842
Ni 2.9413615643196764 1.5358020101883116 8.040038505226487 -0.3140723353359301 -0.03512461161727499 1.440287253757352
Ni 2.707378463880021 7.834543017031122 3.254397696971956 0.6793790433668042 -0.3609427746352235 -0.8849055738808308
Ni 1.4686390047715008 3.757806400354524 6.92200709001095 2.003183753953679 0.2251113946244897 -0.9699098439373682
Ni 7.788954027973776 8.813917100391489 1.179410455293613 -0.4277816866366439 0.6369103326796322 0.17044125677511934
Ni 2.108940393754063 6.296731347301031 7.66212340487406 -0.02371071335337852 -0.9020175509707692 -0.03464921464275323
Ni 6.871576564998157 4.326420755819377 5.5549017747372345 0.3439740079913689 0.4886091023366617 -1.6600517822476313
Ni 1.6683202450870902 7.945505588625612 9.58503447840525 1.1495569355814717 -0.10555226941121822 -0.5087938048146528
Ni 4.365255820571931 0.4780970873364983 1.389400606701598 -0.0280839027204097 -0.2826920212524357 -0.8255046062146945
Ni -0.1173916468226658 6.209251509804317 12.581964505534257 1.6146003347830515 0.8097087768330183 0.5388649131684203
Ni 1.2315634145346788 5.704771905652224 10.246741953292418 0.6071392720647866 -0.06550296679881623 -0.40889796235826353
Ni 4.440035343886808 9.147153523223304 9.812363678690822 -1.658765716446356 -0.6146957442558059 1.5612288611404468
Ni 2.9599990918509707 3.801137963625214 2.508278097760754 -0.7215482205356863 0.8740832864543462 -0.7511066509190936
Ni 4.535030757478121 5.729108056815687 7.2337887913419445 -0.09182334986089993 1.4617765339793791 0.14213983872726488
Ni 0.08992079383513142 8.89955245584301 11.070061843796218 -1.1261745521017896 -0.660669896993075 -0.21972416217064739
P 8.3990738177193 6.726009307869196 10.474366637766323 3.0612387275694117 0.3828071788084827 -0.23303990544294706
P 4.818603813003505 7.042865628956374 9.31068383310584 0.32137838207904 -0.3241567161551256 -1.4623336920344299
P 2.4344960629946955 0.7630658927080213 10.694470240229078 -0.8324036473273728 0.318401044618271 -0.8211090482501601
P 0.4331100784889273 8.174753600829842 13.47241069534452 -0.3997895722990921 0.49150853537164385 -1.1862180384479313
P 6.544965595084901 3.448199536061893 11.28122016716616 -0.1464556924937994 -0.07030270218030474 0.8758627469522723
P 7.297055443144877 6.1449791105777365 6.91752068567316 -2.1171949527655274 0.050127769894326574 0.8361890825117342
P 8.24257731623299 1.0152634827571625 3.0086144997068494 0.25610295790999765 -0.1614359679527155 -0.8053983223831226
P 8.47533076197585 6.258896524055572 3.8675127053222127 0.10893224162704464 0.30704679594771633 1.5261415305190105
