# total energy = -340875.6615404793 ev
CRYSTAL
PRIMVEC
9.20774331044438 0.00000000000000 0.00000000000000
0.00000000000000 9.20774331044438 0.00000000000000
0.00000000000000 0.00000000000000 13.47646306779144
PRIMCOORD
 96 1
Ni 7.649940393041674 0.8858189666425097 8.078222915867023 -2.423891821572993 -0.2489141534710423 0.44678033922633376
Ni 8.395178298487911 3.512523845755947 0.30820434346234166 -0.5096584668077933 -0.740124440875977 0.21774878361183145
Ni 4.56693935312313 3.9549927385640107 5.618471916087388 0.030916229962882243 0.7247117058653325 0.10144878876580592
Ni 5.512381219453492 3.0674859925888396 1.8601694635938437 0.6314907043259576 0.8166895790262257 0.41331974557504303
Ni 1.3655911895673862 2.343941530174521 0.019473456141003345 1.486297401938879 -0.6936908320037859 1.024215142248152
Ni 3.4523328283112735 6.160836535889334 6.573548764925645 0.48370986526283155 -0.7747469160458528 2.922035859983284
Ni 6.973244928142805 3.419138913994608 8.304519779494719 -0.16349593580553778 -0.04207970277886946 -0.6778507796477358
Ni 6.8777606309267645 1.1638034968490127 1.149234084748247 0.1476509983534812 0.046401212972358795 -0.38674353774841136
Ni 7.160419932367268 0.49404882879117085 10.513136949078621 -0.2911257538420857 0.5256162756886302 -0.5088580823936849
Ni 8.341266961920898 2.6574559791532066 10.002203881540579 0.9985732733103319 -0.12063744587911482 0.09641996809264684
Ni 6.178819258402635 4.015947998696141 4.118501080384 1.5442562378418503 0.7175452700238804 -0.7980362255910965
Ni 8.20871229049157 9.157155881112429 5.590602839676222 0.42645499740542037 0.5379429155747832 -1.0866392130113285
Ni 0.37360694357087953 8.455093083635914 2.8776158819231874 -0.6673647925147475 -0.8260432523269838 -0.12992324205641495
Ni 7.234312071726836 7.876533746001129 1.716200873666059 0.696740160353071 0.27089425728655925 -1.3403261052806656
Ni 6.181913060125353 6.704084178266305 3.4341668717078475 -1.1748290798846992 -0.6891849737136325 0.6984023785468424
Ni 0.6947260676769259 8.173087531964198 11.709833267040928 -0.7705850713586793 0.6122555102454293 0.6188473045303342
Ni 0.6544716558573418 3.4544045705363087 11.613113290684444 0.31211906826430114 1.0226210582881547 -0.24341456380905171
Ni 2.229461658690718 3.998370416884625 7.84462247031534 0.17964117810683253 -0.9475340473453293 0.4683187275187419
Ni 7.065285529393677 7.435464430162866 10.675622310626604 0.9422347466196032 -2.2122290962542417 -0.45872337052082285
Ni 4.965422856557904 8.01282676117874 11.490166899307665 0.04333003024620279 0.2605833622788545 0.5151464865055579
Ni 5.137985172288456 8.484502615488182 5.002476656833389 0.18299492507041387 0.9784998995992246 -3.642012879377108
Ni 2.9099230905675384 1.198102340352364 7.918446472375063 -1.0123124772732954 -0.8825681839969058 -0.3617033069503319
Ni 7.0248635366474455 8.612729647602992 12.766657520035086 0.9669641310454831 -0.2787109251175007 0.2091888098569623
Ni 9.022069080296948 2.735068046774616 4.476220983798991 -1.4444460131207317 0.5820643313740299 -1.2410195596688434
P 0.5759268438475064 1.6352307420914498 6.04108062753911 0.6262042591160377 -1.5665379320581858 0.9715669199248169
P 6.79908046509156 4.488931352543159 6.4141765413611465 0.1789940314411369 -2.1864702421225832 -0.745819177267909
P 2.659978900796138 6.950133492654641 10.962658052420704 0.6121999744171456 0.29883520667120145 0.09791429324998621
P 7.6921947266891575 3.1298776606636602 2.5874274088497473 -0.22183195254226953 -1.1810138685391725 -0.0742395753408657
P 1.785307748872959 4.696004289871177 5.914577284955528 0.6852427012364328 -1.2072352641295467 -2.3203460410688423
P 5.220007748913382 8.935608371438835 0.35574208017082526 -0.9578400572570277 -0.27826586716028207 0.5755329580134152
P 2.3425971996640538 2.4268296346623512 2.286336047026691 -1.259096214664896 -0.6167346290627056 -0.6139107864606652
P 6.612991974567338 6.094108020756774 12.591288684170353 0.3432013914914025 0.8144054109777394 -0.6434692168440724
Ni 8.836606716311847 1.2031850146111156 12.137009939905269 -0.32417239988440943 0.8765569448058195 -0.3053043593353129
Ni 6.873607938733473 2.0271215013790016 6.08318119187478 -0.09358789796049043 1.3395617163108156 -0.22642471411927456
Ni 4.742853287386628 5.32078649848229 11.059472868532376 0.9756179500657393 0.15643414386274995 0.12696544497967166
Ni 5.19039564671022 1.569653194861687 7.834393588369601 0.3717843453354178 0.619960335088855 -0.0568594321912053
Ni 2.1411594011881303 5.9568481925408125 2.4756665839395118 0.25726638209047953 0.648479011353838 0.17270485599831548
Ni 1.8654151149076315 0.22864207582643367 1.3619182207959803 1.5386962272555693 -0.2120370779390348 -0.15928164061387406
Ni 9.066671388466137 3.5849335384567125 6.878453973991409 0.010028587880595633 1.0376306443231098 -0.23405549119165495
Ni 4.881908625530952 4.546581032858457 7.820634457672406 -0.17365462150609448 0.4165572786757342 1.7209118509577976
Ni 4.023378647476599 0.8633852210555123 10.091634087587908 -0.03509915769597826 0.6234979159284683 1.2198526957832412
Ni 7.094216258598383 7.922213360127337 7.392325232391712 -0.14308626180093423 -0.19172459163392785 0.2531438752816737
Ni 8.544435816122629 5.938092019596832 0.3232037571715924 0.653101597727514 0.5453476926792866 -2.2533613475181773
Ni 0.06104917911299843 1.470762032653367 2.0164018467195115 -1.1694994401416698 1.2623954542414582 0.28106477006165786
Ni 3.249734854189331 6.042378919333465 12.955408889899218 -1.296108016002555 0.7378179042299874 -0.3957999915237248
Ni 0.4346478357149778 1.6047899429982742 8.200859006297208 2.0656841864807456 0.9196956849768224 -0.15602353868789257
Ni 1.2576396080282484 7.245149585499574 0.5705854320042061 -0.01217057392426291 0.35992256090082536 -0.35395065958810656
Ni 0.5699685132083068 4.026757889239211 2.388325614829341 0.29354027682084927 -0.7486185943899172 -0.7778204127648539
Ni 5.9182401252093895 2.650098992318528 10.246761541526888 -0.44671117655129516 0.3780095003095232 0.5992377578295228
Ni 4.296968321843061 7.096094638215748 9.362570503886095 -0.48322238410345164 -0.08069278716537716 -0.9952796901607245
Ni 3.444985049219817 4.233729541391782 1.0790858137828963 -0.746510804018295 0.008865420810429892 2.053579947018044
Ni 4.731859241979111 0.14287471003296645 2.5431565794365625 0.45999992324040134 -2.2652730113540986 -0.26085744187584753
Ni 1.0022444342692005 7.286372651906151 4.792863303150319 0.5441372173109531 -0.5297403251593328 -0.3026635792783562
Ni 1.8950180093675708 2.159574887632883 9.897558800592597 0.749859922996186 0.6037806400051989 1.3973588298249418
Ni 3.479256269493501 6.268926233576807 4.511084261961875 0.7739766135387315 0.23824407535170583 -2.886240190440913
Ni 7.888061840515544 5.708653473981663 7.85766708013848 0.382821834096502 -0.053921946829436164 0.571105518369681
P 5.516699651024787 8.985201276434553 9.041884143711501 1.6468270560272413 -0.8010104777280721 -0.033998725542947895
P 0.5442319501274433 4.619644475328012 9.225097056027375 -1.4754249780007493 -0.4145592744090989 0.2612839878903049
P 9.025245751708667 9.082775731362073 0.3120513385806504 0.31366738658802756 -0.676475496566764 1.3713883739031092
P 6.310195338699497 5.678056143253707 9.523156308007303 0.08610675909209686 -0.5982268000665052 -0.9920403572878204
P 6.974874698693165 8.665941195685106 3.6912710026089686 0.7258432483666144 0.274038973563128 0.31626702899440373
P 2.79030529836565 8.174846210919672 3.574537075584328 0.04316136587882244 0.40451320302700655 -1.429340524937861
P 8.334978073300015 6.936874342414419 5.783074137802196 -0.7191866622820453 0.1007939287906264 1.0991594569655263
P 1.3410985925958656 4.555669075418942 0.002822173297658294 -0.06042812337907012 1.1946872522612069 -0.42687562988260674
Ni 0.24678501307180367 6.9132933120219136 9.366114564252388 -0.13218144196297235 -0.03227994307962828 0.20877897601305334
Ni 4.735625208957062 8.206935196049653 7.002248398518968 -0.8597236752985644 0.16538801062192807 3.642395716637824
Ni 3.6330255813071837 7.561941991065424 1.2596358467588593 -0.3254893189236201 1.2974704435677202 0.8453648354737312
Ni 1.0469664431002816 6.304219513348175 6.992047139802897 -1.0813028884000797 -0.2735653763608192 0.9692765812287435
Ni 0.4330438468456399 8.56025471897867 7.603218462382692 0.1396643806035788 0.06765240904165122 -0.6739211055760265
Ni 1.593086901362634 1.158159150253696 4.093866684166855 0.030765306207314755 0.36612020507110493 -1.3745230628773488
Ni 5.265696570782812 6.028438396094787 0.7865447623161388 0.456352299185485 0.5521603447257459 0.7031640616015439
Ni 2.0408410387803424 8.752245372908437 9.601131160711672 1.646220532791494 -1.2780380458747216 -0.281093052196432
Ni 2.6097230382884087 9.048642627236724 5.581695268882895 1.0627629206143632 -0.6739804980590521 2.01825736045735
Ni 5.910293842808478 6.274441671767011 5.781766638264619 0.08366498241982365 0.10777498809414987 0.09354856008212276
Ni 2.649003270875065 3.949882441075592 3.9150744093720435 -0.41328143613793983 0.5417622893208734 0.16782027421250453
Ni 3.4109900612428046 3.8196204977086365 12.323484234870508 -1.4532037047087039 -1.903479458682806 -1.7322797264751069
Ni 5.264029969259562 1.5221320320910035 12.36274144809911 0.34779235329619457 -0.7737238740979772 -0.3156211678802887
Ni 3.86752838569466 1.5831241231960231 0.7598284953564144 -0.6760448367872487 0.4314578499366505 0.26133618128447894
Ni 2.928338577012291 2.547819380604374 6.060891087082052 -2.011523641277942 -1.2009316905090222 -1.110406233523939
Ni 8.643943897126848 5.1870071972043865 4.317333087527991 -0.4278495637601019 0.20706147910131437 1.5460081875359504
Ni 2.9299407243329845 8.538699392095088 12.525320728627962 0.26747494719236514 1.091528937003462 0.4157602366957356
Ni 5.521137783257973 4.02640799499676 13.200815503810631 1.2698161721855614 -0.453900752321199 -1.0703715861995566
Ni 7.288278654753182 5.217475619527229 1.9759862993935358 -1.1280794824339861 -1.2894753411773858 1.1662637068131914
Ni 0.7761013399533198 5.925468203638954 11.467405358061951 0.08169423184669801 -1.5331822394158756 0.9902696385406429
Ni 2.5792269927358986 4.949944640201089 9.904849491676073 0.3642718390084565 0.25929575381568243 1.2474105507968516
Ni 6.335424555128808 1.4677142696467602 3.7159459128962924 1.216319742929318 0.6310554165607519 0.4736277984364811
Ni 4.104148971023283 2.054173850966343 3.4250834330189734 -1.0332448565505883 1.0378332472522191 1.9492726057575205
Ni 7.630687001963686 4.699595309727903 11.164683304914213 -0.5835758829225498 0.30956930525925397 0.19981431062059782
P 4.618557961627771 5.265447961715808 2.829140796954666 -0.3228961042751471 -0.9411484555339599 -0.14114405047289885
P 3.0136575257108285 1.6492449272759064 12.136255825735356 -0.5817830526881852 -0.572775449872936 -0.6538850128607577
P 9.16851823624884 6.13493515420479 2.5202329819101346 0.40132143556258626 2.252503370393256 -0.6433337197074727
P 4.706731310725246 1.4379456358088183 5.566763071699168 0.7174002598055839 -0.20809429124120288 0.12118123419772678
P 7.069355351897967 2.682418171029069 12.309873348839192 0.560866614250492 -0.16228314644435923 -1.5355728511352391
P 0.19144555553100068 0.25867405112053576 10.094193840203728 -2.5709170134170174 1.523429530904486 -0.7135320350994292
P 3.9145247071016676 3.196136580891879 9.573746411594005 -0.14841204488922183 0.158775647511733 -0.8291473451736042
P 2.584245212792094 7.788820784064773 7.576966265681376 -0.23287586906125698 1.4051649561329218 0.7535821090427797
