# total energy = -340860.0290088914 ev
CRYSTAL
PRIMVEC
9.40876813641031 0.00000000000000 0.00000000000000
0.00000000000000 9.40876813641031 0.00000000000000
0.00000000000000 0.00000000000000 13.77068322049685
PRIMCOORD
 96 1
Ni 4.161357007352658 2.325141821318891 2.183685697039199 -2.533755830985688 0.923667782250693 1.7702130111857708
Ni 4.976353910557367 6.350758531023931 8.165904662609627 -0.7027244029609638 0.8054227478631548 0.5921260864854061
Ni 6.002003723170305 0.26767757122168206 3.487205599376742 -0.3540331919995838 0.4199303089130252 -0.744283457349673
Ni 1.631866151265027 1.893110006847183 5.3778232235492975 -0.526057734101423 -0.20156883141785928 1.5919620285582454
Ni 8.867133564354178 7.97921870823001 12.32649673711424 0.17606065984442582 -0.6593169825096064 -0.17037440809292592
Ni 2.632074654885163 3.9429889080871443 12.092064107162962 -6.376729218772695 -4.231386599928357 0.016305679138559015
Ni 7.979604467722875 2.0844843503803188 0.31128344794433066 -0.36380364112278635 0.5891271517580822 -0.04400828726015001
Ni 1.489558533470598 6.720222037506684 5.8749317235903895 0.4243191820093402 0.5187223767822744 0.750731784078178
Ni 4.117013483209509 4.143988421405649 4.038858609955215 1.0201666832103915 0.5681595483674795 -0.04666166572259706
Ni 8.9844514940255 6.016991890783299 13.750550486066057 -2.121491523258353 0.6510364876683691 2.1934343321452414
Ni 0.21078086865464277 3.038354671016153 11.226962691096059 -0.5238129039313043 2.0285235182700485 1.2998937082972324
Ni 7.190839210032934 5.407576570970872 8.80266092169801 -2.0176906893206024 3.098789689239992 0.1997520899240947
Ni 0.059646885488117786 4.115790343354085 1.6341393096424903 0.018040659551794735 -0.5174807910656894 -0.6641439715846046
Ni 3.2188712961403785 5.206125436782672 9.545740964911083 0.004749598869843433 -0.5309464296522921 0.9211938667889038
Ni 7.2409973528734035 6.648103829877309 5.576906170802035 0.6911302703654613 0.6817735117409097 -0.9272552424916353
Ni 3.149048827931952 5.976628275554333 12.121947295584574 1.569625055623942 3.7630390760542096 -0.7679298931240194
Ni 0.2377351075609224 0.8249871331930807 10.767159015768561 0.5270296110963891 -2.62178886056622 0.12282211223525943
Ni 4.841526263417258 1.4854469018027523 7.946799856800425 -0.5596723368320747 0.04348455354619608 0.06971263400478962
Ni 1.2359922326732522 3.601667027047244 7.184647299734057 -0.6920769505494467 -3.025631262778447 1.0183198598096397
Ni 6.821225163260284 2.7589518929650216 4.394762199825383 -0.5813873599116632 0.12516618698740378 -1.2136095430870066
Ni 5.386115170892254 7.170883212853298 3.8760615178288234 0.08724241535843685 -0.37804369598156823 -0.2611492620846535
Ni 1.935440054612944 5.66784191466869 0.6434515384816064 -2.4661661568611724 -1.3912370331979202 -2.1796210804112333
Ni 6.842705380875139 4.48558315672099 6.350295619632495 0.49626044823433246 -0.6279238129103056 -0.4842333418664692
Ni 3.5692444121104105 7.037965545641272 0.6797373936079532 2.9484305479267285 1.538913485472698 0.7786369951288784
P 3.994031475130766 4.477294032008468 1.279202941134918 1.1578078627363544 0.2480114391511148 0.15001641326186424
P 1.0665591363927844 4.928209244094286 9.947638376852412 -0.606090261974982 -0.5064818688520244 -0.5982062312412149
P 6.73574650490244 7.358475231602741 7.509181115819869 0.7170639595120877 0.33542174754598364 -0.1728400960245991
P 3.5248726616629047 2.0032020026033885 4.3417861309333805 0.35459729203317 -0.30888899136277764 -0.17284395267934105
P 0.16009113041547013 8.481788057287162 5.3028701540857766 -0.15841723573104974 -0.31718388438171824 0.40983718634308125
P 8.84519231710151 0.6580388925727457 12.803802602896033 -0.8302254087291315 -0.7685639271635925 -0.28932855273234687
P 2.3978715988759776 1.5755170390024924 11.298542717189049 -0.8397582879202312 0.4399720580552487 -0.0815798177560208
P 7.898369163786538 1.754518852459617 2.4089193744008845 -1.254335560051459 0.4132932632124818 1.8786382312694099
Ni 8.940663087201349 0.7783920908391402 7.148925970694829 -0.4937685350504141 0.4054146317953534 -0.6637503356906117
Ni 5.068136443554699 9.337929503474683 10.272420584416555 0.9345538330355777 -2.1625983206009916 0.3969896409564518
Ni 2.72845807549251 7.565740984488261 3.5219625296838095 0.9672950320223406 -0.9579639844294018 -1.0225989468009677
Ni 1.2662978747833915 7.251638669615585 10.121190631815221 -0.1726770880841736 -0.11599223379761958 0.3803862280718158
Ni 6.227550712510341 3.375367336257716 1.8377252933168091 0.8441713293862623 0.7736493121063 0.13795254011879465
Ni 2.8128453167485916 8.647946902262342 5.623630113279201 0.10855351813138722 0.35603942379633524 -0.10293668616524208
Ni 2.0728080691450868 1.2038330632437408 7.664927277118151 0.8241030978814775 0.36087901127682365 -2.142636018546452
Ni 8.091324180363605 0.564155381654521 4.456082905161806 0.8980192284446535 0.4587323693818874 0.4981329826666969
Ni 6.920167768795901 8.547461258755268 0.6151913625604595 -0.4641093174230846 -1.1500922392596515 -0.3582600855967378
Ni 1.4116727509844968 1.3996577540969937 13.357796514982422 -0.12496384116861059 -0.14874217453513094 -0.7357641070247523
Ni 0.7398932934512894 5.5776024196428144 11.951796310296652 0.83405352422597 -0.07870326753917413 -1.1015791221506124
Ni 2.5421456492072023 5.201722133303149 2.672765695244656 -0.755106516107106 -0.018840015524638522 2.467616773264769
Ni 2.0747086403050523 3.2524323720195674 1.023885668590693 1.052949534068367 0.6492909657321722 -1.4082718771930196
Ni 2.873061432707887 4.995698337809292 7.238105097553734 2.1664817148157978 1.623091145862882 -0.29692179169857247
Ni 6.6113343640696645 2.091277480961977 6.534533412547641 0.8712414461301768 -0.47074764867520863 1.239523177628975
Ni 5.539007652820153 1.1169524984362198 1.0378426352178836 4.697958519959323 0.6208468514588663 0.7355242230998041
Ni 0.15550059245038572 5.763886619623766 4.341580078911583 -0.26613334556280616 1.0996361394916288 -0.7996645052231389
Ni 7.043243864555829 0.10501032009532832 11.389015549664267 1.0349006469864563 -2.211759612816991 0.9613418997626991
Ni 8.74510184185542 7.801411808323953 3.3782106659831697 -0.5725041984894205 0.6310847271367905 -0.5051664924747107
Ni 9.241122688301997 5.207960146565807 6.668081467223617 -1.0732800180956032 0.8689408230214583 -0.9259938592807084
Ni 2.513119599561198 7.4448383141637375 8.116468172283858 0.4788749057680333 -0.3312141372225393 -0.6895541841275931
Ni 8.525924588531701 3.9243877735165933 8.466821529840841 2.8267952569107186 -3.5286411139214717 -0.062337938807273285
Ni 6.973750703231555 7.588425524422301 9.727747938905303 0.5278423368056716 0.2917808709275813 0.6532280960030491
Ni 4.1639161922809285 2.9975112086131372 6.168123051319388 -0.12135735476427487 0.14826240668523497 0.29266944418012175
P 3.767901142167374 7.319504114055335 10.124137457989978 -1.1980155453034915 1.1629130451734035 -0.38500855733517564
P 3.3268745453742463 2.9617296634579495 8.499720228444477 -0.5253259981417211 1.4881650512752371 -0.5500258148812462
P 4.850295235303829 8.500878447799883 2.079510875552806 0.6998254841466142 -1.561335304811324 0.38961057488356127
P 4.463303193816051 4.1055065598004115 11.848171901745202 5.805316196464925 0.6812927154497492 -0.9724416092202866
P 3.6400548009712943 6.510952217011894 5.078834212905593 -0.34825926563028414 -1.3243582690974998 0.9184679832173085
P 1.795089460587192 7.393297082409828 13.083911979432875 -1.651981603644987 0.7281893800012879 -0.004224579604308854
P 6.595273596891146 7.189879515684832 12.498561465837494 4.876044437763893 -1.9902860720554045 0.5914084915930911
P 3.7007413553365223 9.195189082346797 7.375770429158425 1.4591794626761643 -0.35802791498127373 0.2536167011530342
Ni 1.4930209601382574 0.027208275645482928 3.886555116911542 -1.1825259343083248 1.3919721115917318 -1.5924320262161284
Ni 4.3063461240609 1.9574471632424428 10.250249763221792 -0.5556752998575397 2.673372903291099 0.9759280251069902
Ni 1.65328991627117 2.7917790849309565 3.2934931769661238 0.5366362809482177 0.41576280779889685 -0.3265601833902957
Ni 1.6706020496094673 8.241252900334132 1.5819620451637608 -1.2301977864629912 0.26883891741942734 -0.7928968474820022
Ni 5.379839522557122 6.325693572755874 11.004166825553913 -0.40666187393889325 -1.5845701069695484 -0.3912727930773326
Ni 7.207445685762334 4.2322991189672035 13.432461676141513 0.3230493420235598 0.6821679189658509 0.0387264700359204
Ni 1.8763247645235293 4.387647289374067 5.185020629015751 0.5873878004694723 0.12803990899077303 -1.4706432403413898
Ni 7.788060766363603 5.378089491687055 2.3746441730214913 -1.9159883897830936 0.8422741123635493 0.9123652127536803
Ni 3.735779607810337 0.12778612508011997 0.6470503922869861 -4.229927755994644 -0.8745743671581518 -0.4801563435836183
Ni 8.954343436045852 3.75804075317904 3.8094116862300016 -0.6387404439098353 -2.2788913734684817 1.6341988257402693
Ni 7.760323717949853 5.686527728152308 11.271786062413259 0.11524584254989831 -0.07797898777863989 0.24553726657900937
Ni 7.500773440629052 1.6351404025703136 9.685555259154071 0.4386024314012318 0.2770325089738132 -2.049171276427387
Ni 5.843447162834985 6.053206239271943 1.1226429213943732 -0.3336268604290899 -0.07552512692150863 -0.571679645705596
Ni 9.043293929839473 7.231485088305458 7.942186737791856 -0.3858883888369677 0.3943768859239531 -0.20774462121126805
Ni 5.016905701148706 8.273581427589779 12.680734034150598 -2.1955369803105413 0.09315363863654925 0.55136510251796
Ni 2.9349052655517074 9.389273151098102 9.483181124813436 -1.2678742179678422 -0.17765705779726823 0.846570168635742
Ni 3.7858907068102137 2.2664593345629336 13.41727216089078 0.6103325821911036 0.7125223628879923 -0.7012411335472181
Ni 0.8836395118910583 2.323946907767824 9.167942230752027 0.20426566152373204 0.4366607342938286 -0.05739679275191405
Ni 6.012202827810911 9.24627869323101 5.920429703581696 -0.15022801505203803 -0.6853190630003229 -0.052716099446793084
Ni 6.419837706550985 9.353604511160338 8.303336656764978 1.1818175953873906 0.10652414640618428 -0.4272209290371674
Ni 6.882391564799561 2.2763573586237427 11.784317415154426 -0.5093519913109679 1.631179065077339 1.6353964455927965
Ni 5.397979627489859 4.059253055729178 8.107104566252188 -1.0965055642824473 -1.3157607572364758 0.6152593300687598
Ni 8.889667563998321 0.04159145946844778 1.4388433915575052 1.102091800120973 0.7129098281343981 0.013954148187246935
Ni 2.9050512443112626 8.909030808786483 11.98894965384354 -0.7965300733592152 -0.054568065053867305 -0.7013198093039534
P 0.2680398087942497 3.869675786906702 13.29727461405927 -0.4449116614487112 -0.062365449611099036 -0.16317609057227384
P 5.33543013703714 0.9043670280564219 12.735995492818619 0.47412067891249954 0.9660231072884524 -1.4691291176897088
P 0.7870839108271397 9.064943505280464 8.462911245810734 -0.18702872882015534 -0.8823861498930867 1.9099815214673816
P 6.336683013918445 4.923316684672594 4.060988032570255 0.15921556326262903 0.4442308333316027 0.08453581506055119
P 1.61856215314527 1.3161267107397083 1.7593841264537655 0.33073925446864977 -2.6063635271500853 0.3904783222004953
P 8.744734899898791 2.833497562769006 6.0759698128581805 -0.36663185460020087 0.3890454464087106 -0.32908886334942034
P 7.172708513868315 3.7156542528045664 10.215781682095965 0.02707345917802434 0.5871103784383696 -0.03422292573861203
P 0.3438980017507841 6.287823281078349 2.1831352841042584 0.9782808416098828 0.4778436362900415 -0.17108737499955048
