# total energy = -340860.48179733916 ev
CRYSTAL
PRIMVEC
9.38542547142123 0.00000000000000 0.00000000000000
0.00000000000000 9.38542547142123 0.00000000000000
0.00000000000000 0.00000000000000 13.73651887077122
PRIMCOORD
 96 1
Ni 7.4842105370684076 0.9677969298218185 10.953829683199672 1.8380847353270797 0.6461614189642549 -1.1196737748687942
Ni 0.6137336267957206 0.8351320621237923 11.260826954013133 1.1374838064670216 -3.6203297379767196 -0.9935094856341793
Ni 3.4448923038908137 4.1313423310169695 4.725816125974222 -0.3383561475839592 1.129068842930449 -1.2111603102155657
Ni 7.97716124495393 8.664005459954563 2.9471287497664305 -0.24921908630597078 0.45344026774501256 -0.581666838825295
Ni 1.436054582998988 -0.019186625518922622 -0.07974889971962892 -0.9773398178528522 -1.584189583701678 0.36584586836379573
Ni 3.3066637559073024 0.31627664108717785 10.45810652059699 -1.571002652697759 0.9959669460357364 2.7214430193254486
Ni 5.987526104804517 8.641743230472155 6.245376594553634 0.45139264118736455 -1.408892027275522 0.2966217439596504
Ni 1.4669983311454868 0.9667269913053791 2.7059843175547016 -1.0781949388987173 0.737519142042646 -0.44274396437343105
Ni 7.113749018464038 6.534039436491091 5.2525149471703845 -0.7125424174926503 -0.1785787982805892 0.22132184567507046
Ni 7.220771026384732 4.514849591181434 2.5645947582349025 -2.723669594663122 0.11601383106417439 -0.4703280446392868
Ni 3.8280898450110468 1.4402592536600833 3.47202838487837 0.3023907852329437 0.24252161968113717 1.3834453050676432
Ni 0.8870287728838974 3.7801866328364238 12.858919971156643 -1.2817669167895345 0.6136235942375498 0.4884790045167007
Ni 6.881750683482748 1.2788299336358846 3.877105230117231 -0.24566247930296403 0.07155097276510904 0.23623810066527057
Ni 4.895006254412839 4.311908533804502 0.9324927129495496 0.2691266238631752 0.23473066288180866 -0.38745547621377147
Ni 3.056354455613967 4.30580800717568 12.758011629460587 2.5932555290132178 -1.377572905447266 1.032986717793195
Ni 0.049708029514195506 1.2176557296871797 4.984900799187478 -1.495308604298554 -0.03962455637015757 -0.7766973549040043
Ni 2.3147650531888475 1.5800551677159227 12.54929947389279 2.231496429124286 2.3245323112360485 0.8242555642989418
Ni 8.267499385357917 3.728031822872792 4.405645471812739 0.49134989830659254 -0.022072406419007148 0.0478950239090659
Ni 5.369448903049075 0.5770197190009148 9.81089695783253 1.3119246713198374 0.4952610604355406 -0.9321938174438333
Ni 1.3572263935290318 4.865948976808483 4.3837905698006265 -1.8911865002480657 1.0494088679049605 0.24802892265261156
Ni 4.7090434319151955 3.31442550286428 8.93129205658463 1.2062284201315872 -1.2374840357117591 -0.8234618647530527
Ni 8.229704276535973 3.215090158495901 6.636222318981292 0.9442080682958901 -0.32708160311140444 0.6321337372265953
Ni 8.623563661118268 6.340812294592359 3.5018374350719084 0.6434075103682015 -0.7590819558150862 -0.41210232822817416
Ni 9.04148727689487 1.8015136697677243 13.397062441765916 -0.06122670802096552 0.13318597196808676 0.9983465020115064
P 5.5921181250010585 3.1528929431586703 3.6299165838301772 -0.1721132451609036 0.3721658970445526 0.5543331840073485
P 4.171793515278847 -0.002458981502694187 5.378107896691769 -1.2072008113471855 1.2522591371384046 0.6321522491693564
P 1.1959003131862442 7.681482797393327 7.715143626246048 0.09658091915054334 0.5333259856280621 -0.6640323857074047
P 8.541187780778012 8.586951115919756 10.268597884314165 0.6738977085372587 -0.06243486939645376 -0.8884133299237732
P 2.6957664047227046 5.592221364682469 9.716567799470017 -0.5796343817762984 -1.1262596556164282 -1.3189833779388316
P 5.633263830756064 7.954176337701647 8.880261620605816 -0.25608933106324283 1.529827721121346 0.8134841847150506
P 3.939494846678909 2.499132353337415 10.799623386703999 0.19829735975543913 -1.96164861082437 0.7778119281244217
P 1.308628659861282 6.376889870532651 2.2700144054674882 -0.2797630205310988 0.30154797761667423 0.19518581070965094
Ni 0.5343394961631217 5.636285937793725 8.654514917605233 1.2442696911750248 -0.03219226846182843 -1.138518161268807
Ni 5.281329142252146 8.322244572782402 3.856500466792747 0.18149751458928098 -0.5787254968087838 -0.9751692925640947
Ni 4.761282710709073 6.961902217959881 0.76852088113497 -0.11569964225786525 -0.014393549717510697 0.7067301816862473
Ni 2.5850465391223865 8.570113662424209 2.084296542577556 1.6976729350345152 -1.2052040926321306 -0.4116449289757814
Ni 2.864929315427132 4.739621148463965 2.151660434698119 -1.9610981376375385 0.6981612090703136 -0.18062796750013407
Ni 5.6240661136849175 2.048359748021006 1.6634784615512186 1.6116250542048116 0.33374615961577364 1.4913354785834187
Ni 1.3917272179714129 3.6457685676395304 6.5197914219138395 -0.6936327250723409 -1.1691693104957606 -0.4084683310200127
Ni 2.4562878855519226 6.138500060729474 11.75722399017266 -0.7440389454390347 -0.04668352009946798 -1.2583187130689233
Ni 6.750007464576954 7.215186698162964 13.117468736569123 -0.14878716884045343 -1.5298683445512942 -0.4682048276486969
Ni 0.723198660995618 3.40354950419857 2.7411496301283447 2.18338954631473 -1.0315469000228752 0.12574519941932538
Ni 0.6015231881124949 7.743848950391048 11.582729219194643 1.5236871554412468 -0.4253267973382482 0.2700542778837672
Ni 3.1453939881180113 4.54303402420659 7.768440642503108 0.541863333675112 0.14036217800155182 1.335413498470397
Ni 6.573251744576039 8.910307183524042 0.6241889908949624 -1.1004411518914272 2.1970868412961644 2.1506650594985155
Ni 7.411895832952916 5.189680461436081 12.078809966512031 0.4433139779442882 -0.5564245193187385 0.18058065920196642
Ni 0.019423138243609236 3.027109469497955 8.690807419791371 2.2021411158906203 1.3761657406870944 0.8259566061504485
Ni 8.588293231778097 1.934889952724927 2.304245868195643 -1.479652642928852 -1.8254732172106563 -0.47405537289220295
Ni 8.451707133271576 6.274898450724339 10.294628362168066 -0.6054408013164412 0.7208301114227392 -0.04107363011185829
Ni 9.150789943232184 4.777660278351063 1.5002612179534962 0.19816109128789097 2.2106285845363414 -2.765279556894425
Ni 4.022302456595973 2.7061185291405354 6.093945568402795 -0.9749594905461338 -2.052310079166685 2.4632217295208676
Ni 6.755638719926635 6.5856311209197544 7.743687521071025 0.8242720193591739 -1.9697277882880788 -1.2850000790148512
Ni 5.475250805644005 1.1834927805657796 7.448160178862306 0.5152719563398287 0.5521341194735007 0.22440511258608448
Ni 1.5053284092256514 0.006297620566060303 9.179881946911197 -1.7403221371636093 -0.905342244468628 -0.3982661936760302
Ni 4.280073170227636 7.0253758511763715 7.5431209763665406 -0.6053981210039638 -0.5417484053638025 -0.08774120937172632
Ni 1.9031578288294728 2.9563809023059573 10.797934010099093 -1.0584326686701255 0.9212337188879038 -1.9235160656187065
P 7.383758327055675 4.333344845835622 8.285689278679946 -0.21743510902615457 0.9215281101998709 -0.6641971934200432
P 7.384621786209293 0.9087776195869249 6.0279003285766155 1.2874030320293892 0.19680920524568685 0.7592256804818021
P 4.7701894795871524 6.3989831623545665 5.574417212351894 0.06915624728068735 -0.6428120428760479 -1.3462882364013717
P 1.7705980778979737 2.396202390970823 4.263774440160542 1.2814434720118446 0.8681396672764016 1.3608962161225338
P 0.12343993289268991 5.909289197146277 12.733011671335678 0.49637049144963546 -1.6878839739685512 -1.887590812477007
P 9.143694561491586 0.0266527315700418 1.1351653471548144 -1.3929948964292913 0.4067757738089382 1.2437508425570774
P 2.9587835712551547 8.109308037159785 12.30786597057311 -0.03305127402801405 1.017700481058086 -1.8884397907408639
P 5.493214510209489 5.510380453600434 12.932603070322108 -1.3777526255582402 -0.8643704300419566 -0.22629255941678444
Ni 2.3151873973400736 6.102281703405439 6.4237728869464235 -1.212442519362099 0.08148442982873709 -0.8022464070177022
Ni 6.527263159220308 8.171045366643458 11.072005330882968 -0.371418991576199 -0.8496799179093173 -0.7153575183439422
Ni 4.8769393101659455 4.310707199329903 11.000094200067537 0.7207506643350555 1.4797426315394966 2.3185164440592714
Ni 5.606965868273052 4.549744603498294 6.962038306630831 -0.616113450538939 1.189264795694055 0.1040808270720143
Ni 6.997435439216369 2.7375784756940886 12.327207455614147 -0.626120955373612 0.5350874484038591 1.8696643099055736
Ni 3.521261511858076 9.408232166968448 8.079256842986211 0.06495095095008815 0.03852489554807559 -0.8482362434842553
Ni 4.723759779229029 2.29316918892282 13.42229609698784 -1.002442783568067 -0.3241747138772546 -2.338344534528792
Ni 9.117612463796979 8.189759905255567 5.990385843979597 -0.05540907289792392 -0.8215134827774303 0.019948932318101128
Ni 7.7189400308942915 8.579198754388361 8.14333771323791 0.594461419486802 1.5556161429393598 0.5805442951850776
Ni 4.736195468126243 5.179262639039171 3.176047726614002 3.3468715766177266 1.1994309375937795 0.6835743123950744
Ni 3.6329011491655083 7.466143592821513 9.934731078599699 0.46318269184375715 0.19739541676646005 0.3468323033757704
Ni 2.9061688754379653 6.622149811862439 3.790579114584261 0.5229731816388283 0.5169876534793548 0.5463002864005431
Ni 0.2051025208886522 0.8159689001688267 7.409217232491584 -0.4799856223337088 0.15083428117746925 -0.5488852735188998
Ni 2.182055135448024 1.0612194560730321 5.988229073180668 0.7481848492866081 1.2682704249649965 0.7391232533049722
Ni 2.0006911714859537 7.053081627496804 0.16376910662199112 -0.34264371921571957 -1.334973839829817 1.3550109609863503
Ni 3.7554841927024882 9.414801964876412 0.02023122338628851 1.8865736840664025 -0.11160258937035616 -0.07140699098807701
Ni 7.745219222526138 1.65697811579257 8.690710749907868 -2.24316949458684 -0.871669534806531 -0.4700719627644227
Ni 0.786405748125558 8.15096055589626 3.569187249054097 0.8859005908042485 0.15992827305893748 0.6707429649583609
Ni 5.918186580598774 6.051957051430454 9.881337392459136 0.4024401225480617 -0.7192277999326259 0.5022197511415609
Ni 2.3042346056849436 8.247133011843236 5.546998630054294 -0.21472079541878505 -0.3822834450945287 0.25080391429458737
Ni 8.349818953144675 8.954587621423704 12.802394368499101 -0.24425171499836645 0.3148261827828191 -0.40862208298905756
Ni 6.163765626398378 2.7355887654705344 5.76600002768852 1.412609585336425 -0.20410419624520335 -1.9320403010396336
Ni 8.869583821920264 7.117071459120349 0.4564864524112188 -0.3064274171961626 0.991445404016299 2.7734371530045525
Ni 7.401646948216496 3.6659660034937205 10.21940699174958 0.0973494218854517 -0.2100478154231479 0.11815864532131909
P 9.238205797110405 5.709820747234981 5.903735840828933 -0.12533999356110673 -0.35425662086429954 -0.7807632974432618
P 2.7647117410539694 2.3410724010974424 8.027140513267467 -0.5379763399158799 -0.3287240238108338 -0.5108324325112363
P 5.777133019514839 0.5871728723963903 12.048973698584302 -1.1262545134101054 0.5034379398193781 1.9954092522145828
P 9.115350576231522 2.5439665313464612 11.27358831717807 -2.2548626146540522 4.177045563283631 -0.5892773041827013
P 7.579416294180353 3.128218659301483 0.7928225635965199 -0.30504313525412624 0.42374762577658637 -0.27931770546356416
P 6.632229758938368 6.971700602268325 2.5055960959362906 -0.24282655251606566 -0.9320428936882657 0.04457341573500065
P 2.4653542066649097 3.162222056187976 0.8684475073150655 -0.2520241598549337 -1.11940509458844 -1.578824462735023
P 4.687043994349107 9.517666229263924 1.9628115938337636 0.09197633049899644 -1.2283249949203103 0.19841074540485185
