# total energy = -340862.9572359774 ev
CRYSTAL
PRIMVEC
9.32245514243533 0.00000000000000 0.00000000000000
0.00000000000000 9.32245514243533 0.00000000000000
0.00000000000000 0.00000000000000 13.64435542915663
PRIMCOORD
 96 1
Ni 2.519477388152122 3.0389339078063218 3.3252246389001026 -0.1584167215104175 0.4692219560593016 -0.024400540331551528
Ni 2.792215134046906 6.203692991861683 1.1650356018745722 -0.8930402871728232 -1.1143613615169454 -1.1054730578883802
Ni 9.14240118507562 0.9846936405483482 10.84375576335769 -0.2765617399849818 -0.028414546586951063 0.46181126541752726
Ni 3.6164040654391667 2.4222907939166447 0.9243037087691637 0.9945168438527711 -0.8482043618050554 -1.0441985273486145
Ni 2.4802671420749594 4.813239493845791 7.602198294332366 1.4276145433856897 1.9023276044665496 -1.8820593411358166
Ni 6.059213582992481 0.07412004362474914 5.535624419000192 1.39072101279345 -1.0718455996419218 -1.106618741457049
Ni 8.167123224160637 7.243202668295365 12.206568182053852 -1.1610708497583422 -1.0314970206215461 -2.4563877373181695
Ni 2.7661961619115374 1.6969851435848837 9.91055004223021 -1.3150495901020642 0.10246540295577837 2.1096245966174374
Ni 0.5524654686104568 7.775850461891359 10.53558429793968 -0.5979064406126089 0.44609282624100594 -0.5181981288476882
Ni 5.599486033052114 7.661184264376119 11.379474373657871 -0.5114235291280159 -1.1438678556164945 0.16642005143086822
Ni 5.1408492103564045 4.868708101586903 3.155761982655202 -0.6777543632791876 0.47916158377051676 1.610562417268252
Ni 3.55034514872429 0.8660970959703099 8.120738416651951 1.5596630593152234 -0.24342613377327757 -2.0977856950009808
Ni 6.366668151614643 6.876625089539735 9.22014579923646 0.19967418549830773 0.8121778071988013 -0.9369038213249928
Ni 5.844797116094067 3.2092178723439937 1.6914634534394954 0.4519068618196217 -1.1172715931852049 0.04337065367615111
Ni 6.702966396262185 4.651690669720458 9.978035294572715 0.7422851959727217 -0.39210197384684725 -0.47425823293162844
Ni 4.394857032196487 1.4225600333201598 3.1491309203549918 0.5020444019059611 -0.35455075506595063 0.21092918958683674
Ni 3.7088175626723836 2.915430022872835 6.483675217601109 0.16366382884196973 1.1238569597122063 0.3940256732321214
Ni 1.132836774264988 2.868146530694193 1.0793818168217049 2.358234331474184 -3.3768997475487 -0.24185930350678989
Ni 0.40287828660153147 5.082490641539705 3.6247597819296473 0.7104937624937377 -0.9971864202651343 2.065176393606392
Ni 6.921885608965467 -0.009647808764920433 12.233092431254695 0.30442941292952735 1.5678862185559643 0.47592687888330293
Ni 0.2659267602114806 4.1527435512478466 10.374158530221438 -0.8524327980641062 0.3327004919600786 -0.6167168884508928
Ni 6.663597668448619 4.7217209523004975 12.553789547321605 -1.1559692668657189 0.03851975334175301 -0.7064892693200349
Ni 8.159926288836916 5.638761536314854 7.875071215825846 1.7416318571139682 -0.406125541819449 0.7162772019447342
Ni 0.4640065568232531 3.2653483743959657 12.567515930185136 0.5449270602021002 -0.15907518103002283 -0.6615561562527704
P 8.374072404537937 6.134669534430559 10.050009309037463 0.40200740588601735 0.9215005993960451 0.3676440979147991
P 9.248742430202151 4.251748024224419 1.6566841702630641 -2.4143674270223254 1.360167308376309 0.9078513840437269
P 5.842242763401451 0.3729336286309054 10.314204889340116 0.8362430756781212 0.1686967632801869 -0.5420551379709438
P 6.134865305987293 6.579937956537907 -0.3142599608324164 0.5265986942065576 0.8525235580056996 0.7544902226793457
P 8.455243020941612 2.887527914810793 8.813408016230758 -2.779836114552361 -0.05980205975929701 2.0298466079568462
P 9.044869660002089 9.186365883244877 12.916401353685123 0.7159604420352637 0.6579273012509315 -0.7256463018644599
P 2.0810236807101106 2.5384485842450903 7.9868595714571065 0.9014979310218733 -0.8349649802966459 -0.11736031778973982
P 8.044672776651476 7.6855904517822085 3.007843520106052 0.989384150611896 -1.159740303872377 -0.1585092812242238
Ni 5.736843086238256 3.1372951313821993 5.037563866005929 0.3055853809108415 -0.1117368009553753 0.20642538817921222
Ni 3.9892370115551805 6.172891600268971 12.509322368823398 1.2247766154474198 0.786692004222871 0.061168858199836584
Ni 5.009747524530647 3.446781995212355 11.379228260843693 -0.5360881217542315 -0.7349932902969987 -0.1066411316000228
Ni 2.954677558770327 7.984356492267445 7.320565061797821 -0.26145008115452395 1.9668003302286385 2.196195954050779
Ni 0.15976450622253396 1.1098569224865276 8.37386824277163 1.2386801129023892 0.02596171417108432 0.684687342953595
Ni 7.753178251130623 3.0420848976242203 0.1834687127609079 0.846078316600988 1.0389012835054172 0.3612466790288875
Ni 0.5682446560831635 3.897932886476786 7.737591106232617 -2.351808887563814 0.3472382805649375 -0.8547910138836374
Ni 8.528191231962484 5.433546332582905 0.008448008795797561 0.31773538600981405 -0.37572044716503034 -0.0862052323431741
Ni 2.6490129015240127 4.381516598973373 10.898633327446568 -0.31885330166434117 1.1543049917894186 -1.0331790363096596
Ni 8.829026857476045 8.945007521157923 5.271387819895176 0.08464508694490584 -0.5957521132737675 -0.3129143104720869
Ni 1.1034803632100703 7.438172493891602 12.880653467425615 1.1426980036781094 -0.8546863699849733 1.273474337763439
Ni 0.14846941964452876 6.321566113925316 1.9110557473997367 -0.3226600770049411 2.7684546121882962 -1.200201754321533
Ni 4.089984783632189 7.756152114301953 2.111682438740059 0.6146718329964059 0.9088782826463443 1.3153257265815863
Ni 1.6723831846220611 0.6531582382024773 6.607428944330809 -0.4652236335331859 1.2724055301792925 -1.418307664162467
Ni 7.961395285399149 1.3855592090975595 6.532207918760812 -0.2371654975755464 0.5792883112907894 0.5304802886491509
Ni 6.036578662052075 9.303334727165504 8.07681753402158 0.2432764955692907 -1.0330689930943562 0.31666966374946104
Ni 1.5315302107799675 4.145108460535246 5.398934853597961 0.5170776420899998 -0.2879183026483816 0.5077054568464805
Ni 7.789330731940711 7.982380131789946 0.6830665385982815 -0.8705372209743008 -0.5657774212885481 1.277374958369426
Ni 8.772570069496185 0.49123651587384365 3.1740862003654424 0.48278349679382015 -0.491003056490135 0.2017009861203494
Ni 4.379568205861122 8.354607118325594 9.425057090932718 -0.721131444713242 -0.24708455646147123 -0.5801804840877556
Ni 6.2631609328332045 8.731989422521888 2.957536755744142 -0.7815220299861573 0.9221135503896958 0.28759974296669827
Ni 3.308791015080601 4.128318718931592 13.027630362011427 -1.1336459207781702 -0.5508642516221417 2.3246032736832993
Ni 8.531248997229559 2.8422207831096498 3.1663634785750663 -0.7615643559173078 0.0647735448319594 -0.2561870329833717
Ni 2.1234035615153366 0.7981466531191856 4.129586572822817 -0.9588664416390132 -0.32963856520530327 -1.0324560421007059
P 3.3219543216571474 8.238178976799755 13.247045529325103 0.15603819397591193 -0.27524687782830015 0.920008588231551
P 3.678211942636406 4.193995414988085 1.8288894927932475 -0.5652876261363232 2.1543972728474383 -0.8681977742078467
P 5.586462563301806 1.6103702134130065 6.942493828170929 -0.4554169318554092 3.0958352345973585 -0.5769815175344837
P 3.9819282067704695 8.358783578202573 4.494955029154242 0.5511216190485864 -1.06103308240745 -1.7603541161138196
P 0.9944076387443547 5.363823691020591 12.348565021134572 0.9958874989480526 -0.6094949167811567 -0.668971474880235
P 2.6288950434558918 2.4073841882396634 11.883292474911112 -0.07979855748588192 -0.5711374000488809 1.1598308067036542
P 6.121254521566784 1.9214046047868643 12.93394807864148 -0.7329320368925958 0.5835931093137303 0.41889826810408504
P 0.27369702652277755 6.539254762557703 5.745952057099405 -0.435469799309521 -0.8983362454644399 0.0211645498927571
Ni 7.475667408233578 7.4741198806898765 6.759632007235894 -1.343497303919796 0.7978266806834517 -1.3320216991800287
Ni 0.4066380327363197 8.13883889544021 7.24216414679917 0.6966108338640583 -1.2041172873258554 0.858404956487141
Ni 8.117676922402847 8.636462225291103 8.773770801710814 0.13790086094525283 -0.6309659421707391 1.5341942256201577
Ni 7.473868174402648 4.9231046269935215 4.031933855833214 -1.831989678172935 0.7414557580928908 -0.34731644210104057
Ni 4.239694089802695 0.45785187197776034 11.843450166379354 0.7880410620515976 0.7820359935080983 0.548190047224088
Ni 5.850064303215701 6.7404519881490765 4.612460846487623 -0.3734632756997375 0.7259052119528014 0.19794151907791718
Ni 2.8517017199285926 0.5191796427382483 1.5246744773122676 -1.5192602300181448 -2.067234304576685 0.2837729130214403
Ni 6.817977524615477 5.986731494725735 2.0538440629169656 0.254698107142671 1.119197092342692 -1.312078166178566
Ni 5.002149723638377 5.261733485411697 7.8202626379045785 0.03456333979716628 1.5928377462949794 -1.3570447035869273
Ni 7.53187248992621 2.994167478499966 11.267822125870817 0.43516460936427637 -2.120527616683187 -0.010321179420349966
Ni 8.474465923321809 3.650915794154729 5.513342819107413 0.501086408868066 -0.8088762536293941 1.2798540160375378
Ni 5.880604666066102 2.3196132736375517 9.14773549387385 0.016358900973997635 -0.9313109006182477 0.6074871423225087
Ni 1.8152311638518184 7.845451911537602 5.046365195849355 -0.8889756301851464 1.3853774890933495 -0.2215740708951926
Ni 6.775290002792528 3.731638932714441 7.433185912667953 0.40696346433971203 -2.2533929720870614 0.232563994247793
Ni 7.566785084210322 0.9976704980232436 1.2345867102633687 -0.5217313388119272 0.2999065853585093 -0.08937154588629768
Ni 2.935091080641911 7.513591155509349 10.947248066210998 -0.6500496982750675 -0.42082916657821073 -0.15981822984363442
Ni 3.8045684988251502 3.706906459380463 8.892899658474066 1.173874943501546 -1.794238684676407 1.693762287126199
Ni 1.920229975446464 0.17523605267751702 11.947829966956517 -0.7500987784798695 1.1755227635176142 0.2771782905230581
Ni 2.6395039973398218 6.094676202126463 3.580469730078009 0.9101075270677552 -1.0601388527279547 0.1841362377637087
Ni 1.538773758379101 5.906082935806683 9.297755237798604 -0.780623686541604 1.0909828346920052 0.2606103588620479
Ni 5.284778594375736 0.15830181302008348 0.8375461450345236 -0.4248951091174682 0.6331619213807935 -1.0810583764894415
Ni 3.33664651086723 6.515007056888017 5.962405480433355 2.081001533564106 -4.364068378566516 -2.1473087414317726
Ni 1.610985495448454 7.904714758497306 2.6272207305230677 -0.3053794355476224 1.983992011516577 -0.3962918435584788
Ni 3.848887450287544 0.8082195658358698 5.654548181751627 0.09000506570523854 -0.3300136891565349 -0.294429364294022
P 4.769330730407028 5.520282454670856 10.0009163283273 -1.47295106253896 0.22108453285328378 1.4255895425358611
P 3.626919794772272 4.385515932203782 4.774514947678428 0.3583716714739376 0.13422289787303335 0.4132616386435979
P 0.4699263158006659 1.9424174185429086 4.954060771340603 -0.522404710729868 -0.15501052404234594 0.01548241190631527
P 1.7663069195786496 8.59687908101064 8.966074405153446 0.2946383949810345 0.39805124945174675 0.797273379283143
P 6.768391386031449 5.3719994841279775 6.169308980780752 -0.24491865915840402 0.49162449212421777 -1.6791388807860694
P 6.503820110788969 1.6101464744910257 3.654490955678883 1.1245452440284827 -0.14676473909378593 -1.0669587038632657
P 0.6404610543800581 0.612913199611153 1.3355750016815058 0.12089584174682404 0.2515060825679346 0.024142144463842292
P 5.111157190918514 7.510598647427854 6.940419581915064 0.8041078857064733 -0.5092375772202908 0.6544156885532472
