# total energy = -340857.3913758473 ev
CRYSTAL
PRIMVEC
9.37836021970766 0.00000000000000 0.00000000000000

0.00000000000000 9.37836021970766 0.00000000000000

0.00000000000000 0.00000000000000 13.72617816071687

PRIMCOORD
 96 1
Ni 3.428737797546689 2.6943559387041507 3.323245314988644 0.10599604181685617 0.31991542438026843 0.5261515793668099
Ni 4.991847816919453 7.086363849466108 4.511492906453008 -1.1953727083640058 0.8863605611598026 0.561444084020517
Ni 9.114874984271419 6.506996903207641 8.262595886087306 1.0355241395030683 0.34886501753508303 0.05643957104496731
Ni 9.381830001919528 0.16797861962412033 11.687827114826735 -1.6752310610912309 1.0909275559740375 -0.06899966709816505
Ni 0.13037420949717055 5.8828576662675625 5.404696354207156 0.6009051182296168 2.829245004002792 2.3736419242785054
Ni 5.388693120688283 2.526098781787771 11.467590397562047 1.4445753396097445 -0.1626562135130618 1.9440776918201421
Ni 4.9799560564284 0.1468285421324633 4.373146153112428 -0.2305351367432223 0.744403270756989 -0.41015368914223554
Ni 8.758816168180495 4.121564143190605 9.052784613997712 0.03857477494940453 0.20373087206618462 -0.7149759666348073
Ni 0.8781258583681354 2.5737596073520677 4.793716832031309 -0.754458855220778 1.331302818736133 0.051444946043853336
Ni 4.290308974827439 4.391079453121096 1.3145825413057806 -0.4982551100668581 -0.4499931897366766 1.8296036944392622
Ni 7.789684579959778 0.4532899013172903 4.419596232399599 -0.18182353047013203 -0.9536753843563769 1.0437961497038735
Ni 1.0188275179069042 6.366752907637297 13.428525759324552 -0.4569585653109163 3.544471138975193 -1.478143919593809
Ni 4.389850887959954 6.227943801148288 0.0975265035666417 -0.6164330386618867 1.5027000116666185 0.04336139770477048
Ni 3.3242441103295723 4.614321934768578 7.968787810226239 -1.521326368518554 0.15701804139067796 -1.3248979436510537
Ni 4.416794916264995 8.262035060158784 9.134922166626051 1.0671224831346398 0.12416242831323777 -0.16305370606179662
Ni 7.239896981168803 2.7608860246059836 1.0445786188188375 -0.7909559217055475 -0.17701016824188873 -0.6487484629651408
Ni 1.4875204377025102 9.093173459211249 9.871949660827047 0.6999108447715687 0.4739862102171644 -0.3963409516288594
Ni 1.1744707806115602 6.739927230744128 10.140735334348859 -1.1143970998508872 -0.007573441471883732 2.7539127098183793
Ni 9.486773850417064 4.379047017229912 13.40298098233281 -0.4834332145626771 -2.396654326013279 -0.01599971786236599
Ni 1.8955541249617391 1.931520135595166 6.802309268014106 0.3118264767245468 -0.17650366091911537 0.7005831882482451
Ni 2.3640032073971184 0.6732199462096946 4.924320811348692 0.9103620662807225 -1.2394581287189943 -0.4315874335359793
Ni 7.383610969942371 9.359078100538383 7.086372289990116 1.6312155747422294 -1.658555657318079 -0.9820089411937474
Ni 6.811418469090572 0.536044550034203 10.521870009431089 2.372990920958068 0.4910537072224124 1.1963340438360106
Ni 4.947722633078443 0.19601710254217944 13.520504962946038 -1.588726038119451 1.340869893599278 0.016001003413946637
P 7.4378178907927515 3.9595342173200145 7.157679712480389 4.237652121222096 -0.8518159904157137 0.2325349407820705
P 4.614809609489031 4.129282533477779 12.788679645041874 1.9270521037964232 -1.5358276474585226 0.6232145803600945
P 7.148448592723811 4.851519416109031 1.3038086813277676 -0.41777238202975797 0.9860735981814245 -0.10021414502775644
P 0.16947540588151144 2.1796152712657473 9.538939102293547 0.8071700695715647 -1.0919441701640098 -1.480730963594695
P 1.6244726289097946 5.939849960040531 7.169635245819501 -0.6078188146303145 -0.8610231108362784 -0.8199098857357364
P 3.6484915292709297 2.501499343484908 8.317020384889888 0.37673500447247377 -0.9088132337363638 -2.0943514725084516
P 7.2466494003750785 4.607963406682669 10.432691184108206 -1.746589715339876 1.0622235031711253 0.5154210803231833
P 3.4346180292721544 0.746968555810237 11.440481310120852 0.760129166132678 -0.09081830563515327 0.22326045745868003
Ni 5.539478392908424 4.178678355643688 6.977619889493042 -4.222541747943218 -0.11196280092325234 -1.012010115541528
Ni 7.882858586646375 6.04528148325852 2.9771800793230088 1.5449177826852492 -0.06869062049817848 0.23499317251457594
Ni 5.6568110549774735 1.2681137052985925 7.217608370772088 -1.3765796882960615 0.5960706729554509 1.078548208473078
Ni 5.975628403473784 3.415908201054765 3.9118921484757356 -1.6544637466368926 -1.366477052644421 -1.0103406982589052
Ni 5.565578368812681 5.722337656358374 2.905872656832735 0.6164559214800223 -3.3050888362539856 -1.792633802083132
Ni 4.1990762886626465 2.214465257058137 5.773999290302389 -0.6291823679077551 0.8457337887773758 -0.4207587183515915
Ni 8.240643020978903 7.57605491732123 12.451468519060468 0.2366037115348054 -1.0845687036355451 -1.9684635768636745
Ni 1.459994951076928 4.349130048802107 10.380092651999318 0.05396642691412641 -1.0437691531206799 -0.7382840452331285
Ni 2.660584464312763 8.39684898528408 0.805567362652699 0.019448595642914894 -0.6495838143822426 0.8216764907178559
Ni 6.913820782025746 5.563093103410372 8.488858199657594 1.9663974383632652 -1.4400031468580297 2.5801645001572147
Ni 8.505009611264606 2.9612453078321987 11.200464693761777 0.20435667857564163 -1.0575754628761527 0.5674956895312355
Ni 5.591359480476642 7.769746186581248 2.0532990781443483 -0.4771440391198557 0.1601661001013564 -0.530760281783415
Ni 6.595303541049714 7.648999801469025 9.933662083192402 1.9872287732863192 -0.9494472052076423 -0.9370902263041861
Ni 0.9778534630288228 3.731527528788104 1.9589593413086683 0.810609691380733 1.2132231062818655 1.3464430168116812
Ni 7.192048588404333 4.438618360005278 12.569747457654397 -0.6485767132739669 -0.3147135684643548 1.483482301087587
Ni 7.494603860645529 -0.14561779585533802 0.3031920628857885 -0.6369648400666514 3.161324317439104 -0.8587996208223984
Ni 4.817776076797669 1.1518407979105276 9.736609609705262 -1.8341717734259184 0.46607029780419734 -1.499744271472404
Ni 4.0958861934867405 3.8015744996932055 9.94758050728134 0.3467446287579706 0.4550209819685712 1.2125438208266537
Ni 1.0751914615592892 3.910494772834437 7.5510859716340235 -0.4653383047341792 0.053809846731604105 -0.5365552911986372
Ni 2.405840071396002 3.0266218554529605 0.016535924367368584 1.0059340845507772 1.724585957375275 0.2982999029930217
Ni 4.242301149942819 6.583646239558879 6.5926832272632785 -0.17783600657729373 -3.490274855438447 0.6327711137002779
Ni 5.529574844739219 5.984190846161742 11.778048813782586 0.0911962577998623 0.5257880253798042 -1.3547163125640669
Ni 6.709269371875634 5.2706758383385965 4.892572249211185 0.8857380970844551 0.30102167279955905 1.2469048148050266
Ni 1.8011703098340184 0.6798204359838291 13.001545909175713 2.1542028974484446 0.03781964195093487 1.9877242248654994
P 8.696149966602253 8.63961721246971 9.84109298072637 -0.5030761856045851 -1.0602075011823613 -0.5883607059057028
P 0.9869879856773125 2.3789241781709864 12.377484512623708 -2.1851096143296305 2.340612761737679 -1.5992847874719038
P 2.4597656414461206 1.7248961078831286 1.6791784785126382 -0.6403584391292326 -0.8878304608371096 0.44976179045216086
P 0.03846440573974905 5.54447705879307 11.482386636147798 -0.9574119685806736 0.011276601355083805 1.2943781777956418
P 7.9324138409324325 1.4325632480514328 2.599023971379548 -0.5223134365676425 -0.24786000117491505 -0.5235272543700854
P 6.010253308625964 7.905798055227696 7.712519433808062 -0.7954764352837203 -0.6176172887779751 0.03708893443249742
P 3.4938892645272412 8.373778219662638 2.948575143460423 0.10485987132988393 1.2055010550472596 0.8423198779998202
P 4.033548234508803 4.5788154637755785 5.0019426836328345 0.8977631465697893 -0.1933940089165508 -0.6554323027432195
Ni 2.540006889680697 8.162746362746503 11.9159969868228 0.40480528034612856 -1.4870479069516582 -0.4340058131694847
Ni 3.1462428373641367 0.23994252731500398 7.900513349362783 -1.4476969159578614 1.4356600393979855 0.5013232074692204
Ni 9.750774684662426 8.851389959826534 7.715375144430715 0.10246951672083641 0.45258151928914314 -0.30376761097581234
Ni 5.612160682975975 0.6015383271550733 2.2265642793053817 1.0252898633695697 2.154315254656593 -0.7522351080965819
Ni 0.6985921613772756 0.9089581547327911 3.2111016995124166 0.45681818307831 -0.16324371058541565 -0.07616661716024947
Ni 4.8461362374640276 2.3577384629112963 0.6060493183192658 -0.07386496561026633 -0.49592697615431364 -0.47267777581838594
Ni 1.1400990911796147 7.752002329444757 3.8131183230279344 0.6342551544449722 0.9892705078521671 0.48448556708659146
Ni 2.12764977845745 7.679169985617066 6.02620402332879 -0.6158997918662361 0.5236534955353046 0.19653384009711314
Ni 4.29358202247048 8.65336588824249 6.297391494848833 0.8872797305399623 2.128073804461561 0.11592178557100037
Ni 7.576898969722015 7.06808542580912 0.8152983489977431 -0.06015147267891576 -2.9760097430965775 0.7051736358324048
Ni 7.178796965712016 2.411392060521162 5.719560723959794 -0.5052837347788652 0.06370525146844512 -0.7374142410336655
Ni 8.62494945741608 1.8362735113466435 7.475304133583592 1.6982522045767527 1.1608055119120975 1.025632077200337
Ni 0.792227583376301 6.262746895140634 2.14560746220214 0.037815785296192936 -0.46967678420853304 -0.24927642190646745
Ni 2.2905425134488437 2.055623973590509 9.95250883546592 0.2227171833607003 -0.3310400735385202 0.3198051240546492
Ni 2.9161353961902736 4.975435686904199 12.115808573824504 -1.2761883942604924 1.6935067194719675 -0.5986289206009303
Ni 5.031471387956279 8.50899541426831 11.342448375113738 -0.8891388952358881 -0.22998337800481036 1.2923899437210193
Ni 8.774581191355148 8.638960727269101 2.1452914114698465 0.42360647221303177 -0.4581723831133593 0.49032325681429106
Ni 3.347089795310805 6.262981354140852 2.8999155225551982 -1.4742422705465579 -0.5891554338928563 -0.9885045762204202
Ni 4.918171420690978 5.936811371397707 8.735820429439123 -2.3570919903396246 1.386335739241561 2.0113804308318586
Ni 1.8217182966131158 4.788562485370518 4.058761955392237 1.348665992604929 -0.20902245948242712 0.21447911172162415
Ni 7.404656009801931 6.519713959379461 6.70057094296755 -0.04375503359876336 2.014551886581305 -2.6073983961725027
Ni 6.7943873673147435 2.5265301863481717 8.992321389185516 -0.3374629463457285 0.7144684308707696 0.5187005224054034
Ni 2.5103150018931015 7.164494966698724 8.600603234833452 1.1923421490677981 0.6592449916210905 -2.164679885720368
Ni 0.05545705623954211 1.903788325049392 1.1268118307192656 0.7394580109365716 -1.4598795740669828 -1.862241020858309
P 7.41525355661178 1.7624564397180376 12.698540475654099 -0.9837763175068154 -0.27209470535256364 -0.10814239873589764
P 9.0593363362998 4.486907535690158 4.126898554363564 -0.7779898484631826 -2.6137618764966857 -2.2638910434049078
P 6.922608305353913 7.73452106638851 4.0462990527766545 0.6511246765068012 0.4147019706345503 -0.1841480648382506
P 2.4062527192363854 5.393626138052868 0.7995605230671162 0.14667835002756674 -1.1742264133036937 1.6105307926993682
P 5.819853843729006 7.784507725234967 13.369819101341989 1.7160365251433671 -1.6912528904407842 -0.5317090188499294
P 0.40178957516542557 8.610534918082683 0.02861337638659344 -0.46409826167949103 -1.1036226349432023 0.7131980487987782
P 0.3311883431838084 9.198933225029542 5.4802859358774105 0.6460886567447905 0.05845145926867353 -0.19812895249837492
P 3.69319817143248 6.599495667973611 10.50022381669497 -0.6745978199280769 -0.209156156846814 0.6841980620220024
