# total energy = -381168.0521580744 ev
CRYSTAL
PRIMVEC
9.22339465940728 0.00000000000000 0.00000000000000
0.00000000000000 9.22339465940728 0.00000000000000
0.00000000000000 0.00000000000000 13.49937039906029
PRIMCOORD
 96 1
Ni 4.602446283453061 8.324104490347846 10.918047742544108 -0.15871188415333312 0.3795220802993077 0.3554280154645814
Ni 4.7518007137762 6.083585120817433 11.26761440154781 0.35547043866674266 -0.5275001229749045 0.17646843680580576
Ni 2.5846257788736886 5.957362964393536 1.4292996698112217 -1.1737831551186884 -0.8451565761176671 -1.615525160590166
Ni 6.646424335392182 5.528336760078041 2.835825855776901 -0.3740299468364849 -0.46516938325648277 0.09243398686170533
Ni 3.274489585210944 9.087718560679656 3.92776326244705 1.9405051439775354 -1.0283505045727643 1.0781208911276723
Ni 3.7068915519854198 6.413911778483888 5.894662327245589 -3.6523489711957935 2.270927381426399 -0.1863594706672726
Ni 4.700241937421828 6.2462212395037735 1.11332922599013 2.0771441074912294 1.3120653106627598 -0.9489453258705592
Ni 9.10320464037536 2.864408233602404 3.849642031705745 0.33328798903243245 -2.953503334463946 -0.25494467593583836
Ni 1.6767024751178163 7.999874496575887 11.08978642945659 1.6861474508934187 -0.04427902442303342 1.6229294234740372
Ni 5.730605805775962 8.334849745169462 13.277642982287439 -0.41167192555897486 -2.5973744362775975 0.26855481052010527
Ni 6.409539889397667 7.51677152915383 9.600103961584693 -0.3409614464172902 1.1951701054348964 -1.199933845372127
Ni 4.786056401679623 2.53814909299718 4.682283987947415 -0.01649928320660384 -0.15264793734744034 1.5256607342278499
Ni 8.412759760172214 2.546173446383281 13.322866208824669 0.026231165782387083 -1.093197840065453 -0.054839316437382976
Ni 8.363303917808683 3.952897935334939 1.6666185376959497 -0.7824995634080781 0.12748815025236107 0.8651085937595618
Ni 7.782442189996645 7.413072902579196 3.9837861618346095 -0.23421412825670632 0.2585100246895935 -0.9934971443390052
Ni 1.4489307430836091 8.300188227899385 0.4133335205785848 1.039932810093725 0.3391665593003966 0.12116323647559776
Ni 0.8995051114162235 3.655351222420441 5.943489134090809 -2.5069613365006633 -0.444311308860551 -0.17254930425705767
Ni 2.203146174219515 3.7762975970778436 2.1148921220644508 0.5876027446937557 -3.482051953308022 -2.38615111248911
Ni 2.9881308500635044 8.82733290499803 8.798039403441415 0.6258299064957544 -0.011026433017490686 -0.0562577940514644
Ni 5.798711352216157 5.26392970430867 9.476463433336393 0.7472790496428872 -0.7554646707774731 -1.565808510091329
Ni 4.392872309155378 0.5180983715801538 6.135855020902919 -0.5218706926032689 -0.33924523505713183 0.8376235009654156
Ni 8.955593431649891 7.0248141028229725 6.179863526358599 0.7615391591063271 -0.5048175937757242 -1.1033195018804869
Ni 4.657712864475493 4.94604540608802 4.361741507375186 0.5897321323319328 -0.3880280608877898 0.0656502910099579
Ni 7.950999728078246 4.079802622966389 9.587090674007166 -0.9431613721989306 -0.5142360588761467 0.30439778836064346
P 4.589478190509546 7.197217796493083 7.926857492459718 0.1540856982352314 -0.09001509300756756 0.3950937094853196
Ni 7.150667323459002 0.5724038748751935 3.285638824720276 2.0640109125433805 1.4034682851567895 0.44822015699665385
P 6.720534311779906 0.3845251695830131 10.361616942604602 -0.2047037775024152 -1.1199545393340067 0.37366819262169193
Ni 1.6713344594043558 2.800416321196924 9.23791600927807 -0.2970606312692819 1.4456472325176846 0.9727987354493891
P 0.44407140574469933 4.381555203862567 8.45539859151544 0.509513970810129 1.041098291156736 -1.4082410239550844
P 9.165748479813464 1.4205780277860527 5.959431771823999 -0.029388480464446157 1.7532388452252772 0.46683751498752507
P 7.180689473196655 7.1552882442020325 1.5238228633416109 0.33433854178413386 1.4262158632659503 0.05790355718500351
Ni 4.507214733209967 1.2725148727204472 10.170736022338657 -0.33577630267192493 1.559025939951857 0.006518260734492001
Ni 0.7003960007413806 0.9030902449348183 12.02511797289308 -0.8152785576113121 -1.164283186048053 1.1928990500125327
Ni 4.927847648351495 5.019989361371204 6.810810132052481 2.5827924246983645 -0.24298827490491054 2.0033837857796275
Ni 7.371761317732822 0.13394121544553775 6.08766278361283 -1.1642039960706854 0.08306000184597309 -1.26495087367346
Ni 8.775202278172467 1.8262782669136752 9.58035482886019 1.02153091054777 -1.3498597558027141 0.6403383845245746
Ni 1.8925668045986257 1.5210484662168533 0.827714818794711 -0.18225393313933128 0.7391705616031399 -0.8111077140630741
Ni 6.093933769667093 0.9304652803945278 1.0504976166374906 0.8681815762579307 1.7487926365284654 0.2779537352365019
Ni 4.931592346598342 3.5680702384058756 11.070550117477218 -0.05351365564742397 0.15418699969978608 -0.19174233224574075
Ni 0.44472165507081446 3.0469761082282436 11.503029560767146 -0.6396148760949888 2.135084688561755 -1.5122781422733567
Ni 5.324610418018046 7.383133763393813 4.812350455280883 2.1887412975449467 0.6770131142377889 0.19735402200556335
Ni 6.121244241363926 3.0094092216287165 13.445170267181421 -0.5083772861025244 1.6625218410546787 0.051547533059988646
Ni 3.505932228334425 7.313561697196849 12.775493704816762 -1.1298717984477187 -0.17487383862517625 0.6718169147488301
Ni 0.26109954643114613 5.572489150490989 10.921841324782847 -0.35443556964432504 0.34285249279241603 0.3712246161772058
Ni 1.7880841894747748 7.6076680838894895 2.678760667487348 -1.490654393355994 1.1501932836138902 1.7053854731874243
Ni 7.64018977358994 0.04861466876719578 12.45642235569865 -1.1739441061765847 2.455448770443668 -0.9055085948431632
Ni 2.8867288487683402 6.72434357378963 9.750190729446746 1.424469569998805 -0.8922666422315925 -1.6421124241603913
Ni 8.86714107650885 4.981454018328527 4.01517152930843 -1.5122539739036407 2.028854419246906 0.34591981886383005
Ni 1.0564384051616145 7.429711906611985 8.002723603197689 0.4163454197752443 1.3298457745746324 1.1578479719456705
Ni 1.625116028579354 0.9519281198536733 3.0427988327701225 -1.3428265031050164 1.244273804940083 -0.2821760008479656
Ni 1.1634666772217457 0.631132918266755 7.701823263971482 -1.767764549645278 1.047436831780254 1.3722149835694626
Ni 2.4448360088509937 4.947133766662226 11.111763934339809 0.03492380846037856 -0.5664453938898503 0.3648842757814748
Ni 6.651810797895036 5.611199738032903 0.13840257146031587 0.6657252000287954 -0.9369416165414638 -0.526329499705571
Ni 1.1937286352215122 4.010193663190638 0.06775782446012946 -0.13747122960700195 0.5865516777214221 -0.5300879383067387
Ni 8.93132668020296 8.87970334008571 2.064499182799737 -0.25042210547513644 -0.5069701213423526 -0.9494346068021521
Ni 7.277313756038945 6.533105708148923 11.477489058512605 -0.6847169106399498 0.3971426215945483 -0.43322059826402803
P 5.5345809982876855 0.3409593870727732 4.486016605178616 -0.2916708277122783 -0.049367751799850465 -0.6209332405250855
Ni 8.388520678909373 6.3229229898012616 8.817127218766169 0.3536747802189006 -0.3154134227448568 0.3925274914200401
P 2.8591693454146974 2.913891746150026 3.9576378378695565 -1.6301382825176507 0.3645873133663463 0.8431115206631803
Ni 7.172914151467364 2.3676915356080657 11.222633750291102 -0.7953404239264883 -0.24217092120993777 0.19092677832298088
P 7.478060941611917 4.486665009825791 11.757114715531477 0.4324351262482552 -0.8010246187954592 0.9904503870928812
P 6.1462304175972 2.8135043182714954 9.065691249465074 -1.1600570637818473 0.6603045432338565 0.4014345641016828
P 1.4121570684279952 6.796664211606202 4.821002921845827 0.5411007444774746 1.1163187423536323 0.6875435814554676
Ni 5.541968937439716 8.474657961981551 2.3950988529492134 0.07813942461590413 -2.0926002941452992 0.8238876394365616
Ni 3.9174155359368585 6.872010122883279 3.06611188520542 -0.2939261994053583 -0.1561451518674214 1.2881854187213684
Ni 7.729712042515796 2.3217682534133575 7.551561251610191 0.06710065030323928 0.7589821970124284 -0.9838776189713702
Ni 6.988031204772661 3.059178659411935 5.214995906084969 1.313163685933261 0.5271082868531244 2.2871117044957447
Ni 3.8110513482948876 4.7649624980083445 12.958342892980848 0.19007574317659523 -0.9158454579927969 1.5123038533049695
Ni 3.594522934395918 4.494034502188429 9.055499398325257 -0.42706897684033546 -0.4717187543392263 -0.6962174550803816
Ni 3.065072408623106 0.5341812049127331 12.432934058764117 -3.1048793470774982 -2.8568391115709764 -0.418418243143873
Ni 2.6506745082965253 2.702639114017551 12.057286406576647 0.788131564882875 0.3951129927590292 -0.35863803776144687
Ni 2.2144817263017194 1.5891171190782605 5.813395918912721 -0.002786818716517781 1.534192940068577 -1.6671613967092191
Ni 0.12065399304551835 8.992689925119889 4.696120924671356 1.1681925484047881 -0.18581182569391871 -0.9429960502656598
Ni 2.9755593630919464 3.7012929514045423 6.583305878464477 2.174645995794145 -0.27692452264103923 -0.26496323651410497
Ni 2.2561714703306572 8.628144473128797 6.153080632838415 0.029318289348143053 -3.045071888001562 -0.4492383138485231
Ni 3.3139841613020753 1.898774149229483 8.154214171732576 0.7216623775160474 -0.5285391057623801 -1.0161963857087337
Ni 5.227580305809103 0.4335198422117116 8.211963690607352 1.6273689473026296 -1.3389837323201585 -0.14593118744889705
Ni 1.8150810657519207 5.102354276012447 3.6021045648365786 1.2456195203346998 1.9063688644154588 3.062150440750404
Ni 9.205851799954575 6.082930259793969 1.5254157436057252 -0.18991144968458903 1.0167941671937326 0.4187077493598337
Ni 3.649937089733497 9.082728704148758 1.2697100383931905 -0.5785905138928165 -0.5558177389726751 -0.3856485049120197
Ni 9.12936218773511 8.327793848226513 9.953126626581238 -2.078964705639736 0.49844871413490277 -0.2860938478451331
Ni 1.7398827287899896 5.555896263431683 7.013922196025677 -0.31356094291715025 0.08162326939944652 0.3134673547620795
Ni 9.022933436330261 7.670876007745753 12.51023071801954 0.5069770633208881 -1.7119492424478708 -0.10017532137002103
Ni 7.678116372582637 0.17782889443069136 8.356879823402453 0.1180941106319708 -1.6429619166448801 0.4275127492459734
Ni 6.499311189980333 2.923982139948181 3.1493354978929218 0.6686598571770871 0.11689674788975997 -2.5999110866565225
Ni 4.98659144917457 1.1397994464300965 12.401331941514925 3.7838231026790963 1.56922139242762 0.3517760205342909
Ni 4.747216686611956 4.16274861147352 2.157415660973967 -0.8230916258978277 -0.6287964453232461 -1.231845092258427
Ni 7.00823966255306 7.143842011383468 7.185080731411738 -2.929746855474296 0.4858958171705567 0.11073304228120931
P 1.8468372136925475 0.8445548928318868 10.289355334514092 0.6114345570060308 0.13520865882507038 -0.906418251141626
Ni 4.1402250816242585 1.7956289263366487 2.61362689881842 0.08351380155394005 -0.3911979739753392 -1.9283826496823886
P 8.9669197603374 1.9011445616665266 1.7931081725660494 0.6260024275178767 -0.950454306315918 0.8584193546648442
Ni 7.681086305674965 4.766262996660575 6.9704947644358874 0.24148829332061636 -0.2347435183976151 0.2957555393046133
P 7.109946035873214 5.67107801640367 5.0682849006818955 -1.369584745035467 -0.032399499376628074 0.9662660765371941
P 1.2188900559540214 6.142836208348825 13.22997740083453 0.45432806966660466 0.3587578511687628 -1.501195144986318
P 3.970016555891954 2.6718237523359845 0.3910267405046941 -0.30918929621201585 -0.1715468311344723 0.4500911487671216
Ni 5.238390124393597 2.82450782814462 7.064274552353725 0.6294412779960966 -1.0325138919218346 0.43984915932413926
