# total energy = -340867.50737569353 ev
CRYSTAL
PRIMVEC
9.36415269268155 0.00000000000000 0.00000000000000

0.00000000000000 9.36415269268155 0.00000000000000

0.00000000000000 0.00000000000000 13.70538400879726

PRIMCOORD
 96 1
Ni 9.223016150149581 7.374551143563082 12.769100900968851 -1.3896838297781873 -0.8157740091904919 -0.29154767187085273
Ni 9.158440953412935 1.1740868245413925 7.780231519964286 -1.2649408463711311 -0.5719809789960988 -0.27370447304184475
Ni 1.6573613791210875 8.112942673185293 0.21677264273433458 0.9453645504978364 0.29803327959519643 1.1176063508168044
Ni 9.132642712837317 4.275391179531695 1.2585983022891059 -1.0300505179830066 -0.7556960700619888 -1.113854854194172
Ni 7.154456099465325 7.868266728357591 5.831024149826184 -0.69657021043411 0.14627931481693518 0.5572619276183693
Ni 4.5236910514384405 3.785702180380568 4.794156809104367 0.32057748344429954 0.1495065635049812 -1.30394036756278
Ni 2.737113729775447 8.760539378625584 9.609872706875612 -0.03552596082075172 0.4365722883450804 1.8692897001749742
Ni 2.892240282724879 3.895918257177309 11.22196870845823 -0.28576783196428207 0.10379260640763414 1.6105225651692523
Ni 6.68022731635425 7.670692471404792 12.54686802081904 -0.16828795787754242 -0.5002253464193515 -0.891724139464561
Ni 7.356665611984342 5.05568729230305 11.899288170853534 0.985891049856973 3.0156474120928576 -2.0575564151672885
Ni 1.4000906489669953 8.518981696633338 7.9022501747724645 -2.3213138042987502 0.3453040396567021 -1.9051195653893898
Ni 1.9558905658908499 6.084695299698145 12.425903769600268 -0.5279284687615746 0.9770978770453752 0.4200804613376443
Ni 0.47209843838114685 5.050958395210242 3.2658147253193452 1.329873028268142 0.1674037555003762 -0.29768206690336474
Ni 8.749967250273542 3.3227291087656425 9.436759489498721 0.4284031222707267 -1.2285923896490842 0.2855713996827598
Ni 6.522048049637975 0.4341361635014537 8.060561476041231 0.3514546326391302 -0.662569428008633 -0.1959633123056238
Ni 7.515856207187791 4.583069143449327 4.452441086686441 0.048796966898045 -0.1479911553017193 -1.4144216988444993
Ni 2.9835220428450686 2.5738309998600037 1.3234094756727595 -1.6710499331303477 -0.08812790328718371 0.06738501431287751
Ni 0.6229465099806695 2.557499917622662 3.163792282099253 -0.32070192483730575 0.5921471695313285 -0.8025474831978888
Ni 0.4693247763635432 5.8678496165730705 7.2405267086307665 1.443291330690998 -0.16391168318671767 -0.6151582857145211
Ni 6.778129532404371 4.269613497341076 8.6957235231656 -0.695562337994886 -0.5053487836888457 0.37617296132141664
Ni 7.0407284654214495 3.7316710195379854 13.589737783395293 -0.6561491263045861 0.0383325770316114 3.5655457002573048
Ni 7.514676323952754 6.212515983493857 0.4670099578262319 1.6913757891718935 0.029559201714355547 1.2186841293964368
Ni 9.187085896396896 0.7427739530666353 10.079556130285994 0.5131117154637164 0.3704545707804007 -0.4367972598716929
Ni 6.067081328546517 1.9190613534828989 3.309603375983485 0.08229741264833568 0.7372283502751045 0.9724914886216155
P 2.989880302500548 3.836409067029196 3.2044561150210753 -0.33566111725029935 0.8644375358344661 -0.9171024703283496
P 1.1163849158564716 2.605538020763467 10.842438664772622 -0.3458478279753141 -0.4778773177414544 -0.03786437914594124
P 7.3139838041645 2.4004630775307887 7.559752545607509 -0.6716258817839466 -0.0797021411173337 1.842494177248685
P 9.348420882559262 5.564291879825411 5.174056736820006 -0.07492194611987096 -0.23133217872322093 1.9492798048463715
P 5.463280765092493 1.5774477003289558 1.2558602240516066 -0.1545454114804693 -0.003993951650741508 -1.2968724049724052
P 4.3728158237962065 7.801856157699776 1.8402488990434687 -0.4320114084472753 -0.8989306845153293 -1.1686016109177486
P 6.931205335921476 4.505496502821952 2.0901668965296936 0.5145433057039204 0.20256384834127694 0.08117538322875052
P 7.7884279627867326 9.279135517035126 11.776063413182877 1.4767056444853857 1.3045512616739017 0.5687231341804335
Ni 6.651160986500631 1.266089624416327 5.703632344222256 -0.6110067254399929 0.7970970016062788 0.3099259172677243
Ni 2.736888990111631 1.6449726051531952 3.722478230872619 0.18094524163023676 -0.5983558694452018 -0.17558603420085242
Ni 6.891510692799863 1.2898745721702543 10.267498419813718 -0.5916211218245295 0.8492456585853762 0.474167472990035
Ni 2.0232188235092496 3.639827410258254 5.109572372364152 -0.5676959784674998 1.4341148063980527 -1.6841005956667188
Ni 6.1353179089728425 1.1032844662864936 12.726696272067718 -0.0038931644068191016 -0.11600663197532278 0.7075958721206522
Ni 8.887320641476142 3.21502262488152 6.374579500733095 0.756064509145001 0.6771835783773822 -1.1677768010236083
Ni 8.49790298899787 0.029887566041814646 0.28389020691790645 -0.2862637977640941 -0.6961071547547625 0.2595351235199982
Ni 4.600308548494595 7.342085626294237 6.2584265511505315 -0.4997759175867587 0.13610571671804303 -0.12248401216955034
Ni 3.465167234862093 0.4176121797193357 0.6238304859916816 0.9895121915493282 -1.0673759939063425 0.5979612051099444
Ni 5.321076742812519 5.646677694919526 0.7178184862303298 0.1280234539305408 0.5592802435999787 0.1221435981109961
Ni 4.251194209060771 6.122910406699632 3.2586745589168378 1.1008574134932396 -1.0806670545882937 1.4214528946596678
Ni 1.7215901022093496 1.5088927387122233 5.990678270586255 -0.8564645449313185 -0.7537731420076631 0.4470374495424624
Ni 4.8279417354828675 8.139761606400745 8.42226030023352 -0.18340964401032928 0.44107094754638226 0.11861758723560861
Ni 6.591876536016335 6.625990144153168 2.8662210481465085 -0.374506115141955 -0.5958109915361609 0.7522322798831046
Ni 4.0720579686935965 3.235427113525539 6.99096548536085 0.8016542819596582 -2.655124755714189 -0.5073753272005713
Ni 0.37675263600693976 2.1344087721825296 0.21001453376031518 1.7075701395435692 -0.6089632126474028 1.223155534904229
Ni 8.897415198042573 0.09429701727639613 5.693161348718933 0.7629437527633377 -0.08426404945640327 -0.13730770744594417
Ni 7.831943180193227 2.033247831007067 1.3862991249307812 -1.3377519167955865 0.24656107985783343 1.4090702047245993
Ni 4.4125479235284555 7.823964922127738 13.066616886420908 -1.6831356606502885 -0.9751042436541141 1.089151695020537
Ni 5.190203345249964 4.593856647312525 10.5579969092631 -0.19302119895816436 -0.3225595468713348 0.5429578522908713
Ni 7.548406001830567 7.974624774258814 10.114381414024914 -0.0007962706490502416 0.8137124986757728 -1.362962354622943
Ni 2.3136105616183187 6.429717504419974 5.2289053881897205 -0.9854382785902706 0.8604027036434602 0.05204504152169746
Ni 2.9222430278444 6.23970948281567 10.280258014226908 1.3936186460562192 0.26433717289433184 0.055538142276620475
Ni 2.4173841013856494 1.792261362327022 12.703726005595126 0.4402116848698806 -0.01621389075570111 -1.5191753836138222
P 8.256064382425853 2.1159239348336114 4.387380826842056 -0.41711546517204934 -0.4229636964227103 -0.3261902016453866
P 1.4518744131714112 0.9386532983881499 1.7696937544187683 0.0956578931156417 -0.5423117340664402 -0.4694932074428172
P 0.8886075209172491 6.0884222324564385 1.1199133285783929 0.7140853364997379 0.6374890880012376 -0.42725152516478676
P 1.7048563614076693 8.726987619648293 5.0586163992547934 -0.10136728479559318 -0.3076512623009347 -0.18342944150467116
P 6.513770138687396 3.1606075337799178 11.65862195619443 -2.8947600549864663 -1.4348262306427806 -2.2899008372051077
P 1.646611331868525 3.5425244999783105 7.102376428036884 0.13525853822639933 -0.3638779460041475 3.033408335620705
P 0.05724587445042626 5.73906442505348 11.381293211044703 -0.26239727555914166 -0.624503217264531 -1.5101461835320185
P 2.84953038244706 8.999521918636598 11.910527026874899 0.5734290242965351 0.2819715981466434 0.6686002075837453
Ni 6.916775176673916 9.246360982728534 3.851404821097361 -0.6743995878743417 -1.7363742082594547 -0.7144995412190212
Ni 0.7128386298462596 0.09815973024824452 12.07385376830784 0.5004480039531187 0.5550222396545731 0.7293852000816019
Ni 3.0863591673464974 5.24766178596575 1.3057037358250725 -1.5257599788098755 -0.2340128108791776 0.7007901620527286
Ni 1.2000067991015777 4.8108615210328045 9.526009228491901 0.21575052223488006 -0.10636602356176521 0.24447282987023702
Ni 0.5882644977774333 7.571807019325473 10.267840211385773 0.7354712583746817 0.15736951119282575 -0.10471948909727771
Ni 4.745097076908461 8.402173256364643 10.767579755585833 0.5068320531025916 0.8668482021584877 0.7493696136233288
Ni 8.5278120925908 5.9357022667403765 9.052734652536781 -1.4633780741385443 0.3544800497290153 1.39568401322568
Ni 1.7680362993981207 1.8530815338473987 8.735633541798371 0.06548599751795173 -0.135843721305908 0.06405106484363808
Ni 3.9624505618196917 8.72199652628103 3.695862499769868 -0.21198848408928653 0.024695702974467146 1.3807764999862284
Ni 4.6386360253279895 3.154820487436639 13.134403987519601 -0.2536066738507052 -0.003696989235612988 -0.210573863129947
Ni 1.7317221153864162 3.9411564786730655 13.455164609117158 -0.18246990580487932 0.6130029299344152 0.23303116369219867
Ni 6.366752941940681 3.9876214041671547 6.388874816182365 -1.7633563932752534 -3.626815602811379 -0.1027011731156683
Ni 6.133632361494218 8.774932081262508 0.956293489167224 -0.5960809573680961 0.3123458395631266 0.4310341321356706
Ni 4.8516143134048875 3.544284960678208 2.054094307656592 1.8785983791704097 1.455845513206925 0.27543533969002243
Ni 9.129543178307179 0.2445354825378161 3.272379932748589 1.107986311228537 0.38184378645394884 -1.2831365434435513
Ni 3.2575265138008414 3.6064161135708477 9.032231840289842 0.7316218027216046 0.26381035385658436 0.4102462488560419
Ni 4.453890657518057 1.5956984338613982 10.906278775525536 -0.549803157347479 0.37742251745780164 -0.6193669244792301
Ni 3.4859088330018366 0.06417722024863762 6.671602931755286 0.34452525250914856 0.20764511951892622 -0.06350470542186482
Ni 8.312614500333714 2.3835045970652917 12.271321273920327 1.8217787990782044 -1.8118759381421956 -1.891116823352395
Ni 7.310921726244997 5.757998741730032 6.842591422893843 2.0516256515051507 2.79546636489045 0.6824545969683343
Ni 4.848477322264113 5.759553191071431 8.454371852531853 0.7005677616292774 -0.10132023360774163 0.3671190786492645
Ni 2.201559110900408 6.960664960186772 2.9831821241035463 -1.8056137592825678 1.1003167104984213 -1.4357538846633724
Ni 9.123802952727196 7.331232573362426 4.068196192137013 -0.22774497559259488 0.94497579969985 -0.5136418769355735
Ni 3.1009953379525554 5.213473264607646 7.080215224354032 -1.1568264726596917 0.37485012874493506 -1.1072232078102673
P 3.8833609284615545 1.0016178608674438 8.702370198722978 1.076798572771823 0.8221732278486162 0.08109079393474422
P 2.635802962157441 6.835325776845704 8.280806346581533 0.13386577164393074 0.5943773444134279 0.01496279195741939
P 5.5393176846837875 5.789349924832452 5.35792842918685 0.5237296001888787 -0.8556088817992425 -1.5287146905628253
P 7.814638226079348 8.092435178862026 2.099993638330076 1.9285639124552592 0.9673803926472954 -0.03517037725354588
P 5.919942397815235 6.687241066695861 10.402427431892896 -0.5881617025210193 -1.6722411252249718 -0.22773623384184652
P 4.4596777038613356 1.1787876291762236 4.922370787311756 1.2297064486488694 0.23401152532759698 0.5974760379434098
P 3.836203055670697 5.262316684877127 12.950889069369063 0.18532871540991308 -0.5852990362612436 -1.1678832446944856
P 8.274596040538066 8.012184390574168 7.854130603503525 0.2775534144742897 0.0866016964506444 -0.2348795297548471
