# total energy = -340892.69389449805 ev
CRYSTAL
PRIMVEC
9.03739244645933 0.00000000000000 0.00000000000000

0.00000000000000 9.03739244645933 0.00000000000000

0.00000000000000 0.00000000000000 13.22713735902555

PRIMCOORD
 96 1
Ni 6.131337681194464 2.1632445200051205 11.28221948276554 0.4970243229835505 -1.5676735883245259 0.7582260355726942
Ni 4.520711644638426 0.36679432777538923 6.099059729740831 0.23582081062219384 -0.47405485867157066 -0.2205944805907427
Ni 2.657454335001737 1.5450055287990583 4.716942357905035 0.1183386225426091 -0.11454161739402209 1.3271435451521207
Ni 3.4415927423894375 4.150603304992154 4.944581625455986 0.38216157480468377 0.9031418943831994 -0.7284868566370485
Ni 5.148792356399143 4.42098401716311 2.8611354747378206 -0.6554127623591938 0.2801260602974724 -0.42293412873635544
Ni 7.0413217807066575 6.108048320432897 2.606750947490408 0.7567257968780837 -0.08716682492549503 -0.10141742130723824
Ni 5.281253419915745 4.333809328026101 11.599300017520635 -0.9371439623602569 1.5708018495408624 0.0753232953233477
Ni 5.9293158067419744 7.796947214402955 12.28674103517588 -0.7928994185851634 0.7554626138949441 0.04391238511223405
Ni 1.9528449826011485 6.38777369656484 0.40115630196538893 -0.6229075906426369 0.45734834455016726 -0.6326160761796524
Ni 2.9956335665492064 1.7374658418678697 0.4026772951420175 -0.02601570733747132 -0.6372075522050767 -0.3703635537284912
Ni 0.5783045607313974 9.112402970852848 4.897043132837441 -0.5131199429938323 -0.09456080339672102 -0.9590348488960774
Ni 8.729181374526314 2.287544817992932 1.401534209863047 -0.01201733617585027 0.17892409743514992 0.28740073958201473
Ni 6.828048352452014 0.6087551513988492 4.697551728316359 -1.2006586393532936 0.350476584996577 0.8405213913385008
Ni 1.0787031821888287 7.5488436750210015 2.5497159627149912 -1.7777010920326997 -0.8354120951363935 -0.7507168716798426
Ni 7.497493210198642 3.7835857536192434 3.6884662926368734 1.0652000693009462 0.47926108546285845 0.6189352362584503
Ni 7.623582911923663 3.6770439321143495 12.72060456474398 0.041495033919993055 0.6904322158571722 -0.5663736601116505
Ni 7.999683042871806 8.743487567031384 7.198036494776545 -0.675501562689269 0.5463036288346527 -0.4590907811625706
Ni 6.809440361063552 0.7640030966477817 0.5442344943227708 -0.4259927130570212 0.638049845600714 -2.469133467019612
Ni 1.8990453843808897 6.349780498023269 9.322407574199671 0.11997230149129014 0.44119641738065307 -0.6372003531162251
Ni -0.06040864343754011 4.877309082329502 1.510049797914439 -0.10054453178398169 -0.5485520585491973 0.21138787439081014
Ni 6.151039197088998 2.131568458899458 6.8310496705385155 0.7252320971451768 -0.47281815805099214 0.4275932247749216
Ni 3.6879972519603017 4.4023669883820356 0.6640486306179 -1.2033966071097468 0.4632001753452539 -0.11486506217171186
Ni 5.839682946814455 5.790989475420074 4.918299080261269 1.2056512074718786 -1.2178966004981346 -0.1262874450760406
Ni 5.388274223229084 3.0855827352181526 9.094517067134099 -0.8168235335009287 -0.3135033502063375 0.47358074724862953
P 0.16969512107875032 5.458196529869458 12.590145283690973 0.028076189410925836 -0.39262673600206577 -0.5940431010024607
P 4.076297862934877 6.160185038412517 12.675976112546554 0.34432367802130376 -0.22292338583423543 -0.31295519101235136
P 2.5103165458829673 8.688983052187375 1.2182893260408674 0.2980103967770609 -1.0654736346773068 -0.16392531003347252
P 6.364122840098786 7.709293543457501 6.104270690321009 -1.2681328709458677 0.3190595041378763 -0.2840580483620269
P 4.807612710504433 0.7933529328950708 12.5087581407828 0.12093877916961754 1.1905112665066466 0.5984857101548466
P 3.9376009985158755 6.177021700848992 8.311880674398543 -0.2228709353297452 0.16517769438333488 -0.6261875469454893
P 4.638694805190329 1.014176198937922 3.905154047820395 0.7511891833305708 0.1527618372174853 0.1826316281937242
P 0.05530703530796912 5.900866094798858 3.636894411695515 -0.08531768753189822 -0.5613947188398203 -1.0924000267545058
Ni 1.668275564029082 1.1094122422849888 2.502799242708163 -2.029084532979841 0.5752138841110997 0.22376773611240172
Ni 1.8946712863565984 6.579113372949741 4.755248250230987 -0.47601326794952215 -0.16312775383284164 0.10211650425679188
Ni 5.836302961977503 5.767194020672225 9.135005489775892 1.3457138519551404 -0.8304845759277891 0.5899082528984808
Ni 8.318025197635558 2.1635337165687103 10.182567624501699 1.7526068680682332 0.6886021046269689 0.8459934701966656
Ni 2.400195916903654 5.403176883646555 6.924446604489006 -0.01551969290215392 -0.13768231717654353 0.6867689080729721
Ni 0.5697172302713117 0.053538417573767094 9.107387217953093 -0.04745125150342796 0.19011096728990484 -0.034830991636256144
Ni 1.62282651658247 1.214471931401486 11.561536368751414 -0.6450969822554825 -0.09541286698437115 -0.964510784408984
Ni 3.94352952806946 6.855043044184571 1.6648865417995176 1.0832147607108118 0.17945348757605867 -0.3923899374009113
Ni 5.423032035215497 8.0339076486941 8.232028080755915 0.7034831355038594 -0.33178363657276405 -0.7532139270700834
Ni 5.453415749177618 2.963261626212407 4.80504880222036 -0.35800297528060926 -0.4922029903355072 -0.7791152203168776
Ni 0.7557338824076444 7.2673469699370745 6.976494756021025 0.338375687967985 0.6861256180620184 -0.40263192684389365
Ni 4.962278647669141 4.433654441605375 7.188499334352921 0.13067014752476852 1.1585539968737597 -1.0745627414627685
Ni 8.48331910851218 6.975854908624084 9.187900444995673 -1.0405570739412853 0.43674789469099623 0.0042628890414120124
Ni 4.60212047728887 0.293377261411889 10.343542565448963 0.7550576651470415 -0.9000041200851662 0.7066718176444862
Ni 7.848333828795764 7.544053856936551 4.5814835912589755 0.9504838740022726 -1.2487362115868106 -0.32469664781899565
Ni 7.2871750093281795 5.9131479113588 7.070487254144658 0.45412212430338567 1.0065400935658921 0.5733182097502836
Ni 2.1793491536400107 5.268013639738914 2.484691019131154 0.09381878302437391 -0.5884532656195092 1.307395415990916
Ni 2.44104493151067 5.306232773095789 11.372467789129951 -0.5676252731305644 -1.4763958265544508 0.9004517491455459
Ni 1.047632626388182 3.3371656707557915 3.94392265464809 -0.12749586356184495 -0.25624616835608127 -1.054528191409397
Ni 3.446951916208455 2.6320411869763096 2.7759002100553833 1.6734099487220921 0.9737955521450197 -0.11895825840447899
Ni 1.1160185762844863 3.313406365578392 8.213205903162544 0.21011286433312845 0.30808834983835326 0.1368590499442998
Ni 3.618309917527845 2.5160824023695327 7.036466893395398 -0.9330173417863931 0.7661278069182741 -0.6263310145018891
Ni 4.101367590041042 6.993098253728109 5.766159239218132 -0.6037418163474634 0.7852794401460604 1.4464409320635734
Ni 0.7036125279954658 7.1784280640259155 11.436711901992096 1.0174436278522736 -1.141441505563189 -0.35152996596175584
P 0.336391635288782 5.407008738114116 7.916839072274549 -0.5444197815483786 -0.1311162339232516 0.5716601053215703
P 8.577461627353173 1.7430871000726402 7.953808334233161 -0.11243331280176767 -1.2786031743495723 -0.2524345079194749
P 1.6982887448941046 3.219724753760619 10.454425046625484 0.9614725118032925 -0.12653221409699497 -0.5379107767852671
P 3.8735801092512507 6.043458075433705 3.767511847119234 0.03736969889770984 0.3750396190479218 -0.13253445442701692
P 6.9382412805722256 3.9449122491391226 10.308172921982708 0.3325819641043433 1.5780557028897984 0.6845369334186597
P 6.6031166877276695 8.078534293413004 10.116366012399757 0.2945908295725507 -0.9592245963093802 0.26082170354190565
P 2.3742676374993326 8.546255510663345 5.969764464856272 0.609769510598782 -0.8882390091294381 -0.8314510536061165
P 6.823836927494742 3.9864209934068278 1.5483683425900476 0.35260751529665085 0.12019830145916718 0.27088422998423023
Ni 5.267525620537857 2.8623591376975086 0.4537340447044822 0.6641609408654691 -1.2654787211524723 -0.5526750795786353
Ni 1.4202172116101899 1.1630582048308407 6.912872415770597 -0.03601472753171217 0.7206730170195847 0.8234094142485626
Ni 6.705447084275291 1.0455992130504435 8.948291150929899 0.2997024397675032 -1.2659165800208392 0.7526117747097103
Ni 2.817660193837707 1.319866004044634 9.256523174578414 -2.0604190814270646 2.310893380296375 0.3218553217154586
Ni 6.316396369713907 2.0171641058219754 2.5100345792334675 -0.06719783800273588 -0.18304788979553635 1.023637158257495
Ni 4.138836619811105 6.76894380476841 10.542782730455425 0.3861699246331285 0.6016684787582025 -0.27258758582858217
Ni 8.219815852119087 7.088478895356969 0.44775219453448567 -0.7453075277388131 -0.04107954364912925 -0.3070956469077808
Ni 7.5336698928251655 3.618906385440248 8.245506448097709 1.0555203801193371 0.9449773423617468 -0.9944983319100098
Ni 3.0643087130091 8.229639497888519 12.23606747106017 0.746310772192347 0.15054348940992782 1.6158383209552105
Ni -0.003708945928035316 4.728381889473522 10.127701613953203 0.6550425235039686 -0.5315089870239814 0.4251637893978226
Ni 8.549789131174705 2.3550541408058554 5.719824527295526 -0.09689227974337507 0.4311783710230187 0.47213501594103846
Ni 3.656501938706883 2.5721232739576103 11.38396244879337 0.09336292643387792 0.3217722750833491 -0.18191300486014475
Ni 1.1633202892165937 3.3772916939538344 12.603491705100629 -0.235239227087111 0.8253441693774303 0.6463799627329642
Ni 3.0539970480386116 8.341097660974434 8.120721745865884 -0.41332437356073337 -0.9378430453098107 -0.586043627736752
Ni 5.541629738465028 7.738357798098246 3.4817928722068996 -1.1427422266524836 0.739178789133256 1.4461737944451158
Ni 2.9130860224296287 8.331861445724792 3.4369393889334297 2.333915295112845 0.6310772709376228 1.7677702060722327
Ni 3.3924293265792227 4.1743535727769405 9.225518591743835 -0.8514082134543337 0.3058378632412797 0.2768671870405426
Ni 7.292037126553527 6.095341746420184 11.212167941410813 0.1975399127641243 -0.3347805144175589 0.540857775228733
Ni 0.6762988163036988 -0.20783111042359298 0.09230973561924544 0.3259441470728515 0.9097156909459752 0.8600152383970544
Ni 4.573029110470289 0.32994978183482593 1.8429638445260574 -0.21108962642410095 0.4854960106289768 -1.0038216661934647
Ni 6.151165720585569 5.680715210766352 0.29415176595875214 -0.7283441604115972 0.10374735499199551 0.280699159192123
Ni 8.372565862050015 8.853047877668741 11.329479623691633 -2.151065380260728 1.720375261728037 -0.6504227653437702
Ni 0.07088840391061456 4.929671735124425 5.538585944633248 -0.33043252186150834 0.08548943722307213 1.1640790404570467
Ni 8.154990634911979 8.827146710442259 2.1594488151080085 0.816462293506768 0.7330317956952537 1.7908540844748901
P 8.349412062177631 1.601154849098482 3.5816840764884965 1.0954917783059521 0.271433674729797 -0.404512174585742
P 1.8054722212744625 3.266484223135996 1.582243201318251 -0.5798560108688013 0.29628595788678647 -0.037336788777245375
P 4.6472351412088315 1.162497886488886 8.26994988389585 0.7852030783821703 -0.9019787273130336 -0.6302452619546307
P 8.625332696019848 1.771627185941879 12.417756115874534 -0.2280259971681234 -1.8948485224806848 0.2767286045801492
P 6.295646516276359 8.001002502193183 1.5439906296087114 0.21464340521363032 -1.92493839988753 -1.2274611042581183
P 1.801504805917719 3.5123374517575185 6.058452013516559 -0.7970805465460467 -2.1151910349616214 -0.46094711764501906
P 6.897925472129327 4.1198309831477085 6.041375860175861 -0.06002934527875468 -0.91870298204625 -0.9965117627956128
P 2.2412552930333876 8.427576470880306 10.32061921908819 0.11485040688369251 -0.032079397033047984 -1.0716895336800316
