# total energy = -381172.33396742266 ev
CRYSTAL
PRIMVEC
9.17883325547276 0.00000000000000 0.00000000000000
0.00000000000000 9.17883325547276 0.00000000000000
0.00000000000000 0.00000000000000 13.43415028006692
PRIMCOORD
 96 1
Ni 3.2674994048762276 3.283938695160942 2.49724751907994 -0.44423700397918975 -0.17331446455785635 0.24770187833049598
Ni 0.8800692821248101 6.6294581823487695 2.199828540124872 -1.120420937447464 -0.08026906936439723 -1.659265281790594
Ni 1.8229162761274973 7.826231172009432 11.963997783022169 0.23347673587004952 -1.4440804022511968 -1.2611687809232086
Ni 1.4458130923992893 8.205766746539119 6.753817604136853 -1.8956584199764899 -0.20550364769589122 0.13920081070359897
Ni 3.370981570521048 1.102882704723562 1.5086954429757964 -0.29368117327408777 -0.9581051379929566 0.22375976569260173
Ni 6.34676847705081 1.3717123718696957 4.408242042953985 0.043491752635047676 0.29572340051509716 -0.8919565671903413
Ni 4.284018467897455 6.590677612023297 4.921010217338888 -1.679177961554121 0.023598870365862584 1.8225789263819965
Ni 2.3140297471959856 2.118979541416986 9.662996471688897 -0.06311569751356226 0.1657101698480372 -1.5241059881462202
Ni 6.879425347241923 8.021409881453415 13.086770101435262 0.7468265354865009 -0.5163986137451042 -0.044785017525174484
Ni 2.650837853118555 3.15050599674168 11.542621415173752 0.9061158894098588 0.4755263010107746 0.37631308644370676
Ni 4.984932529718441 5.397667943980018 7.053949846189722 0.5210633662106251 0.03621218825449893 0.2331566335264694
Ni 5.770099101602743 9.1062011059139 1.9765258857158603 -0.8400115415816178 0.11049264413562908 -0.3633979210439354
Ni 8.506924264261894 0.5751456891346877 12.024289866865931 -0.8389666452568713 -1.3946671419253915 0.675681797020875
Ni 5.193328758989332 3.8357242537682152 11.622300112646963 -0.4456418547465164 -1.3498651551193526 0.38246393653645094
Ni 4.056934134204634 0.41899813216289444 3.9111513156971065 -0.8495747597900207 -0.6451854282042307 -0.3443974686820327
Ni 0.2735448337677182 3.1960972613112935 9.331884749658398 -0.7117674869998386 1.1467127812644573 -0.7748466748485107
Ni 5.937199760247763 2.4329782468049292 2.0124894721282227 -0.8080684130161181 -0.3105383540407426 1.3238779870269715
Ni 2.0500740404860234 8.173282855797854 0.6476713218849083 1.656341937496212 0.9576839912951378 1.6740090157586718
Ni 1.6167321456609716 8.808687584976736 2.910589654216904 2.645005407891999 -1.0433521201879195 -0.4634907100024791
Ni 8.042328442346138 3.0489513860716166 3.9502448842351456 -0.747484480785474 -1.5162381553623694 0.9031547498990059
Ni 8.317436431410052 3.7646250116993154 0.8328276633434757 0.5607120909504989 -0.1934873399613055 -0.4085593480719222
Ni 5.685112284882378 6.294054437907809 11.831764758103862 -0.16094514435922602 0.7652492609680627 -0.3472866173043696
Ni 0.8660421892085057 1.5049155994586294 7.948879659286588 0.7007184282745287 -1.9930384379895614 0.19305976550558365
Ni 5.967912136178895 0.9865593514135733 6.744628674207188 -0.01309642817264196 0.6127093099533963 1.6559706701997223
P 1.7764805589022756 4.807882015870389 1.3054999406034657 0.6508953341048145 -0.233097755264076 -0.05257494588323849
Ni 2.892204451291006 6.441723506640634 7.855820976638597 2.1824989161796604 1.625826028295542 2.134298445215034
P 5.257828419977992 7.493755475363459 7.498512864617824 -0.09774640021355424 0.213725007164419 -0.17539962922165922
Ni 3.312181964957741 9.435565178100623 11.076013593017677 0.8822575947350225 -0.6252899748318844 -0.1672389477877378
P 7.9056923311354925 6.11214832129001 1.2807510526109047 -0.5110563755965845 -0.904702811112416 -0.3662089081301693
P 3.7634225845483953 5.426966779596327 11.316269552371338 -1.5490901688953838 -0.0327468554137178 0.34717631697875045
P 5.201121588387278 3.67438790238104 4.005566629893997 1.041732068085993 -0.9501984815513699 -0.12488825073566877
Ni 0.6976050924476536 3.0104553595757517 2.559863683493266 0.2798229272347568 -0.04504187073098694 -1.9658932450333368
Ni 1.7728732774495157 1.310021433844253 5.850196353870475 0.7574500766386181 0.7622832363612033 -1.6096314208135505
Ni 7.411990429100903 7.186695967884641 6.4896214119967075 0.12474761139274645 -0.6682587650839266 1.916857936872241
Ni 7.011508757178854 4.608820659977251 2.581304519995815 -2.341355296330658 0.9384128017703516 -0.3224803568939672
Ni 1.7334226522994856 0.8425498834828224 12.494296610960827 -0.4699709184101842 1.2042802952662808 1.0962600239305442
Ni 9.23904635900752 7.381131191838361 0.08115648962052614 -0.5850246995539343 0.20737746767983642 -0.5664348523668891
Ni 4.608077174486988 8.426012849488158 13.160012601059428 -1.3524095188077612 -0.3686254879914619 0.791822640581217
Ni 0.365907760858154 7.425428240924925 4.601316963825519 0.33614268487240817 -1.491580247604373 0.4196490302271805
Ni 1.3574851803893453 3.01713755015491 0.07844506228936772 -0.20943974952550382 -0.09579441869350598 0.6894487688979803
Ni 4.101258719790836 2.2362850298807793 5.48056932979436 0.2443429891605921 -0.898424434302872 -0.02571823070171055
Ni 6.294651062066662 6.190425410931578 9.128277117674797 -1.5281505905292392 0.2187085764219395 0.4783491151715504
Ni 0.5114262289691435 0.8673318152749504 1.2623878788847183 -0.5614875356639426 0.308679703565449 -0.6689809879619316
Ni 6.896259327354802 3.602067875494794 9.991232465273727 2.235855220313614 0.5324528389944895 1.086144275652781
Ni 6.297065095201715 3.3449228630289736 6.2668694875804825 0.254472107174794 -0.4873734301573477 -0.951080369935691
Ni 7.811783688531966 2.2831154369341657 7.8824203174069245 -0.5564980528691513 0.6451741153503211 1.1431116941767603
Ni 1.4562218892629781 7.298117824258819 9.73872459934718 -0.723488889201825 -1.3251897638598598 -0.49575985444883003
Ni 6.0226546974619986 3.9055109226876383 0.2548255213128621 -0.8078179875682088 1.2260840214049336 1.6924353407846593
Ni 3.443007874744475 6.302783508293494 13.419882809106223 -0.49693587703480224 -0.20939886898523935 -0.17653040039199275
Ni 3.3189375862026047 3.8614066290985516 7.690016369243271 -0.39526623050744186 0.8027040633804111 -0.676763460120828
Ni 8.532303738096198 1.3485633545061835 6.013810891661148 -0.5293762569516948 -0.289184828065631 -0.16255594048977165
Ni 5.0439983214449295 -0.08818747586178327 9.131675121730296 0.7590166497947896 -0.6802460193527897 -0.853202329240279
Ni 8.158771120487897 7.262458057225811 8.883748411460424 2.254287201766556 0.8541294690402388 -0.8470820752751541
Ni 4.244365908416736 1.5997880195495349 -0.5789163538186413 -1.3329550096275753 1.9629454752589226 0.8296152859489584
Ni 5.559114441365751 2.7196791022170257 8.460599610918552 1.3892832519056588 -0.09050900192485058 -3.379326611822638
Ni 3.4754550501528865 4.422242517253971 5.1472546877927075 0.32106882125842123 -0.4344629553115614 0.307282051886974
P 7.802981187480576 1.1825733346799516 2.4053710701498003 -0.6311659739966872 0.7326836683272155 0.4731228337756045
Ni 5.750915340187302 7.139011929342435 3.4684690401943743 2.931616561693183 0.29551796937251046 -1.665781999863189
P 8.315655737766704 4.443005037982069 5.750044268915377 0.6409701045713027 -0.8145198250684166 -0.981390333773142
Ni 1.0766863147332908 3.582627106749386 7.096240402335894 -1.0967485335311884 1.2836664478050925 -0.7505253244943267
P 3.7738130237456575 1.8938044050324956 7.622738275440996 -0.42823034413828825 -2.64846019920982 0.14204265102776828
P 6.844178627703505 8.201388443096457 10.574315091487808 -0.9350847658383831 -0.8394608112844703 0.6344657277938816
P 2.540618423895298 7.829599803798651 4.732864329902804 0.22862454998407078 0.7334092336393304 0.4937528513211303
Ni 0.24845724682959294 2.52686853174203 11.40846817834726 -0.5464874627106846 1.4425199997426124 1.3723486809338494
Ni 7.985539001256505 8.111683706104543 2.072768705605486 0.30497602946161667 0.5009871642860404 0.9514549796662903
Ni 7.222814676578306 1.1300336933679989 0.2598766332300472 -0.9022402085045365 1.4658111090600692 1.093996167597032
Ni 8.740956974697054 7.392531302689068 11.179079957517944 -0.20752710588382325 0.8697077830944699 0.7294944719659565
Ni 4.528515048195582 1.928940978572355 10.05958540044526 -0.4479859294986607 0.4763300278589926 2.7358211424239913
Ni 2.277461275674878 4.776013106954404 9.63110369780656 -0.6007721921961783 0.31139273162123793 0.7741475918989571
Ni 4.326039166347162 5.252486339047951 2.741936854875543 0.6527606694483274 -0.9221793706306248 0.3453958280395599
Ni 1.15998422614244 3.7843503242743304 4.587507409256365 1.3722466081383464 -1.2376313599229007 2.5095851472767556
Ni 1.3314264728972707 5.218974418986814 12.173919534373079 0.8401871479275337 0.41743119664025535 0.6705863847758387
Ni 8.883412466164822 5.180762936320557 3.7364129499354406 -0.15007683418615445 2.0002719796235224 -0.0345859655049856
Ni 5.67420783102518 8.501940157827166 5.340504924378612 -1.0436511394855768 -0.40649860888815154 0.4547255622153394
Ni 0.6545701329278963 0.47185627898734267 10.294629618300505 0.529364686987469 -0.8343448302141437 -1.581748064139721
Ni 9.025262154640524 5.214623652043792 10.430691134552008 -0.46652769705659014 -0.21407801962846357 -1.5253365181192118
Ni 3.562204202850173 -0.2202626248488234 6.850516612037171 2.0699843565179963 0.38257166575890883 -1.0033593818450655
Ni 3.8655738193773126 7.296961291273965 10.000354389720936 -0.014862261823813113 -1.3828544655611799 0.6886108463777173
Ni 7.822963507385558 4.715515417246668 7.75308963955061 0.33537392502718366 0.7139549815694607 1.121138532339779
Ni 7.910309284241697 5.593681927246396 12.504318978946243 -0.4634660274121309 -0.8566476074764021 0.5674442674680099
Ni 2.479579183027987 9.061527724665599 8.901024811334175 0.7780986061269051 0.2769489481210714 -0.7516185575585055
Ni 3.6330556164223187 7.360836791604132 2.561274470158124 -1.0400618794724215 1.8345091021606792 -0.9585630514659815
Ni 1.821823994975135 5.792220089646385 6.188616262905269 -1.7656768138783139 -0.6434558471076337 -2.179311776700931
Ni 7.181436496453518 1.0317559261550224 9.819181661876865 0.7107750411795823 0.2079135426889645 -0.5664631345016631
Ni 4.732900127352335 4.502832672865247 9.499610486845231 -1.1794696639805042 1.6561599033923928 -0.11241351530742574
Ni 5.5199391812121155 6.449681555036417 1.2220827043625455 1.6461305441808487 0.5489438946709772 -1.4593095604961255
Ni 6.381170743933619 5.338051422260743 5.112070384320139 0.413847593054055 0.4485160909705179 -1.3549777937555696
Ni 9.207746537750749 0.4355971341455176 4.083337047942201 -2.547447212429851 2.0917520872123907 -0.3027864780094656
P 2.1569615532529154 1.6628466037237337 3.4181314009702515 0.3573509435189071 -0.2021229041491164 1.262733040086535
Ni 3.566949659621361 3.8944596074990305 0.13666548347692614 0.607359872716025 0.2950780536216144 0.611714807250611
P 7.386794531930863 3.268343857531835 12.281446811814929 1.1852543889830813 -0.5037580421629582 -1.3310493079644303
Ni 2.1407333761321024 5.831487138132152 3.766882086786424 0.8200086160971297 -0.7414675851674327 0.459689333978518
P 7.508928086664762 7.929419614991433 4.562465716484306 0.28661552467655804 0.6350403693504288 -1.9128894391427957
P 8.52395099987225 9.216833582631748 7.843178969654153 -0.6050703053508999 -0.27062454856494034 -0.11385538996027489
P 0.7427603624396436 5.812239124884219 8.136298583132193 -0.27115033916142334 -0.4843600972523206 0.7234138129895155
Ni 5.758772421417741 0.6733344216654967 11.704154193591688 1.8644493413635375 -1.0568861501186122 -1.342087568056463
