# total energy = -340865.5525014411 ev
CRYSTAL
PRIMVEC
9.28798328183674 0.00000000000000 0.00000000000000
0.00000000000000 9.28798328183674 0.00000000000000
0.00000000000000 0.00000000000000 13.59390237670283
PRIMCOORD
 96 1
Ni 1.3947114544225798 8.476613053139499 1.8900962669544827 0.6616235191555959 0.7788239143287039 2.4065841835324813
Ni 6.034746483901918 4.120548828768715 12.59072716699426 -0.1370212865537769 0.9855197825604836 0.49036927956087795
Ni 7.032387359100456 4.6259730225801965 5.766941413937324 -0.5128000977605685 -0.0684471370288047 2.317836901493744
Ni 3.8491353772451267 0.3584158498232175 6.178768741220384 -0.3396985205444666 0.8587248017204049 -0.053393328019475786
Ni 8.55087048058906 5.27543526328196 8.350720939458498 -1.2282386058540913 1.1942550498197948 0.4580404855211854
Ni 5.248704446996802 6.328023848398147 5.44078273053466 0.2427594467235561 0.7572932393457797 -0.4240677281201664
Ni 3.1207624293999645 8.234020214170755 13.310265385009526 2.515744996230564 0.4287108833191326 1.0095277154393065
Ni 2.0741738815736346 6.900841649911196 11.806780499148884 0.2551148829651155 -0.6313240968411062 -1.7008227935174063
Ni 5.673629688499922 9.161323190923325 10.602387255405915 -2.537800433368707 3.741719231530511 0.7624765833189321
Ni 0.8949826520447531 8.645561471564456 13.378574787876387 -1.4831395730361876 1.389603097138923 -2.180168211163955
Ni 6.6993109856459565 6.775388857846001 7.441370705860058 1.1929797826517972 -1.493157362283506 0.09431526304481821
Ni 3.4451080984388813 3.224908587497767 12.3379351934311 2.0296591745363886 0.29161812009747196 -0.3943244354194628
Ni 1.1728029545320322 8.89229675113889 10.641402358563466 -1.0506126584050746 -0.4112857458641497 1.079609816968373
Ni 2.7839708625771302 0.8778658273984995 11.950236189478678 0.21006787002780594 -0.7159578709321025 -0.9740714315142256
Ni 8.248054357119635 1.01025395668403 7.525326645597654 0.7035127031902143 -0.06017127017325766 -1.1464135048564836
Ni 9.075576527982191 7.929253614182954 7.9618804423436575 -0.08493176494738922 -0.072174722392037 0.41357042813326833
Ni 1.062935398646996 4.459207280259136 9.620717067699497 -0.8880299784424255 0.9729931108483825 -0.34619415557113925
Ni 6.324308655029815 1.3674419350990135 8.730833518552782 -0.004506115400469659 1.0280687116662874 0.32130279164609826
Ni 2.219177878739683 1.3551353570664095 3.8799176118984517 1.097443245605368 -1.5825754451370229 0.5748798978104487
Ni 6.577601250899358 7.291912191845379 11.115109017791145 1.4622287910254494 -4.107927368329731 -1.1432266224880698
Ni 3.524724692322264 5.779689171182417 0.4901742538328156 -0.7497881892179861 -1.2165303162782275 -0.2473457805426579
Ni 5.553025223780402 6.419436181225988 13.325884986728342 0.24469600162463667 -0.492890503320835 -0.2968531432441662
Ni 5.453653089160908 1.3661973453206218 1.4907213390437328 0.5773548417135025 -0.6536078479399711 0.0722351433163272
Ni 5.115876996095467 3.1594933202648385 9.390654647163801 -2.749318148469162 0.18822789133457907 -0.047768782743846765
P 3.181412961138005 4.268004853557864 10.43020754754885 -0.7624855821799965 -0.7739555304928091 -1.1842398316756377
P 7.042214045559698 7.518956946567648 0.7873832217110843 0.2173957711477869 -1.9383119929809587 -1.9813224351042138
P 1.630003938422548 6.737075926235065 0.5223617603777132 -0.6115710825838951 -0.8220870958927132 -0.26409703185906774
P 8.637183710518864 6.353454347004389 6.1265136176964345 -0.8998010029354244 0.6756334602814429 0.9497853052733514
P 1.163570699011724 6.167815422372196 3.5822377432607473 -0.23494303600293084 -0.6293410049728064 -1.298573189713596
P 4.546848691818119 7.493340688292989 11.569688932760302 -2.2612343225083507 0.6365251814260715 0.8240015393066066
P 7.507012599888456 3.187440862378126 4.381750142521097 0.29536447451378167 -0.7575421221317921 -0.8407787587649456
P 4.0576691810096746 0.760358905149828 8.95868075504261 -0.25226018712513976 0.13282833151835188 -0.20220492233996143
Ni 7.597616878158683 6.063938615793597 4.0213076547154545 0.21469636993875282 0.047076384662512474 0.7617654161845203
Ni 4.998644069357709 7.007031164361582 9.012933723800382 0.005899910424202743 -0.8312394518159427 0.6942513324929462
Ni 3.3542809085665533 1.5640871200848945 0.41646667500176726 -0.6476287475384008 -0.09821022722385021 1.7834433938331158
Ni 4.734178029432904 8.065396875165527 1.680301155041386 1.0356627219634618 -1.8273326390168982 0.056429800852954425
Ni 8.889463916195535 6.922389771447529 1.7962709160339096 0.6566970283882562 -1.6907530679862302 -0.9047999988119126
Ni 9.123892617737367 8.100366132744965 3.850935388432084 0.161344950900806 -0.33937893242151873 -0.4250720010149647
Ni 1.669199228458464 0.5436191680329742 8.614211741124118 -0.19713085025116373 1.0644932730419085 -0.14065502665162227
Ni 7.31711977884952 1.0438764566674463 3.5534598554296375 -0.06576727620379641 0.25929292560220507 0.5205620010941744
Ni 1.503687363899216 1.9129437773713907 6.599228320294768 0.43729065456834365 0.07987723324261727 -0.8893443263784748
Ni 3.7903981700917773 8.409953196128178 4.0498542717593855 0.21065793820332107 -1.1523031308680414 0.7618515481404234
Ni 1.7310200461075302 2.3964111783760225 10.492820630183713 -0.7581082790479072 -1.2220304201608503 1.3398571360640472
Ni 1.5277803928928575 4.401315279597083 11.964238753283928 -0.4680536467828133 1.0030158824627178 1.1142055526653714
Ni 3.461566405060598 7.416835568855585 6.798623677171557 0.4334761659182599 -1.03139314805383 0.38627533986274126
Ni 5.432736550497192 3.692790752322241 3.7112301858076213 0.6680682463396752 1.5327094135445152 0.5505665178760647
Ni 6.533947728821442 4.929532184723289 9.499976069623692 0.6469214370587311 0.43175635501367576 -0.7538214787470953
Ni 9.130422070082211 3.5759757848384215 6.941468218192262 -0.5507482948695676 -1.9608626245879648 1.734027305293833
Ni 4.757918115056554 1.4987090047856495 3.9779290569467944 -0.3013469173494616 -1.032630620005357 -0.45103242963446843
Ni 0.20344213125324684 4.611093673140022 5.05392707547685 0.9748530468752565 1.587590381853111 -0.6259893148917542
Ni 3.041712402505252 5.391330720407117 4.9419139954216025 0.014012769339324254 0.2984755093389376 0.8784364212167194
Ni 0.24628109718515592 0.35943381280614084 5.402053697266469 -0.5810492598459541 0.2243287508221943 0.20977759248089675
Ni 5.601146265883739 8.836169467326794 7.603287192037103 -2.1183547774015836 0.2927082678378572 -1.9015701574752346
Ni 8.96353558397668 4.186084839786115 0.43763120282282 0.24302709856264598 0.8380040242332858 1.3303119155777734
Ni 4.936943995493115 3.6356325023504334 1.4292766847232108 -1.7752477453962008 0.775722906805877 -0.8742380668646555
Ni 7.375968441803919 8.474226041400344 6.017028726728337 0.9027233187885421 -0.14202208220247797 -1.1971650243777383
P 2.196106527922333 4.195586446825627 6.4945137376116095 -0.3936788314156639 -1.4399689511859846 1.2332404299440567
P 0.15710995475676237 2.204846520321337 8.835655841843622 2.457784617665696 1.994588041864868 -1.0178146380384472
P -0.12098155684640528 0.877671708545004 12.026158952355596 1.5299349361231716 0.12954477567107367 -0.6546887397089758
P 3.380352278028832 3.1942675301924384 4.449107527087322 -0.7341270856419614 0.19731211302403437 -2.1288626189114432
P 6.904705451014262 3.4239593601896443 0.7720208971330261 1.0141109639346146 -1.8132136831170127 -0.22485299875678053
P 6.898807581542033 8.413621949579408 9.144849094729793 2.8934752747367716 -1.0628372254957243 -0.7863361635453491
P 0.6685462602365494 6.770029691412181 9.851120357226739 1.0889084686614796 -0.15132896142570065 -0.43445909865681953
P 5.063650665320121 1.7609645046562963 12.483348790666007 -0.2994386445831553 -1.2162652355422987 0.22215771131280448
Ni 6.167443903035362 1.7989337808806627 6.004902335574097 1.4294171438120673 -0.21408830404110868 0.040132092134195406
Ni 4.849488343602548 5.46058192479285 10.98501502041056 -0.955339145212045 -0.4131554520830369 0.41566407743750344
Ni 6.975804964100741 7.921758211562342 2.8038099951640305 -1.4948455486192063 0.6590318471690199 2.0971184937306266
Ni 9.1949271149399 6.248843789735545 12.741659683977826 -0.30436976333618554 -0.5815382836672308 -0.21848900421196563
Ni 7.306550053716612 1.3522189302722678 12.902571210348736 -0.852916422568744 1.287310472315583 0.11568010187383948
Ni 5.714617559336059 8.814992865127294 13.167217437151905 -0.9302870873394237 0.9343134348899973 -0.9339437102554043
Ni 2.8451508093701587 7.921145204656567 9.116125077202524 -0.05206201080256195 -0.29625536175916717 0.47937549955353564
Ni 0.2329444817911815 2.427191555432664 4.108865474423649 -1.505192181960853 -0.5331912598224107 0.31970022304566875
Ni 8.383361699594333 0.94169935105486 10.022430709835614 -1.2278380279815628 -1.2322191877683941 1.1300075526946345
Ni 6.505600803421059 2.5469229497106247 11.137525565777326 0.4077368521706269 -0.37209519170761723 -2.3615369134848554
Ni 8.75006986101567 3.2629521675895 12.085645699771007 -0.3631194705715682 -1.5165608288091108 -2.241677740532662
Ni 0.30672357809457024 1.846757607514533 0.3239592889286104 1.593302858856856 0.35614715301879313 -1.5212294379293736
Ni 2.5943938329745038 2.9212565455204667 8.431672216559454 1.3536811864313332 0.5747762823530488 -0.4522745295716856
Ni 3.146889526762768 5.0244925272178875 2.711589607778577 0.2391028238075753 -0.20707947682344335 -0.43792803104202643
Ni 1.4630524364330706 7.216753830003996 5.489965389142998 -0.5804527639125359 -0.32103025471100194 -0.9760267554683836
Ni 5.137313661830749 4.750794231772775 7.430944015671831 0.0899652136062386 0.3672638317572449 -0.14266177266900593
Ni 8.09896364724842 8.279587060833363 12.241526854321194 0.6572007074975521 1.0758904591352567 1.1113588272451957
Ni 3.074127464643961 5.506659610543603 8.562214823539266 1.8807511638473546 -0.7254933212263635 1.2744564991710503
Ni 1.6655026110569726 2.9494362872192745 2.296417677665674 0.010413739134156259 -0.008468442482327351 -0.2118866684040996
Ni 7.588022391284963 0.1853872202814891 1.1278816227171724 1.4620945794404305 0.34018265926973673 1.2602393271304038
Ni 9.039232648856471 4.426736490219903 2.735555391399353 -0.14127697650633736 0.6077699636702502 0.47040363507222854
Ni 1.2755187631830271 5.880603111049769 7.4357830550340855 -0.9118342799508748 0.7499925919193083 -0.8566568634477827
Ni 4.084511453095883 2.768144138828031 6.355774485262914 -0.49591720596230077 0.42087364666290095 0.9397258641548203
Ni 6.76489343658046 5.156233284058986 1.8941746204745706 0.37982341358981037 1.7391353159443594 0.09002794852337398
P 6.981805001390599 3.3171847027837456 7.863582927405954 -0.7024847761463321 0.799454703205178 -0.6373898434192119
P 9.060715754508859 1.403163519335538 2.1672626954089353 0.5137956289046183 -0.639245408570712 3.4080345212802916
P 2.1479669098521543 3.597115235104238 0.4094765386792482 -0.125708432644119 0.965888381482801 -0.5713996525713321
P 5.365463686580097 6.145422094344568 3.2604704184194535 -0.9565961575475979 0.19164900120098605 0.07251282245774608
P 7.943204165281046 4.951535417447244 11.075808773542573 0.07333146170429951 0.9605325164875262 0.5196016940634341
P 5.843451177366436 8.941968886473505 4.629390071680721 -0.44309132041052074 0.42501029453909384 0.48325683688581283
P 3.3252931123101326 0.15431984453714406 2.229861846068667 -0.3857719178637614 2.2444344773421925 -0.27023425510505716
P 1.7489644300765799 8.883881838159615 6.709188756014012 0.7218559815840923 0.9827802721421331 0.3909141241863332
