# total energy = -340878.5716807027 ev
CRYSTAL
PRIMVEC
9.16130122305021 0.00000000000000 0.00000000000000

0.00000000000000 9.16130122305021 0.00000000000000

0.00000000000000 0.00000000000000 13.40849037845276

PRIMCOORD
 96 1
Ni 1.6774250596794766 5.096605834962652 3.8243558042534724 -0.4451695430957882 0.540757759315759 -0.5746518409600425
Ni 6.703525521814897 6.52328608509414 10.352212462437985 -1.1125358782724324 0.6253925618480196 0.901837316639163
Ni 4.420052914235233 3.0991948524518946 0.85165469982324 0.8687788435222974 -0.9166394146490019 0.1138286504873975
Ni 7.902739828348759 0.5392396761739267 3.566135373054363 -1.6455289060411082 -0.008436303692811276 -0.09907977431299711
Ni 3.706415046885591 3.9892244100842187 2.9961943448250024 -1.1734548252449921 -2.01956502352518 1.405363188186657
Ni 4.357270518187285 6.781579806701593 11.514942803698046 0.20717846429515285 0.3391012532800999 0.6501893091767255
Ni 2.473761991544636 6.459376849017897 1.7181910170607932 -0.6631546110881418 -0.20151072448641424 0.8836390484635813
Ni 4.550299131164125 3.685655538722064 11.84074248817124 -0.8103667221319913 -0.9603623094582492 0.2825822351474488
Ni 0.7965000030237255 1.2759035575651445 9.662104480687285 -0.9159927822039385 -0.4473552378931973 -0.12715519239297457
Ni 8.433664707696023 5.044762032360093 4.010425492958021 -1.1052632558704192 0.10868721549577412 1.2418122307734678
Ni 2.2649759407737675 8.80544862662465 10.869954229584314 -0.8400907315589855 -1.136949017009474 0.12105216481903025
Ni 8.803588882512912 7.620544272320015 4.875273382413342 0.0792020615524636 -0.5513265359705408 -0.13007133759850503
Ni 7.304488547636199 1.7105248403479778 1.123196578869033 0.46864011541390255 -0.40232827956054584 -1.7305113217207744
Ni 0.0003243100569235958 7.693495712525738 2.135543247377498 0.7310494751579023 -0.6022747448836338 1.0855560072494788
Ni 0.9370178706820729 5.792195939257507 8.531071324906035 1.01056618400615 0.038683532613126924 -0.3263403540700057
Ni 2.314117159568631 8.706479091456695 1.8403423083880555 0.12406395506216052 1.6647658998938488 0.6333025607237157
Ni 4.667609591020245 2.490802011484689 5.031857423710867 1.5786000054290426 -0.6327669999352199 -2.1238679939103293
Ni 8.756573085560033 2.9756638691875508 2.3140640240225814 1.5352342368488978 0.2447890755590752 0.5389880690098459
Ni 1.5322092768462585 4.076091866574318 6.169970432938176 -1.5698993923312512 -0.4202051598409666 -0.5101274360244117
Ni 2.6588569178182047 4.083503359118137 10.189339187974412 -0.04515165683597385 0.7726203566211532 1.2974750715534107
Ni 8.83722001864191 7.9335492837565 7.411542930974636 -0.025599188625343012 0.8724136120614072 0.22382610015416293
Ni 1.8449944170577108 4.168593523205887 1.3866655194356998 -1.2932137251738953 0.1157981155089425 -0.9491281313053266
Ni 3.0659851361708768 1.231663634828307 13.399292337776444 -1.1458859144877878 -0.15094535283403682 -1.2261524127490238
Ni 8.349875448356384 4.022947159223647 0.010233173265075042 -0.505969190881664 0.2297650913464172 0.7652443758720563
P 4.64387266001773 5.0620860526324805 10.22780840718424 0.9739809286829483 0.45961374354557616 -1.0139561835243054
P 1.8298965929387818 2.9947193753570733 8.668937912042527 0.8795947031908786 -0.3382314490806368 -0.8470471082721605
P 4.753102852353889 5.998737471272832 6.707087435660431 -0.17339288320427557 0.4317537839105145 -1.247449117344271
P 4.024394644788447 0.7013095045360244 11.440848033122153 -0.522514496834855 0.4135094929883459 0.1861668950404923
P 4.773798231410114 5.108313977695657 1.808524193735475 2.269474451029956 2.145963797368104 -1.4041665967753947
P 4.6496442796748445 0.7562424978502973 6.621340406287895 -0.5155051553965573 -0.08727918213364323 -0.8674161588468159
P 9.215627558224654 5.994788950523282 6.473109639281413 -0.7601350796699489 -1.5676306509017324 -0.5120205392820666
P 0.07437327412760271 0.7829339484391926 1.7274292730325944 1.1804541393809604 -0.036304490857989084 0.45736994181672197
Ni 5.442811401379113 0.23161051618949702 4.376544979451735 1.949037864038895 -0.8190760769805314 0.7232652032267931
Ni 3.325314084796194 0.7309884553950549 4.090876374197576 -0.9397461758697945 0.5641085182265575 -1.7994371981582105
Ni 3.7545027160605056 7.992465610764286 7.399407871613025 -0.8540651914612065 1.1541874923749478 -0.4598788242815048
Ni 5.5664156750518 5.4029139353366755 4.259542339310661 1.3103637545906206 0.2724027235112857 -0.19198710126669516
Ni 3.462632826130312 4.525801812175038 7.741632852726285 -1.640756167242813 1.8996523716272316 0.7804419095481011
Ni 0.6663847926997494 6.05540011822403 0.044692491008363554 1.386154733579006 -0.10992211634413973 1.1994036839002697
Ni 5.494838430002534 7.067192528019391 8.451974483960642 1.2941768604181132 -2.0303932244889356 -1.265972115849123
Ni 8.05800555842619 6.263489910115628 12.285676647538223 -0.7538086232312888 0.09707225696466508 -1.1888999561554687
Ni 3.511609141506401 5.218020557686054 13.483309713512055 -0.16419784696856884 0.24056912394045665 -1.8496511000084404
Ni 0.4517181027893538 1.944495307686162 13.23906026640358 0.671135058190457 -0.7753513823990711 0.6658038757855308
Ni 3.1884167633100557 2.4241535463965773 6.661954286071897 -1.3620154173286416 -0.9033061878752057 1.2296606830125985
Ni 0.5889809601871092 2.176083836753156 7.194178237907065 0.6003294482318048 -0.8384048592161303 -1.7339864247535686
Ni 7.090563006980185 9.015663840358231 11.384532599480483 -0.2666694205719343 -0.7461814457033343 -1.1221307210497191
Ni 6.99563360557221 6.420065706242214 6.15689725634976 -0.5191898033369962 -0.26384892040400365 -0.3752864449514053
Ni 5.426989834477783 0.836487249816384 -0.3072315595191617 0.7088120039159406 -0.020001639932907486 0.5946869052340468
Ni 3.6075188021259805 4.603627064535657 5.14786789494898 -0.32525329165341405 0.6327680283764845 1.75603132036875
Ni 5.982641065340211 1.9099297188507742 2.784286122658666 -1.6450920756140055 1.145244424249047 1.432983778117403
Ni 1.6476508312895985 6.235410522418712 10.913491480531151 -0.6423554149546034 -0.5010342154738918 0.8271130883523949
Ni 2.8948886778910725 0.9427711677371017 8.948625103845687 1.110545587315281 -0.47724328370188135 -1.3441807031400659
Ni 2.256025349654718 0.2112504407514462 5.978027434134936 -0.6655141124592537 -0.7402254852302155 2.253656510161093
Ni 0.9590141544864105 0.33528163105273984 4.013777613009668 0.8841149596587355 0.4052066295496054 -1.340888662652355
Ni 7.9549042764878255 3.9688496765644987 6.717814403051727 0.7327088651381962 -0.0889938508319048 -1.464478763401891
Ni 3.852198830383478 7.640470102088626 4.973892955881452 -0.5504539035576005 -0.995068345480867 0.1902894018492981
Ni 4.219695260423961 7.887055680963075 0.33997496557708895 0.368351665504785 -0.01271024847781682 0.2078677770526936
P 6.838966196435193 3.473800452101777 4.671477492320617 -0.30206965444809913 0.41868769475517575 -0.8126382917749875
P 0.0060812716323695734 0.48370936603164744 11.432212590758981 0.4000736791984142 -0.4555426587999961 1.043363690152145
P 6.69108447499845 7.606609933433552 3.8970837087137453 -0.1682154527683942 -0.435089790262283 0.20298113838435364
P 8.856321331316646 5.4522383801524 10.29422051070544 -1.1996867623583276 -2.058116915656449 0.6369270448501805
P 1.6506648993327584 8.095264569768233 8.495190173240866 0.927914216231873 0.24822226961034022 0.38041142488279645
P 6.539446620134061 2.777257572498446 8.904605052333881 0.40560026544359823 -0.08479163982509914 -1.0735044754015834
P 2.291791068926744 3.3546852159401785 12.58121289014584 0.9374620078213082 -0.01889709401481907 0.5920209283661094
P 9.158323620200441 5.250130917841907 2.0399404903428597 -0.22379216159243392 -0.09716610223005201 -1.0234630945734762
Ni 6.843070459302474 1.8828855581717217 6.155408544930265 -0.2519246581625919 -0.2091211898438205 -1.395857562689067
Ni 4.5504640345829 7.049401281393808 2.6842053216741903 0.2839307787555433 0.3755116735883339 0.5698163672446123
Ni 5.690789498012103 1.8059306294101907 10.73573567252316 -1.1924311092371787 -0.3790955342848503 -0.07263135031348136
Ni 2.2219727936777405 6.243316725218855 6.315734061573768 0.11010877843364908 1.6463691425542162 -0.11547827027567853
Ni 6.698367709327666 4.115540428865646 10.61753931485618 -0.027242637766036953 1.1262869093099377 -0.027590250913442808
Ni 5.398663091652705 3.843239077963385 6.7138319854883175 1.8625824633581276 0.6564993105551532 0.602127420672492
Ni 8.857402364839725 7.564422142130356 10.075823339010318 0.6702688535354198 2.185014740622979 -0.6335262466987476
Ni 0.968422810657612 8.622662348213925 13.103742353217264 0.4295241232490474 0.4170851261547462 0.21109039775504934
Ni 6.225562123797444 8.571047578137442 1.9406777935415276 -1.137622388927415 1.5191856680264677 0.5390245786747362
Ni 6.075875626055224 5.063689280315012 13.241004294484913 -0.7000519983351233 -0.2849088263980964 -0.3788237686807024
Ni 9.08251385406929 2.5659246800376128 4.609128425812003 0.1163367616212319 0.40122887584878003 1.1228835400553436
Ni 2.2567032859319025 2.0956109683910973 2.1136074281600443 -1.0240197384078944 -0.9312967595508606 0.910941078712644
Ni 7.896766660068697 2.1630198214657814 10.939101897596966 0.4237972480675991 -1.449285343490904 1.0042590108411993
Ni 7.6835373782919545 5.501058953410757 8.348527820972953 -0.38663812251879864 0.40123530360668314 0.8482706962666164
Ni 3.2834927455347187 6.618178841297942 9.334494523127985 -0.19847142343945817 -0.010528153224833482 -0.6401010717027878
Ni 8.76608251604271 3.263695173980711 9.048598717607959 -0.27558960587969955 2.241611148960785 0.021772101569768953
Ni 7.932871347479315 8.627444547358392 0.3825264605316942 -0.1378365833662207 0.4375367091408787 -1.2894095209364569
Ni 7.926238565524155 1.2391667403825561 8.043444586548384 -0.9124035221907836 -1.707094742569047 1.6456559185372754
Ni 0.47536342078143856 3.4664622499663027 11.4316629126964 1.1577844656975866 2.196828702538771 -0.7278749340846626
Ni 6.798106793783236 4.3434369536122945 2.1421540422101546 -0.38230864190550934 -1.0021733319567645 0.6169385175433956
Ni 7.182093565701191 6.502224253996192 1.342605158199306 0.5926315653669149 -0.05509411276066641 0.04773612973369843
Ni 4.3681083373212 2.8350104142737664 8.91476859971103 0.9159529301049387 -0.27768608339741213 0.5943601180222474
Ni 4.783683275235555 8.68690139112772 9.838117809236888 0.21104051835372042 0.47794776596807353 0.3626530724581109
Ni 6.4897007554703565 8.769096584085869 6.7021128491940605 0.0579367244157841 -0.5670763426056298 0.14338990908428206
P 6.337375803027741 7.518487378700557 12.773651515335509 -1.6326844459782721 -0.7366951034794538 0.33294037588502656
P 7.051480896730578 8.435396193593158 8.973685842848921 0.07738429161743447 0.3604460375044631 0.3424768546205521
P 2.4032932639215763 7.135004478339968 12.677137208847089 1.3992005110193708 -0.07304195548833872 0.7810049811404226
P 4.118701077725494 0.9485153034910874 1.9739983615651662 1.1810614339476564 -0.6097276016172531 -0.4323744482136489
P 6.513336912161399 2.806931026576851 12.844730385608035 -0.07305892476920321 0.8086299419465428 -1.037491290531768
P 2.215101817895461 2.6766023579385716 4.386748836553473 0.09877355592648795 0.3806356250784606 0.4400844152633969
P 8.89931531711163 0.604346294296495 5.790362762918796 -0.5166294988089877 -0.17316842589829531 0.7802444488253143
P 1.8122336045278016 7.458471695567605 3.775013036835662 1.158705177739643 -0.2963211820000961 0.06387288739456096
