# total energy = -381170.2105299399 ev
CRYSTAL
PRIMVEC
9.23410893113757 0.00000000000000 0.00000000000000

0.00000000000000 9.23410893113757 0.00000000000000

0.00000000000000 0.00000000000000 13.51505181875178

PRIMCOORD
 96 1
Ni 7.845391302974827 8.49813199626314 2.878475832776273 0.7359232583104358 -0.15454978235584352 0.7043758225214579
Ni 2.910849695335682 1.9013122664208517 8.119653572827648 2.0607034454367024 1.1832391583252655 -2.5748155771404755
Ni 8.026896948448954 6.940356285020045 4.560789201163036 -1.3030728773561622 -0.3317926354338286 0.4834573829323932
Ni 7.8559551236108875 3.727551227097673 12.284533123094796 -0.16423049997871714 0.3639787332480699 0.0803549442099842
Ni 2.53549240072448 6.1053896857596905 7.943417833329919 2.912579342556074 -1.1442080125647327 1.367291063905284
Ni 5.562516420729983 8.628212889008056 2.7909937314284514 -0.6294821585363611 -0.5739154770146503 0.569937723313825
Ni 1.55456224132933 8.249134248490968 8.545945288982946 -1.4825477050884597 0.32516793102845937 -0.8430516139595222
Ni 7.078313872697266 6.251371714112381 12.251840683776695 -0.32052451871917703 -0.3431571685170283 0.8739634730470303
Ni 4.126160008038946 1.153072418396405 11.208708643099584 1.0327170090715763 -1.1181912767859967 1.2541990344735947
Ni 8.198485160913354 2.6172050308018378 2.793128657417138 -0.05392631770481036 -0.8861487022593125 -0.653101597727514
Ni 4.659106605949978 8.61848013817728 6.821208577269096 -0.11973370311792284 -0.6162224653129775 0.08677858834814087
Ni 5.423884743099586 8.545595316253833 10.257938006938208 0.42971001400760833 1.1967569903060422 1.3388045264298167
Ni 2.5919220405032948 6.985067840544349 3.1148136171812797 -0.4626319615466097 0.41580445967010976 0.15863655083070746
Ni 1.4498751481903305 1.7763101335971208 11.90398995289862 -0.2744619200331596 0.7423129638868634 0.4364707297702096
Ni 1.305278236179781 7.2411481498793355 11.160811319988355 -0.9770179157370592 1.671040420048651 0.4840803612283727
Ni 7.605064383504455 8.292368346583656 11.186570790308595 1.3095451153440674 0.5972698354698746 -0.42595594628181477
Ni 4.741391750782087 4.926175504932615 9.696184682754225 0.5754080023997767 0.054856799938879715 -0.1535424241372517
Ni 8.444361779861238 1.5624574044795325 9.63865156695617 2.5213227474286577 -1.2134874156868456 0.6911868346350096
Ni 6.886050490299179 4.462170764424403 4.475779994191383 0.2406254310996888 0.8009071193809884 -0.3029983369099556
Ni 6.214130552726689 3.3325160463191246 6.288635037359547 0.694890508738842 -0.40501585369503795 0.09818734440571478
Ni 6.336741051332989 5.9968057986448 2.7942099715749023 -0.6142375736724648 1.1783957141900352 -1.052799124533432
Ni 0.4162089925954078 2.535113802257628 0.6387500948217976 -0.6106657971608064 0.41327577971098506 -0.7086261131573796
Ni 0.7685807432142314 1.450512301707715 7.853096243480709 0.4591103215465964 -0.6648955050386485 -0.776818710973217
Ni 0.21997401993895557 5.712339838404876 8.721506015116606 0.7902848637804519 -0.5123483549351305 -1.6658475629938019
P 1.3913031951356707 4.179108388744514 12.413534548503737 0.025643925820349384 -0.658242261388189 -0.3468880963143703
Ni 1.0584412699013472 6.6981548414333085 6.575248851340684 -2.5282513562276905 1.9383575015069134 -1.7709102943631114
P 3.001131578516418 3.9803257254294175 8.694016996190479 -0.37797684729937486 1.0238035086320303 -1.6739264833471947
Ni 1.6192102380715139 1.8573948442660415 5.4415920704175145 0.026892967736102072 -0.15103097056930762 0.22799077305481383
P 8.028420576425308 1.0029904456709782 4.268472401495858 1.9446451342878381 0.8492009213903698 -0.9368847951615995
P 7.292009621962745 7.690581466468226 0.8973005283002685 -1.0123811257277016 -0.6152287339411404 -0.09595794085456377
P 0.3041115270259548 0.08071072925654298 11.006645100875403 0.6264783387130307 0.24651788532472382 0.30769342839277974
Ni 3.3381303845592685 3.3617235329204 13.114601027558447 -1.0589594877078732 0.051083448939376545 -2.8962800911754183
Ni 8.928238322824695 9.106789053435588 6.040619798779398 0.023496797570359534 0.15217151193165407 2.3014733725340557
Ni 3.846791275938099 5.593164428327084 11.922019550618819 -0.6287997877573558 -1.7918524438324173 2.055119780701338
Ni 5.388010229838139 3.370929939541162 11.606388472680727 0.04901499644612204 0.9820397944316831 -0.746034892823141
Ni 7.745755267430168 4.833834415456564 1.2907520593943034 -0.29920750240895566 -0.4433831406193267 -1.2730776165456525
Ni 6.875929906892604 0.7359603299459214 1.3119628076469525 0.25664520356671283 -0.44490960456618217 0.043284264609931906
Ni 5.431706033378208 7.431684753904221 4.786112540415339 -0.47427211688869936 -1.0608813873209344 0.5898907693969841
Ni 5.988947571930389 2.0970015032385003 4.183030114814562 0.977465287687123 -1.0642955552088058 2.4922356002547144
Ni 5.049469327601039 4.5443358658401936 0.5851664074206343 1.3127389396910165 0.9546284922982656 -0.597822622649551
Ni 4.581669368315361 4.930894134604841 4.1532565773347985 -0.17125963891135665 -0.019608775369863003 -0.6167461990269313
Ni 1.1831294430208597 4.115263759480772 6.837575111967831 1.0193326173448702 -1.0426386390606626 2.8116512021804287
Ni 2.2475821178470983 0.9097813499538516 9.832253895151661 -1.6934193019644836 -2.231792877318782 2.1396771930284437
Ni 1.4606882897679758 4.2492506803105226 4.7218616103579025 1.7453771830890135 0.5284545164683737 -1.9688692969425252
Ni 3.586998854806175 2.682582522150882 4.286028289427045 -0.6786524496134247 -0.1141891191506098 -0.21886309972193274
Ni 5.417771762976272 2.0598157465064943 13.44558473503283 -1.3956112510062157 -0.3655231949170544 0.48285034547601363
Ni 3.294111387206035 3.5036148510093006 1.7469687524161053 -0.3053377836764096 0.6313492936520868 2.597468795763617
Ni 4.2424451420161375 9.082965052350767 0.9777333108774885 -0.9517074619967286 -0.8161501615829878 -1.9614375232548285
Ni 0.3206378118094838 0.33553889341823423 1.6293206639582467 0.6781117466186063 0.5881277639592903 0.3218830896296005
Ni 5.301385053800655 2.766502104266718 8.70382823694731 -0.6021616163445371 -0.0069926292677492475 -0.25450964528094877
Ni 3.0177622087310545 5.937956822321714 5.589703484293521 0.44722051208754593 0.7527958656960584 -0.18335950749868424
Ni 7.268416473601613 3.6669200677476983 9.637650589546253 0.1868577504599298 0.1865846993042012 2.8293416774816564
Ni 0.8588912521327048 3.333319413797566 9.68198077637102 0.668361866320694 0.299076119037414 0.0789251537419931
Ni 0.9075854788461112 4.626057730026499 1.5810041123007974 1.1043034630603112 -1.049299853130922 -1.1556527640665646
Ni 8.916243215301757 4.732499303865544 3.325459340261365 -0.9343530298786811 1.7355442561589915 1.5703704184303986
Ni 7.833340790798203 1.660440534522571 7.398706980619639 -2.450779647102773 -0.335904343609357 -1.963277661787361
P 8.695187881205035 7.589495675818793 8.17870108249311 -0.746956890416778 0.8191444683246216 -0.7116918965668969
Ni 8.43489681818994 5.207335654169297 6.398498771974573 -1.292515156444974 -0.026450223771728638 0.06860500276290767
P 5.308883150266111 6.602701857241914 10.98333082260449 1.4142764315158871 0.1571928764056454 -0.44445066265189265
Ni 6.921934237669572 9.070286620765705 8.650201149234093 1.0873637498821789 -0.559926618934726 -0.9458690009380807
P 5.451771752121354 5.612786909840745 6.419636570766537 -1.6591786356140585 1.150072955985942 -2.5792427596738934
P 2.1467456481392495 8.206546538024613 0.615829189592052 -0.45301372173055526 2.838890497512356 0.4955924756330303
P 4.798827908436191 0.6923153140050656 8.678946930387989 -0.6360932360949755 -0.4898941396966724 -0.2563371854079908
Ni 4.478727521767459 1.4806431992037505 2.357916792018453 -0.1458918495705294 1.125957550994977 0.18406476109582492
Ni 2.548309343943756 1.423521001253865 0.6421962642810438 -0.5054076619512393 -0.5571130607453308 -0.11394152191617796
Ni 0.19470949785830782 5.919442433881764 12.861328810754427 -0.1834806064575808 -0.9152636173473979 1.0817016665003951
Ni 1.3888007516108698 2.391569578667105 2.985271996398906 -0.6813891318182974 1.7121004233137544 0.040932476548303696
Ni 6.572377043457979 1.5462423091675377 10.558107492854429 -3.4634453939504284 -0.4127476751216569 0.2513086218451478
Ni 3.8021628273943233 7.922560751449964 12.186021802019956 -1.4395370058548884 1.4895048531325832 -0.5665284405219598
Ni 2.348243139484942 5.509217143884405 10.226164361460391 -0.8730874981999802 -1.3649392758436558 -0.26064943963009946
Ni 4.679079983603648 1.603419911771109 6.461695166790194 -0.14428079632966764 -0.1905755656311492 -0.8572219919226335
Ni 5.1263525186988 7.127956442399592 0.24270747275706472 1.5766508521224718 -2.2905320430312037 1.7288568168364873
Ni 3.915834708539343 3.800860818032711 6.448193052687005 -1.1535686278440263 1.038333069706773 0.8259488928409646
Ni 2.2558651135731 6.190509702038715 0.578990635356476 2.0064883928468795 -1.297171938490695 -0.7055418178051011
Ni 5.166724043017729 7.038302478627292 8.336813959770268 0.1578888740314055 -1.3400419983813439 0.01051529770902705
Ni 6.670073916123641 0.2547616785772685 5.542846845260689 -1.9137862399254524 -0.9405807559559478 1.3543656140928673
Ni 6.9991406225805 7.43079827944525 6.701992537111933 0.22597477106604952 -0.7667011629232409 0.7153166378036778
Ni 7.901433110177843 1.3244205440281664 12.311212310666217 1.9423092870658096 -0.44612830746463167 1.0041813635257286
Ni 6.507895260676852 4.866153796773181 7.948026577105669 0.938835491130067 0.9554964967255156 0.7037178772224848
Ni 3.172793663852398 3.005730164772325 10.535063773975681 -0.3086372803632878 1.5865298017990805 0.7885030892896807
Ni 0.8624907078004813 8.651593652863392 4.289204822905021 0.35501432496593055 -0.45626642433989817 -1.835226182832362
Ni 9.10415733238552 8.172075609323203 13.363980144030156 0.07002399459762133 1.0689893611400492 -2.6802706588521965
Ni 8.711966257162835 3.1361619536572483 5.206227561095584 -0.4609882552955996 -1.8732656541035868 0.37964960701610745
Ni 8.891865167680079 5.23416074066209 10.742817374133375 0.5959084363459737 -0.6996948721060208 1.8631897579248236
Ni 2.3628976703847915 0.47000783473505026 2.845986543855019 1.7174925408636035 -1.9061554628530721 0.4836556149861283
Ni 5.887113818456199 3.255438938933464 2.486201650573058 -0.03375858450768379 2.931081258015004 -3.151719190249172
Ni 3.366950038584744 7.721940500454294 9.78003223882027 -0.9488915898144884 -0.2765856512443817 0.06175429838966138
Ni 0.24581936747240768 6.956737594293096 1.7307915169507957 -0.15167246080804847 -0.36303822371167155 1.4009833139514065
P 8.604970636786934 3.428994016603703 8.08301447534534 1.1348345417696328 1.6936504441386833 -1.338366924671766
Ni 6.040067599064331 9.139911802230648 12.680159286845994 -0.9466806982060987 -0.7135484901596614 0.01628870985769453
P 0.7501374574131797 6.458908312709807 4.326965864624462 2.2267771692717457 -0.8950912561645811 -0.23848730171076346
Ni 7.3067841962789135 6.428648137688505 9.681182949357947 -1.292661195104535 0.5831192550011054 -0.4564767405784913
P 7.297199191191298 2.6807726367971516 0.6011626543505708 1.2994717902684652 1.6929940415016067 0.5434077953440963
P 4.442548282910741 0.5514840716233497 4.344615940466915 -0.6857001004888255 -0.8846065545831734 1.1303250839350532
P 4.045573939253195 5.837212693703341 2.0457734370298715 1.153186304803943 -0.924233424946176 0.1545135298012694
Ni 2.3799253672841756 8.929974335306845 6.190150495200653 -0.061617772811797096 0.0606096432622569 0.19511947624808976
