# total energy = -340873.5502747846 ev
CRYSTAL
PRIMVEC
9.20183788960322 0.00000000000000 0.00000000000000
0.00000000000000 9.20183788960322 0.00000000000000
0.00000000000000 0.00000000000000 13.46781988746264
PRIMCOORD
 96 1
Ni 3.5795976447787776 0.5426682507176419 12.50975927588388 1.8461695692177431 0.24325386986147138 -0.5984399445185757
Ni 6.490838218813133 5.482878129428511 0.2831110972172358 0.01325712212022233 0.966056274519233 -0.45825234442167534
Ni 2.7617751258207104 5.000968692231147 9.272229822039609 0.31710212330118936 1.9305462329926106 -1.36671153725273
Ni 2.5533443022359505 8.855149171135094 7.548079669673652 1.764927080196483 0.9609804026582223 -0.033310441226671664
Ni 6.253651652713589 4.760036978226476 10.397425923427305 -0.09316546571109116 -0.1614853331334122 -0.14560002936172345
Ni 1.4841275799166342 7.193039648267755 9.542906476101573 -0.10215661346610794 0.2836538709450728 -0.8937861641999124
Ni 6.868398817572848 8.128618083053563 4.667030324820419 -1.0148180173039685 0.04301532721926141 -0.24331454789607773
Ni 4.058976576634841 3.005936684824641 9.48626088399061 2.3620030544879964 -0.01708472339642864 0.6118554465935333
Ni 8.807087973325586 4.67887677055275 5.589292780408422 0.7907054962576383 1.0953048591061265 -0.24320090513634893
Ni 5.562050740179616 0.9949854983619517 4.9646692832480035 -0.1377370816738789 0.9042284425791588 -0.8891054708947913
Ni 5.566642457144376 3.384969577601114 3.6770248609701475 0.7746458716916143 -0.14634410661659958 1.799126094675695
Ni 4.314520808755824 5.972839174530014 1.2174978940332317 -0.3327310880876979 -0.2702334837741088 0.5848899737482831
Ni 1.0818876527010306 5.070138905505909 11.094641797267686 0.7813549082806737 -0.6218809491503354 -0.19246146979995238
Ni 4.618181449711944 8.662545508230473 3.520810785057194 0.6852560709728714 -1.2235471139156928 -0.8903190315869184
Ni 1.7630352777160287 5.755537779494293 1.4509825608643931 1.7704420964774412 -1.2336386938237398 1.3364216280199372
Ni 3.655880878521997 1.489289810812888 2.7422092585217714 -1.4584104457206237 1.8531601416029633 1.6611961802647195
Ni 0.6703235034405532 8.02459130893208 11.70470706715366 0.9880322645696918 -1.0149062061424003 -0.3173191244080019
Ni 0.8226332396578202 0.6735735924825442 3.5912885794555884 -1.6713414962288375 -0.3344295588360434 -0.11428167886441609
Ni 3.99591638352962 7.449172797995441 9.120757453044373 -1.1433893733181792 -0.3771978030415052 0.10415281796053029
Ni 3.4660837760868164 4.252150753470957 3.0878744477759685 1.9158438937854294 1.7261808126662206 -2.0040221906945743
Ni 7.356951981520828 2.326123326262329 11.148525917913469 -0.8067201265183397 0.03454148542029535 0.5990739785581489
Ni 3.667346368177492 7.246042232871006 5.396272274260304 0.800272571120783 0.8032419381617522 0.13925120432556018
Ni 5.16400685091177 5.080840642640211 8.312190142349145 0.17025922267130034 -1.5423474508549115 1.3642270802679797
Ni 5.538125962407316 6.674276851463444 6.852291921029527 -0.6638596075749664 2.2259665004449922 -1.121916548156384
P 3.513638872828066 5.8011696921761535 7.179411726775149 -0.7760658919675926 0.11882867480515019 -0.7453280965641035
P 0.441621951796331 2.7660539803069106 11.251541410082194 -0.9416251380600621 0.5915265052281942 -0.382170059445116
P 6.676144824497205 6.683947982786016 11.327836606214298 0.4091046790524309 0.14355985900324308 1.1757140535928137
P 5.2089854331236936 1.4728737325260484 11.142560366594322 -1.0839264420658559 0.8406160079348363 -0.5267197931654543
P 3.9370522283721554 4.856693080426571 11.032110709824737 0.3547255900809181 0.03434093937371505 -0.43098065318991585
P 7.364966782074548 2.392910263597466 0.06858681677062253 0.8901207995331831 0.7622876072365775 0.6628800172705165
P 6.768393246484632 5.077380751700833 2.37712359100279 -0.2054475976469752 0.2666172271777602 0.46913016767644367
P 7.279693352991506 2.1915740568059534 4.844684682352397 0.7094496374999394 2.1299967325158864 -0.16771794430668535
Ni 8.382266736627972 2.78711698658414 6.985758134199826 -0.9661874007804586 2.9360365451377497 1.3550040190078148
Ni 8.4902687045947 6.102980763773724 9.997714661185482 -0.7780854935007826 2.306726136292563 0.3634426582389418
Ni 4.429773824755078 6.986458394041546 11.713460775267038 -0.03691409941752998 -0.9795298835256355 -1.3180778354054268
Ni 1.6107632690329414 3.1751860838884576 3.134230545077321 -1.388447386267925 0.10459170527016179 -1.3292459362071043
Ni 0.7993001400435039 2.452731409865822 5.044102306003323 -0.7130640943240752 -0.3614168860581647 1.4615235374283089
Ni 5.716098703520417 1.0098556679311967 13.287081746992243 0.8163041706623491 0.6264114900308374 -0.5204604425193037
Ni 8.11971990608979 0.8347502194157299 6.297606070400106 0.9269137999918166 -2.011028703919395 -3.3278474701067395
Ni 2.9243992018091203 0.5739388554497991 5.037893826171411 0.8308116202499046 0.47633311318278604 -0.27311466197664575
Ni 8.090228016566627 4.46616709248179 12.116122146644939 -0.016694172826229314 -0.2760390347122923 0.33732359255438676
Ni 6.717451873504841 8.850180178828541 7.316029569325069 -1.4051374453290963 -2.139505186226954 0.6736513968544076
Ni 1.5041231730317144 1.0713147412931947 11.939113758112814 -1.232611538110806 -0.9258496203933603 0.49179701314634006
Ni 5.149431140145876 1.788717606470833 7.1704693809908715 0.8583903011991216 0.8663841180378757 0.43400941271391064
Ni 5.623436198840776 3.549388011922446 1.3581350992488976 -0.14267899906018652 0.8403288157117205 -1.4100166277982686
Ni 8.181988741161003 3.708423371245011 3.371359139599956 0.03163716728930681 -0.3366797883228008 0.27462338531168834
Ni 2.842153177298035 2.9226968618522453 11.629233595119656 1.2313905212195115 0.9156785933976294 0.3311418892237071
Ni 6.4257720251100805 7.278340682863611 2.205355648986559 0.32636195133656054 0.19011508105496291 -0.1662668136824556
Ni 5.329566313096088 5.783815026453632 4.047887442137379 0.46928597652801757 0.7480663214308729 -0.033608432083064695
Ni 6.394264933151482 8.88406134488916 10.83370252775905 0.8190117994014992 0.0898374297791227 1.098365243199005
Ni 2.3191023241699193 8.621818174991933 2.601160731165174 0.8855699469377071 -0.824626060264483 -1.6701999264252267
Ni 1.6471381330844426 7.002009499593541 6.73308855614656 -0.35822280460089917 -2.175654896674634 2.4846960973445595
Ni 1.5366700726396478 3.451342432244038 7.010201895613033 0.27984323894973095 1.5492624328071898 0.3826043187690572
Ni 8.657355671821405 7.325040008707621 5.998028284789205 1.4840687697186765 1.6629095634114006 0.11876105479200838
Ni 2.852422428064915 0.8922037328683885 9.657382857006988 -0.23887425273653703 -1.1329769197356037 2.4214374464952297
Ni 0.054373658406355115 2.123636889770225 1.7827216890875903 -0.998659405266235 -0.1572512404474066 -1.4693070380284696
P 0.6272819080444243 5.276554526655234 8.301415710697766 -0.1465207414037799 0.10210133474814029 -0.14145901061015637
P 0.596545930077102 5.323456292926547 3.4549808388329484 0.39320986219904536 -1.146343827960813 -0.37562865878217244
P 6.567379104009285 3.3246239265892883 8.345011256717699 -0.20849641177562803 0.8320118112055928 -0.17230993455274196
P 1.0586346090738754 9.047955274467023 5.653601662876605 -1.7111483438131305 -0.5897935816974874 1.0475579307391507
P 8.09067890660926 8.582995622137574 2.984428309607343 0.5320154943467548 0.4245012161131592 -0.049497335399179276
P 3.236608349900037 2.7955642735052826 4.683339661791044 0.18779954554790884 0.06406417746976063 0.12459488786496604
P 3.4048087394769135 6.830763301769499 3.1569784078199765 0.14343490338960457 -1.4597497333573377 0.2022524877484452
P 0.6901829093590836 6.109044774755241 12.965725972322227 0.007996902162547519 -0.7656909764911716 0.09991949660547307
Ni 7.352857163786722 1.334367672899638 8.94334602402516 0.21685969613865877 1.076062723047063 -0.08913988949146584
Ni 7.721142310240869 0.26085645297019405 1.0305147135375783 0.21339076375345187 -0.6656454958307956 0.7627439780477058
Ni 4.05848887924179 3.658310163649646 6.508700825971437 -1.594000913365145 0.6241080387086413 0.0038432850054901557
Ni 1.5066260728602012 7.020201532538094 4.556486809307265 -1.4169334095227597 0.9644868731495841 -3.0156273574881998
Ni 6.296044518558584 4.135903939010391 6.132558230386611 1.0134147091985386 -0.8375900766243187 -0.08488394242858929
Ni 5.077371549863227 0.5201706779578352 9.02789710885623 -0.2163544743674661 -0.572787019837162 0.8016751078952645
Ni 1.5829829213042586 3.0949644636504132 9.420874466338912 -0.9009045204122484 -0.8313950035572005 -0.09034213732968312
Ni 7.6038556881309685 5.9972884570457845 7.660158971883036 1.0699093018511574 -1.4169565494512115 0.5027211162580116
Ni 8.049463875977668 7.225577346038085 13.076148023578998 -0.8708719786059002 0.19144742671314124 -0.4787872311502335
Ni 2.825028557515631 7.7589342572834985 0.04668644327136289 -0.6148448682391605 -0.04204602132745662 0.5155447503852412
Ni 5.3118895830574 3.880626560179946 12.423942018198398 -0.35697684800894003 -1.2172427689642196 0.16658305937129378
Ni 2.577692364538068 5.054937469782894 5.104788425006523 -0.49593494657411363 -0.9891902894335352 0.6607742837814232
Ni 0.2931687057192068 7.391578496427431 1.577607207775575 -1.1206518225113475 1.6425597961104552 0.8605507991855503
Ni 0.8081228619389199 1.195042649726407 7.467757749405716 0.7753868636226969 0.2289302541499477 -0.00364016785574857
Ni 1.0696584105243432 3.5083202106925317 13.189951750155506 -0.09811818173067618 0.1993689955530631 0.5566790585317059
Ni 5.8348576196470745 1.619523418432645 2.228385087959919 2.0741498007495958 -3.336911637191537 0.4748418733492403
Ni 8.483707794382527 3.8873439016313993 9.511727889745462 -0.24530920972860334 -1.3841263902950678 -0.5730477296977163
Ni 2.3469470847618354 1.66535777154181 0.8106496865451791 -0.6564178065849404 0.16864379855506442 0.003433708271897312
Ni 8.31496449638697 0.4620481909113128 12.25982356378298 -0.3836594995064489 0.251968881136966 -0.23393284957086166
Ni 2.7829945633372204 5.373983583214125 12.83119602672482 1.0721114517087988 -0.5294037677555204 -0.2573306596695117
Ni 8.772663898846288 4.920332989300889 1.0235047536502944 -0.7193707532683934 0.013081001553674245 1.2606152224125837
Ni 6.296615032490077 7.223405712363368 9.211920978378204 0.8493194492461051 0.0484300704769295 -0.13289286620770016
Ni 5.701467781728894 7.806268509922235 13.334757387806116 0.2117581132460353 0.6845737001938661 1.1875257015157612
Ni 0.5044493384101524 0.8609184051960638 9.77546819862098 -1.2345624911895898 -0.625614962271471 0.5182549502275526
P 2.9447260610779713 2.0041510284727937 7.950781529137013 -0.06206463054122859 0.4973729645722209 -2.2348427198886993
P 3.5425970557701545 3.6860629058655148 0.7049408165095511 -0.9301827005510754 -0.0009752194290757397 0.030126644182051344
P 2.87977949126378 8.310345173909395 11.030885025055786 -1.162885791479894 -0.6504541328023379 -0.7341198865531099
P 0.7721952071950086 9.162656180209995 0.33308351669724817 0.07967000232781762 0.8812332672355663 0.22490133549621266
P 7.093310132307682 6.096383046211132 5.497712411831097 -0.7452255095479682 -1.0515503397279955 -0.8139086738469788
P 4.637726152784393 9.007715638621535 6.47190635812516 -0.5567183964100734 -1.7909487010712253 0.5019009343495615
P 8.217047742435028 8.596089837049105 8.989352451497533 0.07850400704417447 -1.2902045060339262 0.4285108514931846
P 4.343120120031327 0.06636917390788236 1.3062532984659037 -0.06706696885182643 -0.707257257834311 -0.9073559324645469
