# total energy = -340859.4429654805 ev
CRYSTAL
PRIMVEC
9.28858427167912 0.00000000000000 0.00000000000000

0.00000000000000 9.28858427167912 0.00000000000000

0.00000000000000 0.00000000000000 13.59478198609263

PRIMCOORD
 96 1
Ni 2.0407390672572943 1.3416337897151454 2.1293233643594225 0.4143648990101057 -0.8768330812853415 1.634495531045082
Ni 6.982182177666186 2.7166971933793267 1.5960276716027273 0.33671244133294914 -0.2957776507918003 -0.20117211020007292
Ni 6.905393453432598 6.591346427142821 7.139109089537089 -1.7635623386384724 -0.6657174867193114 0.38408193175584815
Ni 7.1887695752323175 3.2044500297443803 5.0185680813846165 0.6481578805689934 -0.6857751767011352 2.8682599518134086
Ni 0.5235343197922492 6.803906384244722 4.752763174007624 0.49442905145254856 2.2023879417941035 -0.1652877375986379
Ni 4.433478315179403 5.735979300346815 2.060248809168535 -0.007274679284542311 -0.10162079556729596 0.885523667080804
Ni 0.9645265663984152 5.385195924190843 2.362759414084401 1.4014072888627025 -1.7521399557341437 1.2409154299908112
Ni 7.437164889548828 7.831112315724575 0.27665676010737905 0.41622766325045735 -1.1052393446110191 -0.10825604149562647
Ni 7.708010711482682 7.12474336546552 9.095330401783638 0.591002000183292 -0.37376332343865953 2.449715981724949
Ni 2.8883316492143605 2.048132780150718 10.89352596266771 -2.417723230868436 3.0283931417943 4.156116783550765
Ni 7.986148071885553 2.8111435158671836 13.188420195202836 -0.059338232749001026 -0.7572428457238184 -2.796210442145326
Ni 4.055813776820455 0.9530272993606529 9.717073849457119 3.476809731072477 -3.664750173073624 -1.4141496761300354
Ni 7.138239678071229 1.0999076787371758 3.510145690126522 -0.7651531017098306 0.670075249467375 0.331985468170925
Ni 3.324542132758297 2.5080384415729515 8.351627845704812 0.3073393874874707 -0.13360763288653763 -0.928904090948968
Ni 5.28774010047501 1.622241913471849 0.18944624458431739 -0.19302788382638367 1.5791715616617965 1.150221051528032
Ni 0.67416078511088 8.426371223733458 12.883325506207886 -1.8226012949794999 -1.2590787311633993 -0.7056387483942815
Ni 7.453605683294255 7.951733868028598 2.8491942003746096 2.208130757815152 0.4462306373704508 1.8536625351606784
Ni 9.033668136654248 8.97541942615844 8.642692128511925 3.8486809796947457 0.018711203256258097 2.568305286825783
Ni 6.227317530150137 3.3584547530772553 7.517682980273256 -0.6215107102951103 0.09322357264253622 -0.9722400347324417
Ni 0.3056157785594239 6.86878714374292 0.9654860771294337 -0.5442593447111143 1.5629859530408694 -0.333705021965193
Ni 7.238621405758707 6.187701719232483 11.621880062483857 1.0585244570529835 -0.33059990067730805 0.32377850688010046
Ni 6.008924342273024 3.568785450010284 3.338810326697479 -1.975263116284011 1.6941122142664502 -0.5532718326223697
Ni 5.942919664106352 5.353939838906458 9.621937385175315 0.3847707302927567 1.3620804662386221 -0.38757888916551314
Ni 8.882505720036683 4.232111101842045 11.182605275066125 -1.3643152691064115 -0.2933003928959013 0.5371798121565136
P 5.390016699306028 4.468022559212874 11.631681376359662 0.6046077638921846 0.671478557572805 -0.007920283288341198
P 5.828716523371871 1.454322891251601 5.571209108115098 0.6480277827490324 0.3521136063793678 -1.329107610857027
P 8.0230980591846 4.6625626632830635 7.828215206363446 -1.072551624570011 -0.17130900409205335 0.3172962415898664
P 2.8678688985809275 1.4757888089610265 13.09619291544141 0.12276349108318213 0.8849955624914758 -0.0014701567876232746
P 4.777843279765832 3.822438102891716 1.4817632262136022 0.7519828828764598 -2.7387820248245283 -1.2453004464323845
P 0.19666440323944265 6.210560924547453 12.081246986031944 0.2621728182531614 -0.2818623262622888 1.2313182732206795
P 0.7005320040502264 3.3592071283842495 9.510066607892517 -0.7830019569657934 -0.6745271145911416 0.2978695003238225
P 8.986937270364278 7.689043422879199 6.966074844087685 -0.680972098885537 -0.9066517073086707 -1.1782833569818871
Ni 4.116124552972466 3.898558049074642 9.855536913979343 0.5428385531041877 0.4889767700887256 1.3689640807323327
Ni 4.8171711445783405 0.721795430627646 7.229337466013761 -0.19569026114989524 0.0587129404601763 1.148221761709816
Ni 7.121157972027252 3.459226601294285 9.797392235624754 0.010594487686394658 0.8168890966315414 -0.04516759767557382
Ni 2.7308437068676237 7.764921865877165 7.993173956851113 0.026539183941109133 -0.7866056151566517 0.011798535296824841
Ni 7.209148728609418 0.3281257331146042 12.441958000806626 1.295228184500763 0.8101376368403208 -0.45327443159110975
Ni 3.775846565362301 2.9112558746175896 3.508691097866333 -0.6603711348057337 -0.3948193727780103 0.157843879726083
Ni 8.407255317785385 4.473623575387164 3.260232621178372 -1.0206091700644488 0.28842506708147103 0.5028581560565082
Ni 1.5157854518241967 2.641561837104319 6.937131616228503 -2.152911432330531 -0.945997813206461 -1.1928010909820876
Ni 9.336791788116555 2.378397674169035 2.88459485185629 0.03557352622923551 -0.7815541687756733 1.5668523779748111
Ni 2.9744182460689492 6.052190566717204 5.849644632065557 -1.1935407973615897 -0.36040901361894057 0.5744389536182881
Ni 5.052859675932283 7.051391417325609 11.628432229663531 1.9682411764402234 -0.8283143077493477 0.7155218118359483
Ni 4.930724084430234 0.004386998240658431 12.333212832052265 -1.0446371575479299 -0.1393864443518438 0.4227340969104074
Ni 3.91511959441255 7.237460332754087 4.037758627169403 1.038499162970992 -2.844309097424766 1.172789166636535
Ni 4.642257818578258 7.717912342066086 6.313525807455611 1.0559415268171557 -0.47923177488681984 1.2100297961555484
Ni 1.9898469153187643 5.46510561266085 13.68260351829668 0.13123579022025142 0.11953778505703286 -0.3445244811782002
Ni 2.743206812220824 7.232398054453941 12.158071935743276 -2.570041809900916 -1.4491642445320074 1.1364275972883653
Ni 0.4585959710730215 1.2257772810220846 11.963992545441322 1.3041625108759154 0.163358381786409 0.29468390350698925
Ni 5.4426551050435075 8.83101909871979 4.359425078944701 0.07361094061793129 1.173877000384075 -0.5372309771094231
Ni 2.1624195181415318 4.452473469534995 8.364447949392629 -0.011394614990186827 1.344339597315433 0.654275563430957
Ni 5.103380284509335 4.945613684641489 5.589820643949965 0.9708724649609538 -0.11228264615651629 -0.513277037396987
Ni 7.992854429560241 5.613156353626032 5.478248030214752 0.3506092539196994 -1.4647741831551224 -0.41714837529251386
Ni 2.2390224706943793 1.1660423970803646 4.888194444700184 -0.8144403779807329 -0.542733137874575 -0.5685724675351821
Ni 8.16505548902153 1.5709039094995452 10.421338006573398 -0.5801336900102202 -0.9746635565722698 -0.09262373427500821
Ni 6.795026497905384 5.901455424965342 2.048978041298082 0.08306848648640533 -0.46045757960311023 1.6291255249824201
P 6.883054408823698 0.41187996651751124 1.376661968976943 -0.3086233964062169 0.6397102640222725 -0.6984301464609842
P 4.058182365749881 4.49979880520333 7.400238123709874 0.5967021358918626 -0.29314741225780483 0.5140313990645082
P 2.5927131736539217 0.5716705488470114 7.853147623635466 -0.4892343946254865 0.46351050749682104 -0.45014822725730214
P 6.366274747343129 6.050100635308889 4.223354753670398 -0.2047102052603184 0.6557578044034383 -1.152242452833435
P 1.381453949481613 6.281265626236829 9.229551369976182 0.32495658634860164 1.0874642800157852 0.38739274129663603
P 3.68584947462815 8.466340000844518 10.8795772960194 1.0504172545648167 0.9633507026626118 -2.4575997553484
P 5.157040434490879 7.0476109636225654 8.550532655413969 0.18547526829010638 1.7091603668488242 -0.7972034452771561
P 3.2127726010415008 9.027091819156077 3.3502297119125233 -0.001940154445506336 2.5336324180339465 -1.2356258994570979
Ni 8.078290825532243 5.079508623534335 0.4633415086575068 1.304736123991198 -0.282694592355597 -1.414614788691912
Ni 9.096282481647426 0.13825778681500858 4.085843769011961 1.1733316694035665 -0.6187046083048829 -1.241546892927223
Ni 3.505976044752329 3.6785765133272066 12.760660465415729 2.2096533651072656 -0.1335065885322991 -0.620880275799963
Ni 1.8179245133785846 4.732700761346184 11.07579120293305 1.3412717570233867 1.4252015630688228 -1.1113102333954474
Ni 5.674349545261554 5.851687191695285 13.61544612685102 -0.42879752949566796 -0.7580103200174623 -0.8761591951467683
Ni 5.5956473727163525 7.994210562829638 1.7321788075581523 -3.109134522809426 -0.770004773375177 -0.959201970601561
Ni 0.599605036479779 5.602827448176927 7.073514037926449 -0.5981455532066086 1.4258641363534863 1.4290340494410356
Ni 1.6074544876850012 8.694365450367965 10.670802436912563 -0.43288481219116415 -0.610963016686251 -1.3171334692142864
Ni 2.734837798003519 7.115296875499927 2.1584300712976554 -3.0455521700720904 0.842031143114808 -0.8364130255970821
Ni 2.594171481347725 3.377217692831924 1.282545391222398 -0.34351609451834386 0.5554906946505596 0.3614829634094097
Ni 1.16933055582945 4.694654721130776 5.16399108192574 -0.0017164684704744633 -2.7798831657402125 -1.6443559687789293
Ni 3.661327612770563 6.302582926601662 10.000674754990532 -1.8423959611079235 -0.09461351101152737 -1.5494719777148345
Ni 5.693372565369258 2.2390038935263057 11.551404788820193 0.20795905121491925 0.527471326619498 -1.0414387052152905
Ni 4.888916167679857 0.8928883620133249 2.486634757376574 -0.737723287633652 1.144908638176183 -0.06821368086175994
Ni 2.4261409961190337 8.946773432988442 0.6600105561889679 0.7933709589049434 -0.11207515813140052 -0.5898776567708615
Ni 8.425126553472504 2.1174441942345483 8.069944103916626 0.5782668120048106 1.0691305147036039 -0.20825061431340908
Ni 1.3296329391393868 1.2898685108771408 9.457998521214906 -1.4370211814115703 1.0414212217137935 -1.4198449267425997
Ni 6.087171374200414 8.826291209444975 9.792361538510333 -0.38374331746950685 -0.5178232620067728 0.6831220553490042
Ni 7.155488578627873 8.424216272236883 5.761128141626897 0.6512095229111236 -0.19965130268017228 -1.9011883486557837
Ni 9.030779387018752 0.9430606486889896 0.9267749742969795 -0.41864064356732417 0.17501782040220826 -0.8643218361922081
Ni 7.232964658080196 0.07809377029078078 7.773537027571449 -3.767598670400434 1.2599343942954753 -0.6853923394404197
Ni 3.6566183006638227 2.7805283428813476 6.086900147546535 1.6705830207962584 -0.03350584506692939 -1.6922797890434018
Ni 9.097109165626716 0.41434515672092165 6.214147246844125 1.1417240698006144 1.6475215109911043 1.571452595750984
Ni 1.2095687018775811 3.259865722108912 12.687615040549039 -0.15651950448770463 -0.3558867002685548 1.4575558110298124
P 9.29034886793173 2.7588394991550356 5.104078786028913 1.0822302853103554 -0.7609223514579347 0.45921367989368006
P 0.14950440436696544 3.3207245247191044 1.0381841089531416 0.3908344199883334 1.3784295970206069 0.07414470163421424
P 0.5143804202238205 8.698368830087896 2.177245027122931 0.4922083896521458 -1.0560176314707297 0.14517194068536934
P 2.70579239571993 8.388399492190347 5.6096554863025 -0.508780177967898 -0.6872283642078939 0.6963748065938523
P 8.69553581195662 8.693938175502263 10.955164077478603 -1.1802458800248963 -0.06906754422162299 -0.43072868508010975
P 2.7872161233879624 4.825855970652903 3.6460116665520124 0.13155229301940569 1.1349486987499937 0.21798275399950845
P 3.8671626350297013 7.258796210286994 0.278339851534877 1.5349681276717049 -0.6231413039199978 0.8571741694038334
P 6.11175825614626 1.7307418636076337 9.027682573100828 -0.01333014145000285 -1.120041442620858 0.1055656391476569
