# total energy = -340857.16238756216 ev
CRYSTAL
PRIMVEC
9.41589277365097 0.00000000000000 0.00000000000000
0.00000000000000 9.41589277365097 0.00000000000000
0.00000000000000 0.00000000000000 13.78111084726178
PRIMCOORD
 96 1
Ni 5.43128479341079 4.772803150999025 4.400143764173348 1.0190626515129353 1.045456825235748 -0.5135811989009671
Ni 5.336250185759725 8.803003071876525 10.00668563166999 0.7017923780649978 -1.892775184891424 3.396754063270466
Ni 4.571208882713153 5.797836090472944 12.71510038893885 -1.2626060275903677 0.6357546218086341 -0.7105277010554667
Ni 9.107296484683369 0.9972937188120704 3.991203058591989 -2.274623342220747 -2.427013140810794 -2.776636633778457
Ni 7.111682714726524 7.8903111513152036 3.4095155559880665 -0.8800189352124909 1.792793467589448 -1.1363586917236428
Ni 0.12963895587046778 6.894797036272681 9.7809508970118 2.0393748591622556 1.646980807996286 0.794750098640657
Ni 7.068849817648877 1.370266654873335 2.1737634063601843 -0.9884888924911363 -1.4299393348641245 0.9050085152782928
Ni 1.2113357975918204 2.870529127960344 3.6368764153605473 -0.2554984915567793 -2.591115856962396 -4.385434502947119
Ni 0.2337551922820059 7.4910207944291365 4.400832065948765 0.4933836409071697 1.8487936371041516 -1.227010646984261
Ni 1.136601855163751 7.921609579516149 7.554626092967105 1.278063499796018 -1.7094213338196946 -1.2041131735607973
Ni 3.5847999361635052 0.6842906050166964 0.15767760192846267 -1.5083106729851765 0.9786824479236756 0.19664748285684197
Ni 1.4683896754154684 5.638368527292676 8.332308232313247 -0.6399727736550398 -1.187731132658348 0.6690990015970347
Ni 3.2993100615989257 3.08287634600719 12.896405291073279 -1.8391993085474971 -1.0638870069164774 -0.7500111038620696
Ni 9.39347371943407 5.199135952467858 13.516541650992405 -2.5155837880623517 -0.7356262958953073 -2.3468659417362416
Ni 7.963811611765438 5.351692250215065 10.460097599704136 -0.6416434764892432 -1.5784606516377009 -0.02112418357312491
Ni 5.095099751146485 4.1317597423502415 8.635023541459898 -1.0049411245098887 1.3453245869365218 -0.6718631946057332
Ni 9.412164266960808 2.1985827586149593 5.590542382178037 -0.3688484026355454 1.5609424402482794 0.8999182452395791
Ni 5.343086124049101 2.004003330584714 9.616913800977766 1.2193613579691194 0.5728083599934005 0.9790380314908816
Ni 3.0241117580402532 3.8191709278451325 1.639621455260676 -0.2706500024862371 0.7607202627494576 -1.4761153191995544
Ni 2.6683322425249956 3.691642073587129 7.421624721720416 0.7117019238692258 2.0747365264910007 0.3997376360152341
Ni 6.451986422122846 9.220061218779193 6.620239013435328 -2.4729813800107925 -1.342859927446113 -1.2352204364885628
Ni 1.469321848818565 9.154244126984786 9.58739497654637 -0.5740854269336113 0.11712789006395959 0.7852979520888218
Ni 3.2944514608312705 8.077404944441794 11.740390689392713 -0.36055813760229516 -0.637647982176605 -0.6456016898060429
Ni 9.202029783759695 1.9812262855130873 1.8000334325048892 0.21258138047827904 0.23450209181077034 0.7686202343228247
P 5.552231938489353 8.94636945809421 1.6192115656793378 0.6198981143923517 0.7157565535545737 0.21156039541293242
P 6.553508580023745 1.702798330668938 4.9284977658699916 3.802723539128025 -1.822477624917442 1.2626826464645737
P 2.1734234926243077 6.970538479247533 5.504079061888981 -0.9462071010037896 0.46065246922273567 -0.16684222656995137
P 0.39204765202079395 0.45591000443658564 7.430540630764783 -2.328085832915262 2.1583981664767147 1.8141696192723789
P 6.430546433851621 6.047055945353395 8.972330016575809 -1.214727972962166 -1.985663742792045 -0.3872685570139459
P 2.3135131480917153 7.995825647831388 1.5699306651022897 0.4556066792687122 1.7593231037461445 -2.1029117033736364
P 7.8094662943557225 4.770420930079999 1.5617303639229267 0.05751969148302352 -2.237114803752328 0.7165438253425594
P 2.405129786598093 5.006128978562029 12.225898611761565 1.072124050114289 -0.6337105947954118 -0.5663752027735471
Ni 3.371059165958494 1.898413506924846 2.7781064890165417 -0.08108462328715713 -1.0748941566602586 -0.09500688979520412
Ni 3.5088136799716794 8.656152805263424 6.664476761742693 -0.14417486687942266 0.022519778369070893 -0.5935031693385907
Ni 1.6467266880887246 0.18570589050420086 2.894859795370465 -0.20466186852088622 -0.11615189930393545 0.3257687978372519
Ni 4.477765560972425 7.971862200246728 -0.1419511775057133 0.933138954965922 -0.36541006637795775 1.2371523634039532
Ni 0.9939228291321852 3.191243858090427 12.42554567338319 -0.710760385891563 1.2385279035952412 1.1939454889991759
Ni 5.327935952275539 9.48302827738208 4.179563289321775 -0.5579250151236649 -0.4963892605027128 -0.6386134314136679
Ni 5.158468710771142 3.625646079826472 -0.006262510408077231 2.3598633824371746 0.4911472953774832 1.0773097080802867
Ni 4.522434557177384 7.345375762114991 2.521047903246413 0.29489499107653083 -0.6058969150172533 -0.1640278970496078
Ni 8.916850633662815 1.3243359290116592 13.22691725782884 0.6698891015984979 -1.643467909747021 -0.7482491268656404
Ni 7.336628397554618 3.652330720476736 8.520557355506098 1.311349772652974 -0.00702502516758145 0.2526949606697132
Ni 6.537256748773796 5.740794610917792 6.726174400366848 -0.5205244629880197 -0.5618127802138453 -0.28636844166275843
Ni 5.396568396065157 3.130859736534272 2.270451444815126 0.03920289545170668 0.12196130689686091 0.41253607333148307
Ni 7.386297232921642 3.230122080124634 3.7446865065805186 0.988656271306936 0.38839804263269884 -0.909233351992918
Ni 0.7444280301772852 2.0687187629027335 10.580476024847881 -0.08910132294404655 -1.4557390695360477 -1.3587408603424278
Ni 7.612551724871254 1.6766409800244657 6.972512050412068 0.8394741810209091 0.8853187501588495 0.7615160191778757
Ni 8.37714106505572 0.4678964361753952 9.859544413964409 0.7480187560223891 0.8288174726380113 -0.7515349967057637
Ni 2.37568628931038 3.8169958565712405 10.165498790289497 0.3058975128346216 0.5267231355995639 0.016734024925229248
Ni 8.042085929946683 6.740216321538951 12.230419181971937 0.33108943871921687 -0.8622613541187536 -0.6099158063686593
Ni 4.24770704826674 6.864129472900095 4.904904362878683 -0.392769175117201 0.06728499839990348 -0.22848776729589038
Ni 3.772345692152202 1.947658627108644 6.930520934165096 1.3409418844877938 -2.143707911454392 -0.7475431019375512
Ni 8.032246321802884 2.9166670034671522 11.127944289254488 -0.6289918491635038 0.06046257616143136 0.08745401714861067
Ni 3.5178529372138296 5.986860141656451 7.5040213178398 1.56415477653799 0.28265294048438416 -1.1427499399619674
Ni 7.2310668215736325 8.275854304478834 13.517533144521153 -0.25100060368642574 2.226815478708849 3.3651701178165974
Ni 0.6538424319500907 4.408596411284054 1.528477196343366 0.8162614903498717 -1.7012477968699669 2.6712324599093287
P 5.22970935691084 7.316713783943006 6.767214511424803 -0.10214581483283054 1.8527469653249447 -0.4517024591182995
P 4.720243636493106 5.193665318657765 1.954492682219428 -0.32511882295807876 -0.11461515094443486 0.34371381235144677
P 6.527671369739933 0.37670539603083597 8.640302091053597 0.8259344946632614 0.8508865366229088 -0.5044766654965376
P 4.561331610997511 4.012281476573528 6.196180150116473 -0.2764884635448851 0.3575957125398616 1.57977834200786
P 1.2136897708319636 3.9769436302924968 5.165808399333909 -0.22680318050461581 3.12679003110766 4.471542547590796
P 0.16815184125780427 4.233357227394826 9.517262581008133 -0.10105566709244533 -0.6574603889168419 -0.3711474830823672
P 2.746578313027358 7.552638397963128 8.807660172534824 1.6201037810997838 -0.05439117315637084 1.7021888206269975
P 3.2347735312471575 0.8180819696827769 4.6832071631219865 -0.15698795948369093 -0.34455353464392274 0.7212671989601579
Ni 7.868277961787462 4.085301726482774 5.957340375635758 0.6763798515291641 -0.7400285387280611 0.005746672675790103
Ni 4.135205959173811 6.57163417397285 10.271048125609635 0.5798015034817822 -1.0454162018057995 -1.1767185835979284
Ni 1.238849036822615 0.2414545679558666 5.622031953006082 2.017795333219267 -1.6302051311998442 -1.8358316776268446
Ni 3.058263201808252 4.272706244077062 3.9419767701941124 0.737185155741995 0.6138817329949428 0.643522438679511
Ni 8.512127306538497 5.898115350503049 8.02095101660738 -0.9995608340345816 -0.6916516900865701 0.41280706760468255
Ni 6.256399493545819 6.046246178558786 0.5295818341387024 0.49826925113424503 -0.19718612896913137 0.2908573306720475
Ni 8.45928531524376 6.62602037171312 1.9179721997825487 -0.15625982306841477 0.7027593699639575 1.9015351904722413
Ni 7.662474789348214 3.1121786049004942 0.08335890037995448 -0.15626445105410508 0.3274544130697909 0.9248139800399944
Ni 0.6271446090496815 3.0163153986688984 7.488545356169802 -1.6225843814297929 0.1599259590660923 2.4063988069945523
Ni 9.23713223271671 5.117961539254756 3.7653167280571345 -0.49067652638865167 -0.474353363748596 -0.3962635614237046
Ni 9.502142540092045 5.936824086463965 6.0354791049583705 1.6267053455767018 -1.0130655533892359 0.1297715469698991
Ni 1.5644411995062755 8.6455787574687 13.147469719384706 1.6747749473904188 1.999192887626731 -0.7637523647075621
Ni 1.0169352715278261 6.5472470112049646 11.875734734807994 0.6416807574850819 0.9814638673235548 -0.40640476362276456
Ni 5.122471751982871 3.969505074853644 11.393326524401761 -0.3871322885463978 -1.1275040695464904 -2.0042965274018836
Ni 2.2768570767962037 6.512389375464922 2.901433971835537 -0.6787390957899601 -1.852371841373713 1.6709393756944126
Ni 5.905375003975651 1.0583275369825058 0.16214826790614278 0.15903352915880997 0.8253670521955655 -0.7365547212468476
Ni 4.781023225553605 2.483470016030062 4.663720972640081 -2.617839389000169 0.49438688536070335 -0.5294130237269012
Ni 8.513021816369752 8.149144632908401 6.860292496518661 -1.901362926560435 0.09862288928123661 -0.7280340853703462
Ni 1.9859813114581768 6.065087380372892 0.33025491287773634 2.2738653810088003 0.3084267070143785 0.7241555762515464
Ni 6.961273240574329 0.6181938612013607 11.779404500285553 0.19358864142586016 0.03605843628545403 -0.2841097275355688
Ni 3.9226421755888716 0.424985387186175 8.879334891340003 -2.466995594741003 -0.3259755145314192 -2.734801700020541
Ni 3.2286626167157455 0.8191459655873217 11.147444603575835 -0.7691835630254623 1.2032575104287213 0.3838551604570228
Ni 7.471887699933252 7.7056089950006 9.657320222439473 -0.9734816204490266 0.8049761472440394 0.4747164035149695
Ni 0.14569117018965297 7.43242569253549 0.3168344406410314 -1.4282038402302564 1.1541209008030704 0.07271568249717154
P 2.2799831532591144 1.729737200429138 9.095740359252856 0.3364944117848721 1.5600903766606293 -0.48436961033401743
P 1.4014050128939506 2.355573941946596 0.6214056222902121 2.334923424662385 0.5125375881278013 -0.9551488835781099
P -0.059451948153059146 8.997205864188347 11.623209901498381 0.06940384451511918 -0.08516522111443398 -0.4095078280281205
P 6.1317801502126335 7.7038670548028945 11.856151560628593 -1.8872023187893368 -0.10744922932361495 -1.1082377651177107
P 8.639270109185118 9.342185350477827 1.2892975081267741 -0.09884657525626848 -0.39518986874355166 0.586423379673674
P 7.65878375930767 6.498011306914128 4.756164326548396 0.4940690970099685 -1.9988316476325703 1.6022695811318404
P 5.007079983751047 1.6662552500889536 11.875307253267582 0.21052629772146322 0.8297911494051904 0.6917334511670991
P 6.918016628313455 4.397429162232814 12.38097742723291 0.5543959189244839 1.515145179408507 -0.4634855677961566
