# total energy = -340870.4126648074 ev
CRYSTAL
PRIMVEC
9.23570201468791 0.00000000000000 0.00000000000000
0.00000000000000 9.23570201468791 0.00000000000000
0.00000000000000 0.00000000000000 13.51738345756335
PRIMCOORD
 96 1
Ni 7.673621351963838 3.186769660382578 13.266379062859345 1.249552793950835 0.31440015098899404 1.0058196704601
Ni 5.955485280100736 7.0938039947803135 9.706643134288203 -0.49808516014789705 0.0358648322174092 1.5363048442052574
Ni 6.714105823570866 7.589724237076053 6.0678043436186035 -0.2949590115452469 -0.20998302362348353 -0.5625805116178053
Ni 7.701688649645915 4.246178539130711 4.704913998956042 -0.7383416379439414 1.346778802884545 0.7428040445906691
Ni 4.995637266444007 6.35883608354572 7.600946538297999 -0.8075451935227963 -1.0272014785699857 -1.6566820944444498
Ni 7.115692607977588 0.757918630135534 7.550539925172222 -1.135531310726341 -1.223849218537144 -0.9676398169562691
Ni 5.252759203748711 3.136222664589882 6.2343526772252655 1.5581283678382518 0.26766212350250673 1.8083944073514986
Ni 2.615892462513383 8.143857107634421 11.702241853036464 -0.8296808490795711 0.10857511539794204 3.5699677405843997
Ni 4.683082647109747 8.825571962457415 10.855066630275433 1.1800885285114255 3.698767153449017 -0.5448509555485263
Ni 3.585918219521756 1.2211260167583842 7.583671158135338 0.058320590117764075 1.6773051700114405 -0.08737945515693338
Ni 4.94747308170823 1.7742152530166286 9.416047319484678 -0.8289308582874241 0.14288057354803135 0.7767505767394429
Ni 7.845590118939902 0.29270432551784503 5.345881861135551 2.480246289103322 0.742847753344411 -0.6081211763620816
Ni 4.086991983405715 7.9906368152534935 1.8969217103163425 0.536347031842573 -0.2753384091008419 -1.0577240726388752
Ni 3.5520324297239485 3.5387607262790177 13.084123571250739 1.0902932648241481 -1.4435235013064622 0.9498395555500544
Ni 2.7548805384651964 3.2213204207078974 6.241083656675971 -0.027252922178682096 0.6320501763738534 1.5854103434826567
Ni 1.7000156249883962 8.97830276264448 0.42824009614765823 -0.13869353204987728 -0.26289812645496013 0.20943717842234252
Ni 1.073585680966622 6.433691446399694 12.74516223341283 -0.7033576656695887 0.3000307696411994 0.1501951049315736
Ni 5.105819188572065 0.6394615192206582 2.962023475636122 -0.8423682147392525 0.8409006290547905 0.560120737223403
Ni 1.491612014525729 1.3333767360831463 12.266862786525984 1.208607204776409 1.215855915919022 0.8176149190539725
Ni 2.5633413194363794 8.251360676248888 4.214827949469044 0.3396350142963828 0.37131511900848313 -1.079268374468554
Ni 8.084009760158326 2.213862364421652 3.608897569098187 0.20551444632916865 -1.1513981025552686 -0.5001063043429839
Ni 7.721665472576593 8.752046540658466 9.355029808594196 -0.0667275832345367 -0.1204502695689732 0.8883724493835088
Ni 8.598447584504926 4.868517067267931 11.943688957295425 -1.3131348895778545 2.0258750249036077 0.0750427879684514
Ni 9.017305131223424 6.600488220383995 2.593567000622339 -1.622616777329625 -0.11565001996685244 0.21641900905681438
P 1.433260850736536 0.3880241563560058 8.343401832958344 0.828137158741535 1.2063793438871546 -0.13842588021078742
P 9.367864663345358 4.845677176788243 0.6707206754347926 -1.2883839078854198 1.080867600634874 0.9430706122573371
P 0.5101312166107815 6.205717383884273 8.235803136615635 1.419574960910665 0.6282292599658664 0.028495793446847696
P 2.9366022065114383 6.861803166292735 0.20058466534333666 0.3530140067064501 0.7719482702547931 -0.23673175247223743
P 3.7468410871797 1.7344186140853797 11.792821921725746 0.1022813119694303 -0.2354246036250397 0.30681411111162
P 5.865714258886594 0.5142928238287953 5.083387516110654 -2.132080868738425 -0.3155867150979274 -0.6693589401266408
P 0.20738214184679438 3.3487915765512715 10.736113562175456 1.1923112958298627 -1.308152862982231 -0.8761697366697297
P 5.706518467459826 8.3096102473186 7.953966461371729 0.1521763970276605 1.4634801469340473 -0.4500075879143798
Ni 6.8209444216578206 5.766735243006761 0.08042541459206526 1.346806313688371 -0.09702263467365226 -2.448130896626016
Ni 7.201797055588643 3.238230990650603 10.989834914088076 0.10706870605574463 -0.7762013891041922 -0.41181642155663917
Ni 4.089374794462634 1.033881399053083 0.5670397637833436 -0.4367381244989833 -0.5757859545644858 0.0745434797345297
Ni 1.78297993399731 7.316652242812828 2.0728230391064986 0.850285155593484 -0.6276029392357773 -0.049733362669385314
Ni 4.872728547275508 3.596012841557461 11.254424839844814 0.3191978294879535 0.3130189543707512 -0.7360947508912936
Ni 2.349608709051844 4.760348528125952 1.1452796631043818 -1.1337968445337379 0.9092809174014017 0.968609637068706
Ni 4.542829280015305 3.224691451854313 2.0584679878438297 -0.5060666356914768 -0.19138006381031555 0.75764985135425
Ni 8.462534997242857 0.9720945542050776 13.193235999113714 0.4254669224605382 1.3630492579097944 0.34998370452055855
Ni 1.822813515735643 5.8049618126369396 4.16267855941908 -0.061699533892326 0.7299968655236718 1.3395056662618996
Ni 6.988221452134215 2.62084279866264 8.704775448283945 0.42783002337607606 1.4848033338918558 -0.3122568793937461
Ni 2.4847547330669206 0.7814216440023807 10.248393699482188 0.8433184944676638 0.08656364412385738 -0.8455669241822082
Ni 2.022886523200866 2.3084451862584867 1.005362475554405 -0.3271060285914366 -0.47915695578482637 -0.5366396233823274
Ni 1.388338397322381 2.422155146463067 3.190142538669348 -0.8787943187767704 -3.8934857947142625 2.228411619551375
Ni 7.559680499214983 4.455902854946632 2.2008732734509144 -0.7504936999254429 -0.21514271344755206 -0.9557754614185152
Ni 5.022614751317105 7.0844759359916 12.19803279550741 0.28596220736327527 -1.0899320248299875 1.825622341194011
Ni 9.077558849577443 8.604820218726918 7.344886706696959 0.24801555291617286 0.17770770852954554 0.10156757373185733
Ni 0.8103986583089005 4.6169827295346835 6.315605610696013 -0.17380991613703614 -1.1066755628369134 0.4513828709953516
Ni 3.2379723910010143 5.435256670743717 11.831467792216328 0.22787738740540106 0.6225116407557989 0.054505330136731936
Ni 8.688153955806673 4.499061289322526 8.984571957006636 -1.2718481150139258 0.061851743199474125 -0.12384026908712867
Ni 7.250423025412971 8.916146489725636 2.901276570807531 0.3533346232706624 -0.6426181816976868 0.4389150775456441
Ni 1.9551795935176481 0.5430574169945819 6.087444987004816 -0.009828041834015332 1.4713844893827885 0.5672393505460553
Ni 4.247286823343232 8.576595914114735 6.073617294313272 -0.06492832524226883 0.12665742682094963 1.3620935788647444
Ni 2.6007089688018548 5.2892679328494845 8.13801922054497 0.3330126238838587 -0.09750831606081917 -0.724012622915779
Ni 0.9366756379132838 2.7955360976611487 8.431048642765155 -0.24198297356884776 -1.2436829654336194 -0.7284248930508617
P 0.7895416729994459 2.4997627484447995 5.693102687067268 -0.09370822558843861 -0.2057820981682585 -0.8654119839325934
P 2.845630544067065 0.529457846136781 2.3162031757461286 -0.7907836577937414 0.2533390220116153 0.6516499528826519
P 6.871020396660196 4.528162985602954 7.308416767543625 0.012349779814604538 -0.027037977954398593 -0.015709183205140687
P 2.5986309359033792 3.977539681717567 3.1927516244196563 2.1963167958993592 2.0480039955921634 0.2750429893476102
P 5.942629183235501 8.411276852413794 0.6338517539649515 -0.027380706005798002 1.2384304587854285 -0.6209340118560339
P 5.971333744339776 2.9645032615616365 3.7602522497213724 -0.10582069258125647 0.32188231829865205 0.36122688153454563
P 5.956769042646905 3.913351554409101 0.6404054079416548 -1.4376811835930725 -0.5439814084593793 0.05610018542767758
P 0.10937102751256363 8.428538379023797 12.31717427192352 1.125583712595326 -0.35803537118044143 -1.183956238996948
Ni 6.469960047254419 6.737758455806403 2.0088584157808906 -0.9901529104571205 0.78725790402867 0.37585980095637206
Ni 7.220305401937732 8.34812312370368 12.1047355833571 -1.827647856264472 0.31555431919809523 -2.0765918345321848
Ni 5.621910203535674 4.783317718430435 9.288523520141208 0.5062216732121024 -1.269277526073272 -0.5481026297166044
Ni 7.675006707229488 6.669885283491307 8.089288887290632 -0.6826610565521856 -1.1336947717382346 -0.6162564038747065
Ni 1.2679325533338237 3.869620506523405 12.669937442488015 0.8046604157758336 -1.080917480036203 -1.0633992686467815
Ni 3.4604881537697736 8.403795933979282 8.551799901999948 0.6787622357184117 -1.138600436569968 -0.18247221979772446
Ni 0.45735656955092013 0.05826711890307651 2.8131698230525237 0.2109754694437399 0.10031878892642078 0.22727343527281504
Ni 8.054575578614143 2.6059456117060136 6.441911220975886 -0.014824723717658339 0.7489250698867425 0.3570760925909657
Ni 4.549876120466581 5.6547708304369 0.8841060234327387 0.5236686650439561 -0.4679544022007876 -0.8245535551553348
Ni 5.896820102451329 1.3972693209349403 12.692363573528363 0.5568711199378539 -0.04268545468366842 -1.8305213211575246
Ni 6.7136809812894 1.6894869249694535 1.3963596043104967 0.008223930571689061 0.12150005098972622 0.8280980779734837
Ni 1.9318317394405542 7.213055376047495 6.558958963800507 2.509629627361446 0.045332662498528374 0.5982591959663374
Ni 3.9626886732697955 5.8779423280314 3.132883034829488 -0.807206579236455 -1.9100846227041488 -0.7351254449994887
Ni 1.5040155620041848 5.4044648410391956 10.230699018459125 -0.9442870011629415 -0.2698496180721288 0.34344693184330527
Ni 5.53912137286041 5.20455807620585 5.051500332176092 -0.0783620821496715 0.026462307956586682 0.5932406597058235
Ni 1.4025244352426405 8.015924166702497 9.835018465334958 -2.172702498914529 -1.6066797943843942 -1.418067780237519
Ni 0.29215757197300174 4.363287237587021 3.308136017355319 0.572605242843659 0.3666745349126782 -0.1825059012491373
Ni 3.9779737597008045 2.185342517352797 4.71848586270853 0.08561464994702675 -1.6972096222448512 -2.5853653276318638
Ni 2.7591474326834 3.007670931639301 9.757144875142222 -0.2997178663864709 1.1517719409549194 1.8200075661103947
Ni 4.953153038297397 7.568168109142534 4.125911230668719 1.858306718800909 1.2035637288152305 0.22955991731414654
Ni 8.115374203372651 8.226729059625626 0.6587585945009905 0.7636520916842718 -1.5945778689145376 2.5964647799791347
Ni 9.13567912082236 6.6081261457486145 6.044554387980282 -3.0936382269460396 0.2976823240136809 -1.9386014991969192
Ni 8.430450169290394 6.673376378760746 10.499775648136215 0.07875957469840629 0.8050237126525233 0.07739483314039573
Ni 9.181894572484456 0.8889640025642859 10.701050220401843 -1.0604990642808512 0.4391896713632695 -0.9524651660983597
P 6.68345252939291 1.085001008355581 10.507710963097859 0.6609928275501326 -0.2426244638075886 0.30621041608935007
P 3.980347335055952 3.5717875958121224 8.221948660388954 1.1127747337561158 -0.1423892357339096 -1.5070510895464626
P 6.280923703405544 5.530679941441713 11.320429629691635 1.258118424132659 -0.8982030623206854 0.16694558491703504
P 6.9327148844904904 6.56754447216683 3.9847213634146983 1.662884623710736 -0.3915746405884675 1.642396016839081
P 0.6434143995786473 8.529161349818867 5.089538493490142 -1.7403511906293319 -1.0594958198273172 -1.0477726178531181
P 9.042703311093678 2.144474537016112 1.5511333417293076 -0.8478660046290301 -0.7073719290353043 0.3401435785016852
P 3.6092476021953077 7.056815009187448 10.288174637720427 -0.07002605148015037 -2.056796139962496 -1.445698140360278
P 3.6857469199645196 6.207324395992426 5.449100064128273 -0.6992752680700989 1.0807225904165774 0.4106000326510348
