# total energy = -340864.3095265153 ev
CRYSTAL
PRIMVEC
9.27116361209629 0.00000000000000 0.00000000000000

0.00000000000000 9.27116361209629 0.00000000000000

0.00000000000000 0.00000000000000 13.56928508988239

PRIMCOORD
 96 1
Ni 2.9760713044588623 1.8896856339661101 1.2633573482902578 0.1963086114601845 -1.0872848170151275 -1.5726224476893689
Ni 1.1037042039542129 7.462137011952011 3.153704943331929 -0.19478446150617423 -2.515396868862526 3.414711419079835
Ni 4.188025613710726 1.7675195122200378 12.629707407713376 1.1740376943316555 1.1841824960751413 0.9033869205144699
Ni 7.354674955553839 6.198273458133383 13.677839330392782 -0.2356521462548135 1.673977648300104 -0.3829745576242824
Ni 8.521089309579422 1.0726643484783194 5.003212135937262 2.813777247384496 1.4316403767156314 0.8241388362154194
Ni 5.311597921095297 6.619898161680937 6.514437749487438 1.45388401860518 0.5605475403481766 1.0982202329807085
Ni 2.4040868708909846 2.4232318235665287 3.2829125137739217 -1.087923993261023 1.5489294749478033 1.610452631163265
Ni 4.048717110610135 1.818789046503697 7.186157651773199 -0.33509855987861 -1.0018313752363133 -0.3862174900416123
Ni 8.66652605176889 7.475923232111108 10.179854365206142 0.6501702830133319 -0.18695725215227157 -0.05746595542695264
Ni 8.485107923945627 7.561560969575512 7.5170853439217025 -0.14080595040718974 -1.1177068809504105 0.2615156442851367
Ni 5.190766846896575 4.048689297119566 6.844374354255304 0.3407634714738712 0.1808364839665144 -0.31898185682240543
Ni 1.7990878240167574 6.457485919080369 11.082767418038877 -1.998079085737262 0.41406716526402887 -3.7995942494704233
Ni -0.16145453140861538 7.727088323119899 1.3298417890319485 1.832735298089708 -0.48443491635431407 -0.3563464135137927
Ni 7.412258152196841 2.863241244380719 1.9457001497409767 -0.7020993677824553 0.5320108663610644 -0.4288867467753646
Ni 2.589537954846868 7.616872731155316 1.6294403654026324 1.7883644852838168 -0.10263586709537162 -3.2322582254455043
Ni 1.612329506004093 8.278064300144056 7.6874068161239695 -2.5147756903387593 1.3834884996007526 -0.32925238551047814
Ni 3.9743994638076376 9.092128084467925 9.234916055238797 0.5174676784395669 0.4226065701936077 1.7790599200534394
Ni 0.9786918350064981 3.255958460062731 0.9599835541329003 0.42572197589413774 -1.283527865344699 0.8399467497819535
Ni 7.148641888576305 1.645409017455105 6.893210208114106 -1.2553925405610638 0.4318036633118434 -0.7608076802569413
Ni 2.944132146121212 6.684879746815508 8.614093913579413 0.3044409828937531 -1.8861983030048548 0.48180802025442826
Ni 6.649148682596841 5.92183517536017 2.4503954055733446 0.013866216459130956 -1.7945621294540965 -0.48669954401877474
Ni 0.8385229679309485 8.52793142825959 11.929083726027482 0.5488269094771386 1.0964240603122342 -0.5853304037198114
Ni 4.889240795629405 3.600057694228738 2.4587134934864183 -1.1490463144936405 -0.0396590091525188 1.5034955109847203
Ni 1.0965932215318681 0.3163738196496807 3.3076489051703466 -0.15706432124758113 2.5102819162334638 -0.2301355873119585
P 1.6547728926136034 1.2204281527121283 6.922180739891607 0.6707825599470448 -0.19015184783016928 -1.4317290797746955
P 3.0754767197553172 4.447163905349526 3.9277784909145437 -0.2092438314646138 -0.9705302511301866 0.31349666533811815
P 3.963598558303033 1.9562433168996345 10.039452791926157 0.5761693060458335 1.201731560702498 -0.551604729332592
P 8.492098381242169 3.2752795648452167 5.850017034243543 0.018852099709496563 0.754956620792803 0.24089873936573347
P 1.99021286004888 5.021225079546615 7.499038097007314 -1.168984191068148 0.31074712761743906 0.87398275632074
P 1.3833873939605696 0.19393605281237677 0.8990061845240293 1.40346160028857 -0.15964853703498955 -1.027182195296276
P 3.17936010703351 8.695127591238165 3.368127486181666 0.9274370194851383 0.7252338969173897 1.4754406617300333
P 8.938356566271041 5.280289201877229 11.030716324670204 1.1529816449923045 0.3702357699013753 -0.11316196343767608
Ni 2.100613875283928 3.624672633383008 5.927307943187953 1.063756137765568 -2.889962890708139 -0.3442789408262974
Ni 9.267946429523136 5.612484262079362 8.661220164884524 -0.03712878653149734 -0.050919669668002626 -0.5882702030744256
Ni 8.484013926649881 3.085443220542828 11.580055014216153 -0.654715222071537 0.7313752339284373 -1.581771975399121
Ni 0.28721230190360075 2.7021640493275005 7.83463381998978 -0.15469787789793357 0.6076750899635986 -0.6602860312910951
Ni 2.0199454814679934 1.528592357061957 8.974182196357644 1.4359426036354108 -0.22902975584228943 -0.21126034767401036
Ni 0.30976718852300156 6.628798478663273 12.915584662069627 -0.40227145818068133 -2.372358429580392 -0.21519105018698423
Ni 2.8604506241602157 6.247429167133738 12.863193316999652 2.2880707259749045 -0.6827610724651596 2.529527651836953
Ni 7.063755115357283 4.8549745752474145 9.9486334011686 0.15987350856160207 -0.7286046131618354 1.090646791508825
Ni 0.5629802795540823 5.177740862146387 5.537788351805116 -0.35154230725693003 1.6168482502769639 0.12520269665229403
Ni 7.952201444628313 8.642838228966946 13.101782074689133 -0.6891942296850131 -0.205719106140807 0.1732553291851468
Ni 8.679171918814623 0.456124557250331 8.035662312897456 2.0412083128265683 0.4868664086139421 0.3883386501496731
Ni 7.596012613227969 5.644645928341571 6.164404043550189 -0.6380241345691012 0.17416807080740326 -0.8577881488387484
Ni 1.0456759914620928 4.99895574476373 2.8208099102837885 2.451672077010055 -1.3050503127975073 5.286537512523418
Ni 6.918763389016932 1.8010440395201663 13.266553828406373 0.6692782074873763 -0.373930188033827 -0.4935193951540855
Ni 3.7817539569576994 8.285592484924948 7.201287263526816 2.3204661115864744 0.965904322322401 -2.0351297107326562
Ni 2.6174812417059914 0.8617045852045221 11.254337715967727 -1.391484373322036 -0.08607590585416143 -1.332652647895808
Ni 5.156296660917073 9.2952685484262 4.915351173459978 0.4643175767791488 -0.3664824735065301 0.23963195683816796
Ni 2.3759581607613964 7.742645335511939 5.511069785647416 0.3344624689565079 0.8710771526381708 -1.960815059179481
Ni 8.404587868746063 4.14536899034018 3.7593566801181937 -1.0539700049130816 0.7795250541607865 0.9829625633562684
Ni 4.772674456651385 0.9613547592179912 2.5928051128724676 -0.9724732337891703 -0.9628269689486578 2.099159435420056
Ni 5.220239875737036 7.712718019658837 0.14527449682781202 0.8797245439005236 -1.7078681303999619 1.6034096082735547
Ni 3.6217058610555632 6.51591279160399 3.6360659662367496 0.629066411155181 -0.11553072078016877 -1.09483177612445
Ni 5.749317364519242 2.3707663091883675 8.757100683809433 -0.39038190583194704 0.3285299055221568 -0.15674216202147198
Ni 0.5805519157797278 1.5094103197323205 12.56009673063164 0.7817979093553632 0.38925807664014894 3.56333712264176
P 7.801526495048199 2.5742219927064336 9.41711110656531 0.6737560407530718 -0.6862338615051085 0.8017985208470062
P 9.187138968254352 5.565915207701998 1.4673146017549326 -3.491036930415452 1.3385980668459656 -3.820731545669671
P 3.0927210839085917 3.605379342091092 13.484708014574224 -0.9205665176175499 -1.3501610890932167 -3.527418040147647
P 5.319051936568003 2.1109326802853228 1.026363230726778 0.7657647671519004 0.46279471237671915 -1.5149770292617586
P 9.581840212930343 7.571175166149139 5.575754693549241 -1.6991250941000093 -0.9020702585855753 -0.20603869426375485
P 7.435204281916924 8.566110079648398 1.9784700043303116 -2.9219710681836197 0.7740010390187638 0.9008237877729841
P 5.034955672724572 8.980271496559725 12.118972915961953 0.8564079806617703 1.3819216693342653 -2.175950830648498
P 7.678757747673115 0.15667339237966724 11.195731909988107 1.4467224678597344 0.8894093752884554 0.29706217393117873
Ni 7.483265993621533 3.936016846821317 7.814686911669475 -0.19583629980945627 0.6405381592402065 -1.0554597020847307
Ni 6.965517866664761 1.1429397679846733 3.519262285472534 -1.0297746386138007 -0.6659476004522465 -1.0848111586636542
Ni 3.425602210211447 5.671281981143914 5.771885230767574 -0.8104623671695913 -1.1301343080804858 1.1636877185558991
Ni 7.404655798107764 8.585579523047256 5.7284090365415725 0.4811241068135262 -1.4959542083023527 -1.4053017388211024
Ni 8.147730283333987 7.057654689758975 3.736655309115126 0.27677822687116205 0.42133387412877116 1.0792277510386057
Ni 4.174016885627071 6.848005869007368 10.656773215122806 0.83406946506557 0.3977805122888633 0.11770664538556504
Ni 3.114628843314069 1.0250476526228265 5.150208287831345 -1.4281917560453985 0.25133253310454784 -0.26965524267313556
Ni 0.32381856395886305 1.3125835181333894 10.462515452936172 -1.8536939026192465 -0.6177062489473555 -2.423125118610298
Ni 2.7465821937674666 4.719207656612712 1.498551005897519 1.86721790524761 2.075196496846555 1.3289608008665177
Ni 3.4834820840871945 3.690961452574358 8.570930157564145 0.2317759511288589 0.23623552956210928 0.4210783064745393
Ni 1.3488152251823118 3.9522135694964624 9.658522006431275 -0.12410457849210886 -0.12590409359469285 0.6960924994667431
Ni 6.5422614383371105 7.495225794566546 11.463820582892268 -0.6450496739573148 -0.8640102184890603 -0.14089053970119605
Ni 5.989255076501358 1.6761058398806379 10.986846105994465 0.47462255824958266 -1.1160858004072198 0.19249849368547492
Ni 6.26458081965178 3.731467166007506 12.052022135695042 -0.7513704461034415 1.149391099427569 -0.7547529894224292
Ni 6.549993588715514 6.820720834758396 8.963258911494533 -0.7965269880354217 -0.17274522231794764 -1.209123482291195
Ni 6.872351944419463 -0.24522134807402568 9.313197124447491 -1.486217440630563 0.7839069852785661 -1.0576641659352173
Ni 3.1926827690164425 8.71626584407121 12.883724308621924 -2.366807674965492 -0.8061999923488116 1.8940993030194861
Ni 5.973670250618748 4.47675745931579 0.5801819963551496 -0.24718174416096786 -1.0133925977113516 -0.03902574644389408
Ni 3.294925160351017 4.468441225635421 10.997104648432957 1.4785912915438728 -0.16406209272165295 0.43505225215612814
Ni 1.3154575788256018 4.173840733520129 12.223998510586211 -0.4682955875902902 0.018712745918154867 0.5296171693179073
Ni 8.376208837201347 4.113782136216414 0.11908624122364339 -0.7705968984332213 -0.2121782315025894 -1.0223804030322585
Ni 5.462263599511888 7.885198745845672 2.734590870866475 -0.3935083672760707 1.0544600571756229 -0.036159480639692564
Ni 5.999564610339228 4.398879685720358 4.394535218493355 0.21474496378850114 0.5898072085442423 0.9704040099649675
Ni 8.691131719759637 0.9218892703321537 1.163855512893161 -0.2082956086187316 1.0955704540626874 1.4345359530958712
P 6.008956298988298 6.599214195860532 4.508666022813813 0.47642413023469565 0.4560231979808404 -0.029352742130504286
P 5.9353339894500445 9.008261139236463 7.053029306277217 -1.764507219050245 0.2782733233594498 2.124875609239237
P 5.034111996843954 5.234489654072296 8.846142792519583 0.03708224956427807 0.26080216315787985 -0.44248891093983145
P 5.403178474378116 2.3807142676488318 4.6662053418665534 -0.8214697740236885 -1.589623867343372 0.32657278179578597
P 9.135072113907691 2.247775053888725 3.214997532500591 0.9501933393450473 -0.9868220463116747 -0.9253261437897226
P 4.617502992762486 5.883434016046803 1.3527610323778136 -0.7993621434913718 1.3322957787770215 0.9932354060371862
P 1.8409934831419184 8.485840345863965 9.794974991166699 -0.10020283217384678 -0.47656117003319215 1.3684796848967462
P 5.153181549973256 5.719380777502616 12.265656629645301 0.58402813996862 -0.29987521789994165 -0.053949971853894184
