# total energy = -340873.5966201252 ev
CRYSTAL
PRIMVEC
9.22037433823029 0.00000000000000 0.00000000000000

0.00000000000000 9.22037433823029 0.00000000000000

0.00000000000000 0.00000000000000 13.49494985372341

PRIMCOORD
 96 1
Ni 9.42128610595976 8.95398832350334 5.731723883374555 -2.438434238163542 0.44253441946578626 1.177345675658966
Ni 8.01666352784116 1.6535726802539834 11.626290638742942 1.6896840032917675 1.2639342594834875 0.18220508217926684
Ni 5.247591541789291 1.7318352160660253 2.8030490648062742 -0.6533026579947264 1.0679223533281157 0.38183298782067143
Ni 2.330809161803758 5.682203097872751 1.2109292562457028 1.8383099639640081 -0.3671512174387806 0.7812587490224416
Ni 1.7969771594581174 7.175341267861709 3.130774355556616 -0.14866992653629882 0.06089837814726931 0.34206470678379797
Ni 2.751940530875295 2.7674030983301487 12.884424522503174 1.177397611942824 0.26020258190066803 -0.4221039195255763
Ni 5.131792862799725 7.471425922668058 12.997471841845437 -0.751247804482648 0.11361242071153337 -0.5221843671889459
Ni 3.168314186883801 1.707788480274578 8.104621287075254 0.2022689428086775 -0.6937522813693406 -0.36589009133816985
Ni 3.1697802263741535 6.223503603282453 7.235235896323237 0.06233305371126684 0.41953847279124523 -2.801354962460743
Ni 8.126570387746856 1.5958254769327276 7.64263536216847 1.7947953285108251 0.18911980702122916 -1.5595275621786238
Ni 0.28087749171553883 6.8309510728669425 1.1268578847171686 -0.22752694604451784 0.45280623370543954 -0.20235841719869022
Ni 7.200900145014276 8.382159159272517 7.162890074605278 0.012977643206590552 -0.05018330572261035 0.03101521743459175
Ni 1.0592089215928318 3.1372691871101033 11.152900955083526 -0.9879157935964856 -0.09094763212416596 0.1722104328604002
Ni 0.7794203560647813 1.369714241574727 9.33653519285614 -0.3436518487652598 0.12603727673844745 0.3852196449047172
Ni 3.19175237798114 2.079904340347904 10.670928947162347 -0.8725362536822006 -3.2931746013149024 -1.089187176244163
Ni 7.091574168680229 1.7218311101098442 0.5363445543023775 -0.6165801057627123 1.0249376222364737 -0.5467288892975294
Ni 7.157573606868565 4.228140873544895 7.917095473473408 -0.4036673100869435 0.5927467507885404 0.8741406220548429
Ni 0.8787044229086183 8.709307254600871 13.067929330936826 0.18814227359930824 -1.2233295985882482 -0.15245227639686648
Ni 7.7037055883345245 1.9170817531772102 2.813602705061984 0.3371166187499033 -0.588774910624986 1.116238009714368
Ni 9.071059414126042 4.007690947916936 6.46900620752197 0.37413844738989116 -0.2127238195934143 -1.0907522067384374
Ni 6.682595252742559 6.344714641899926 0.8444332142187291 1.0216782347589115 -0.09640685546652429 1.2228806839762874
Ni 5.77827017617455 4.771294674159382 12.795074486771954 1.149895292757497 -0.4983402135814966 -0.5455053013030735
Ni 5.703188669445349 6.416716543661971 7.324168249105319 0.46034187996085235 -0.3158692793353528 0.8251526221919144
Ni 5.911237191837303 1.3115705621648854 7.486917073282787 -1.8127156604346715 -0.9895268468373475 0.3746724655164902
P 7.673361336996468 7.409409686113889 10.39313567060104 -0.07941443467358582 -1.0906061680788766 1.233992991839365
P 5.90769656816249 4.1009273713537135 3.533247375491814 -0.13942578223021151 -0.9673811639782437 0.15138372592303606
P 7.0126569863033135 8.82097520596982 0.42057722458493224 -0.14589467778400678 -1.6230944882969918 -0.4518628959555637
P 3.656652863157739 0.8501692089794114 4.566973949037551 0.3164230949562938 -0.08616666579575483 0.043540089374479854
P 8.59343481261808 5.779035467229262 2.7421199103647624 -0.5285686734487349 -0.11947607858116198 0.3800501848886358
P 4.779546909026464 6.889592652481055 1.7036568306165458 -0.13099719184688408 -0.9865551658035332 -0.09320223248629755
P 6.954476425396859 8.194524545255664 4.9512026146358865 -0.5677551138402093 -0.050708324988144926 -0.19393496902168536
P 0.6025265558989462 2.0894935294671932 2.346663595160121 0.05894485396532429 0.5908299933818019 -0.20221237853912916
Ni 0.9709699409470679 4.253487682091938 0.0963021978427042 -1.1789783261663827 1.314686807446007 -0.8551095735653208
Ni 7.109517016782283 4.02400178979388 1.6172213551551409 0.7220300452681113 0.2197665853728086 0.06730839543867118
Ni 4.715400766042912 4.576864644391648 1.5878830466371934 0.7477940416060928 0.2663585741997348 -2.0517058699237825
Ni 0.6421492697473309 8.102173277737588 10.463957364471481 -0.501436336008317 0.7911081310126957 1.1005213703100596
Ni 5.506813140731297 7.93356029559871 9.557554937606762 0.2021553000489486 -0.18936123360807386 0.43588606091133314
Ni 6.570964182870223 6.2986312118824195 3.3196500319344855 -1.0886328464025896 0.534077519082106 -0.3723008799605201
Ni 4.308856028881678 8.428224148541716 3.0667268705765043 -0.47849463961047917 0.5959387753632769 1.5140390908285215
Ni 2.9348450929515773 7.851618830499555 1.1463285488164014 0.0027094285113630754 0.6941397466157464 -1.3264467761954124
Ni 0.8402932662239593 7.341077493264803 7.428497704685765 0.2629516054007149 0.9042662377956298 0.9593811764919026
Ni 4.7493594040490095 7.8887861587109525 5.5365193421779555 0.2587547937105479 -0.22230837795805586 -0.45171300064126074
Ni 6.5031206698512545 3.4738866066937546 10.758538176253449 0.9590474473015679 -0.02671221918386367 1.6679476400559403
Ni 3.669662811087851 4.8985727189696355 3.43951212981335 -2.358498640879164 0.2824881327717458 1.675525452403198
Ni 2.035941596385626 0.8006622540388368 1.260775520955114 1.0105713262124725 -0.23907968387912373 1.1107980696457191
Ni 2.5239852206866624 8.763015934043041 6.0308521836888636 1.8459708229433756 -0.16438990837471687 -0.7983087625261929
Ni 1.8858339051721429 5.3157024456587 10.752829842615228 0.8990276151045098 1.0046328492408503 0.3629981145023555
Ni 3.1333505280950096 7.603867377004083 11.199782869502695 -0.7545372738671973 0.4384628204995739 0.3692448667430157
Ni 8.79834840779796 0.06713815439625168 1.5614869595115202 0.3674566644943414 -0.45703904083986446 -0.07244417400333975
Ni 0.48244593515265166 2.029229164002124 0.05216057862185475 -1.4494758622351551 -0.1806451938913147 0.03170735840560991
Ni 9.258085483448786 6.074382492103359 9.408962153866645 -0.6181312522999161 0.6915473032982219 -1.7195669068941288
Ni 6.4437506806790426 3.0830994889602743 5.991164005183992 2.2567459477196943 1.3950687482391846 -1.0185291476069684
Ni 8.705840393919281 7.853103310738215 3.801054986845245 -0.9375892774277917 -2.3203272720157653 -1.2567950773355454
Ni 3.4831807438401423 5.393559285008003 12.769784844544661 -0.6726237269208416 0.24093267792746248 0.049348982746773074
Ni 5.168148798085643 5.289064784730215 5.181858572413981 -0.045323149416831625 0.6969877575875029 0.010174112319524415
Ni 2.679339304793295 3.1109911207735905 1.6042658074325322 0.5512211207409281 0.9035460718001536 -0.504019780464777
P 4.932789527452021 4.269079334784935 7.011381808557931 -0.11414721016908083 1.6177329668747622 3.6726432026684557
P 7.996286500962673 3.7927640264067213 12.965704886775546 -0.4461275361336833 -0.7173112996362033 0.05544018324617549
P 4.77537007953508 8.559927972945486 7.657871108419155 0.0964006848189372 0.9644866160392679 -0.6497545356321519
P 8.09316497218995 6.32382127406886 7.529844369227664 -0.37904694043510206 -1.0604108754424189 -0.9448194766276439
P 8.075452633441724 1.8885262544248664 5.242598709185353 1.2903261192134552 -0.4809965800967264 -0.31821438252876166
P 1.8927860672836274 4.380249385949614 5.058662387241332 -0.33506590686846166 -1.1603794801182725 -0.1331299219191707
P 4.584618979054457 0.3791408631406207 10.601160220020198 -0.985236961212742 -0.13793942749267213 0.5557526900626946
P 2.2136827489361366 6.691234743324073 9.017716783537752 -0.8288632382742822 0.32345403366114617 1.7073976185214466
Ni 1.3363825890110452 1.973362917008113 5.674505007492276 -0.7221994809664402 -0.07370581432458273 1.3152550212446508
Ni 5.077641605398202 1.8442223566189213 12.301766950866877 0.2469544586415102 1.306104979314267 -0.8293854293263394
Ni 0.5401442704908958 6.2845332598022345 5.42139375050157 1.2106185787794828 -0.5455526096012411 -0.707937314620471
Ni 7.6694795594779865 0.13990534721300896 9.575530057018353 0.022749120771057594 0.24093293503777863 -0.4750370200791818
Ni 0.800374578365258 0.33581985721940266 3.660073621968562 1.9947289383181064 1.5699402728715155 -0.8605929652773953
Ni 8.432087485311891 3.8067974358678347 4.034517626515561 -0.287243388068544 0.052163569377432745 -0.09036527725813469
Ni 4.881699434269349 0.2739797298115581 0.9549043610225979 0.2936485202639394 0.07204153924828238 -0.7745000901423693
Ni 4.092748899479859 5.240805346412563 9.067269840349093 -1.069982578291254 -0.5728533542987231 -0.23111209229261487
Ni 4.2236782124547645 2.847657234959274 5.792585729084749 -2.843055427523323 -1.8008896143340212 -1.4953533414935603
Ni 2.524012881809122 8.851669831525697 9.254526419025666 1.328009749807158 0.1398944943365139 -1.134751495137523
Ni 6.173741243977836 5.615770302099216 9.911527867458911 2.684066121338887 0.4230729683070649 -0.1782692374599704
Ni 2.394992186283921 2.3710837561047717 3.700747458470407 0.41433893086817675 0.6745304570252512 0.2155728590064352
Ni 5.105874391055186 2.8453798025434427 9.026218890544383 -0.2737345549488318 0.5615834378118587 -0.45721747539925767
Ni 6.451929152552897 9.301236834485588 11.819281368105367 -0.19850664755276778 -2.208819042131428 -0.134036235783524
Ni 8.005912571578573 7.209023294643212 12.65865444098884 0.28970007713915263 0.9183594826639022 -1.3687699624436558
Ni 3.2091881055047695 0.3873193350144757 12.631421143890062 -0.5079507400880671 -0.5537251181097045 -0.5938278996678612
Ni 8.739291911346955 5.0711504619943755 11.323962868597485 -0.9214152387710904 -0.3902422949302892 1.410185549275965
Ni 1.165372309592343 4.593203147391051 2.7918352457611983 -0.443307807296701 -0.9082807582716614 1.251034263592368
Ni 0.2200165680427601 3.8813533812703054 8.73780466499605 0.14471659831550562 -1.3254350471014464 1.3660805885369505
Ni 4.22981898164077 3.9331257821403116 11.02857250796487 0.4096011590728752 1.4793759922286973 0.8143303347654298
Ni 2.208316491178996 3.642167655363121 7.205614522318787 0.26255745528608976 1.3252805238014531 -0.5605051171460154
Ni 5.828604198676663 1.0465770090029993 5.135907915784281 0.22088655790986475 -1.647312737414408 -0.9873761190429317
Ni 6.699947996898811 8.69676754575257 2.6746857819581944 -0.5183683358769654 0.8048033691116011 0.05668382584528947
Ni 7.580180235804608 5.6275816013894175 5.288643413631415 -0.5737064463276378 0.6307021469863913 1.5940253388451773
P 4.756671160752467 2.515548578336519 0.7281255705759085 -0.6422841953970357 0.5101323211204182 0.9732702757691691
P 1.5580127225306086 6.6141247542811765 12.706480521721295 -0.5358577509109804 -0.3588290707263304 0.23473529086749897
P 2.69635089510588 6.831310667458916 5.051051890415312 1.0157153323072572 -0.5966805386253079 -0.5002142906757578
P 1.1063342538896443 1.0178924250125112 11.661148263228972 0.684307333906357 -0.08164563799694971 -1.0950791162485656
P 4.624967336348696 6.194062948611406 11.109379867043184 1.0248697451130158 -1.071747640611477 1.0418292557854898
P 7.7911977186738826 2.3921615314189 9.587014955063532 0.7425770161815275 0.42604902021625335 -1.2703157375297993
P 1.3390564975154622 0.49396863673185865 7.408187064501179 -1.3193165929085344 1.1192356588901111 1.923273096369965
P 2.434547591400988 3.6119985911339736 9.405602249525232 -0.27021317205913464 0.09778188143718 -0.7608310772957091
