# total energy = -340871.94639527466 ev
CRYSTAL
PRIMVEC
9.22862254363435 0.00000000000000 0.00000000000000

0.00000000000000 9.22862254363435 0.00000000000000

0.00000000000000 0.00000000000000 13.50702193607079

PRIMCOORD
 96 1
Ni 3.988730589928831 8.501130131497066 3.779602622578799 -0.23151678393020128 -0.78205116301675 -0.2794418897462542
Ni 4.732751359527738 0.33388879123128673 10.152026402276984 1.825359060230295 -2.0339017518628264 -2.3187748399269807
Ni 9.12880565801621 8.989545745422129 4.4200644054862215 -0.4166053583048503 -0.23465841488297648 0.7061308575393517
Ni 3.091634659945693 5.410289133081066 1.9769554987345455 -0.6470625906222855 -0.17556032316923958 1.04727639494299
Ni 5.0764714022425546 5.297386166170795 6.685786268902186 -0.11311156981571487 -1.0093629077266681 0.42851445103761043
Ni 6.565565004398335 1.868694528910743 0.9048175183772705 0.679418638355488 0.5505251231151681 0.6695332609209759
Ni 7.193258988162357 4.511282878253199 0.23165780330867533 0.8021661885990701 -0.056168576771767786 -0.8661316357074373
Ni 6.793558121736758 8.016904312158994 3.983545026980745 0.812759390733884 1.8251387166893727 -1.5894991688400495
Ni 3.7189225843224296 1.744791044054007 11.319802442686944 -0.6950889979028931 2.056266749821588 0.33479516970557827
Ni 1.0442924578741652 7.14510403627926 11.192701240155333 0.7710635536569946 1.0222377068068071 -0.5782341589946622
Ni 8.421007231487666 2.3118806642656544 10.662942320568888 -0.8866017306363311 0.667572023429547 0.9798900950785316
Ni 7.550535877239051 3.828936992409511 4.450442261966403 -1.5401211326275541 -2.1762722185436583 0.5840391957122135
Ni 2.423011735667771 1.9081930329467054 8.371868508452646 1.18781135107698 -0.8138389969513081 1.1190991333122469
Ni 4.520133127171537 6.843900257137734 10.16612773736272 1.120095435787245 0.15508765713718453 1.390593228966334
Ni 5.43564938754154 3.6303370375371022 10.786666770150322 -1.0406246939544272 0.8577848064046388 -1.8490070386665383
Ni 7.61062343793488 9.219707589033554 13.383851219958542 -1.5101837216381733 -2.5694687110062655 -0.08565115961191701
Ni 0.6920202507457672 5.845695539720483 1.321408609589463 -1.2423040828082217 -1.4824913979292276 1.014543423486343
Ni 3.095233822696634 8.2197678905979 8.951454606308008 -0.23101259060027313 0.8269197413946662 -0.46490044586581225
Ni 0.25725431050356906 8.074380172704782 9.108541448866172 0.9334752552594181 0.870973537180771 -0.4170362751946818
Ni 7.0469207221580925 7.950218286419773 9.888436642469518 -1.080987928262822 -0.5119488055038668 -0.3128438622454677
Ni 3.1770732464795577 6.218171969953071 4.419254132436138 -0.6704496020876582 -0.485524549874067 -0.3610548747330556
Ni 0.2000091655187386 2.340507851069289 3.5612211155098747 -0.3061569371435953 -0.8640521274705893 0.08065704883143529
Ni 0.5392025689275652 3.317855881775961 7.905916284404671 -0.8030349643572687 -0.6977097233551919 -0.5472603363209672
Ni 5.514794053572476 7.673184269444177 7.702568203287752 -0.8026541839790822 0.113827622046133 0.22407524005049148
P 7.660042711092024 0.8310245304983083 2.9889957669113083 0.18246142116444705 -0.5269743323784215 -0.5469057811950259
P 4.3846200352874085 0.5864531158117071 7.548102289502069 -0.6483846518678188 -1.9366456610221294 2.6154130389468633
P 8.230491549871216 4.540906756280171 11.390998496211767 -0.4077859602410074 -0.42687820098576806 -0.1429091127931216
P 3.798058021730929 6.070790869613277 8.335764291749495 0.002795560467266153 -0.25251241234526195 -0.04044088162386583
P 5.200771717864138 0.5806778438898135 13.216377562846061 -0.8729286040246127 0.10720728851613795 0.3755422697159532
P 4.679059234181656 6.826735019402479 2.488493426178792 0.6996943578853885 0.5863840417953062 0.7960523623918484
P 7.483988280836404 6.810566472890561 0.4518287402683876 0.39974174978029225 0.6174321693503624 -0.5431506850279678
P 1.9282376008827125 3.937041075651862 0.9688909211042058 0.17189084473745236 -0.7388990531093081 -1.0789359308297999
Ni 3.94807850808808 2.2328559703264146 6.3980470498981505 1.4546352949489076 0.7356543209197652 -0.5473467253871864
Ni 1.5785189535829944 6.229338603103424 8.363696563283524 0.7749189228473429 -1.4251275152977778 1.1266630617024338
Ni 8.537278645587921 7.8539729830106495 2.30343370614787 0.11129097166720832 0.19920675894358597 -0.44938846627314216
Ni 5.740027812801846 7.923953626960346 12.259297432738403 0.4233773869213612 0.11168872132625926 -0.727625794188334
Ni 0.2556937504492511 7.698867525689991 13.508102623881202 1.5349827829597242 0.6373258229504959 -0.013889356387582529
Ni 2.9924085114889953 2.6930227709678145 2.4082883914296924 0.19885657469301882 0.49747992246373035 0.2815967313057279
Ni 3.967126384800749 7.729949526062215 0.3524752368220409 0.5202598964727233 -0.13203411775183066 1.7108763210986666
Ni 2.3478261486628678 6.302263177610942 12.972994794729514 -0.2351716070739692 -0.1656165816929664 0.7375877904970523
Ni 7.611666272270409 8.894832393337763 7.566592757419465 2.085345926575731 -0.3180112653790201 0.26630509525398005
Ni 1.8545839652025686 0.559483389597993 3.355333317497933 1.2773505328893937 -0.12553719717357734 -0.538048587914712
Ni 5.294469921480289 4.780943225900586 3.82598567895374 -0.2864730855614228 0.4283234180727269 -0.3129171386855643
Ni 2.965082560449163 3.892226885091434 12.240832804963835 0.3557817992595743 -0.04271013727401677 1.4226877955080337
Ni 1.8252184886038696 7.411239050155215 2.620402741000761 0.14930961700282672 0.90207128702684 0.08378968092314601
Ni 0.5581747709362409 6.098402907948698 4.608960463864748 0.8393579671580189 0.14976830180680012 -0.6660111067003304
Ni 4.234987151072667 0.7890241469193203 1.7930170563298782 0.6156611934928687 -0.623469633793694 0.09219770248118316
Ni 6.0941208271373215 8.47682193999456 1.500076585719612 0.06590662999513812 -0.9735338138432008 0.7523618634824333
Ni 0.28548835799133154 0.7081897201199283 1.3799180758483416 0.020375992553190714 0.3635478163582384 0.20854372007379568
Ni 7.313867854808617 5.773666141589482 2.326084437060455 -0.4086238827612705 -0.5568052996969249 1.2938091926660493
Ni 7.447535222205085 3.6898431950193187 9.06961419655914 0.3754196280951599 -0.5617868120719164 -0.10215918456926923
Ni 8.689670887911717 9.326907267276951 11.187028405942504 1.1136242262406046 -0.8617687307530514 -0.14647626131908967
Ni 6.311307227600485 5.556285940055115 11.580150187431833 -0.0694390686284288 0.16307736021088043 -0.32548006295223947
Ni 2.9423801492509223 8.765050275987823 12.010511306184227 -0.36106053116001047 0.004378588683669878 -0.8591192089453462
Ni 0.7636518952496775 3.8946724700375857 10.125606701960594 0.833593553870416 1.0374205851948326 0.3305641623433661
Ni 0.30817046622020733 7.147595764337606 6.854016673054607 -1.676428938054074 0.5407135363413849 -1.721402931661603
P 2.38104918944078 9.049762506832094 1.149271729558905 -1.685076843537059 -0.23542743183851714 0.21565744830044148
P 4.401896016491922 6.07912431567507 12.349389090705662 -1.2832715263595191 -0.19470578574943886 -0.7216315242781121
P 0.07517174407124563 1.2686494979718945 6.559685449042888 -0.3029458864054653 0.5630700496597141 -0.1379607676489108
P 7.148970829080913 7.527796551551058 6.059519953029371 -0.4072609409754728 1.1752473983690406 1.2928709971224959
P 6.270175257392942 3.407290461825613 6.521298071148499 1.1963798094722815 0.5944429075440407 0.09163026001348736
P 8.495731387370654 6.316909001420538 9.205899724141357 -1.2524208595272495 -2.1514746998840044 -0.26098316882043443
P 1.7519155405763815 0.11745636922133346 10.209700678205197 -0.3253350527339429 0.585419620999508 1.1714935877535633
P 3.1362735066797933 3.5249092548018606 9.963305687724786 0.3098223018103245 -0.9820603632569732 -0.31543399157014707
Ni 6.478539094805082 1.5680075526257606 7.594633926698266 0.048994170510515626 0.3596333117951806 -0.2750620155110037
Ni 2.012494923744473 1.9609992105387095 5.3074758190825975 -1.6906093433195144 0.17459615948375737 0.044477770697400824
Ni 9.039463364190942 3.265566507040502 1.1720987271600622 0.12143551630037797 -0.7667171037628409 -0.3760163811388944
Ni 8.114801538984574 7.038965649616269 11.761307123033594 -0.950300554346873 -0.6982607107626555 0.49191682655365604
Ni 2.8708490967315896 1.5705269665514188 0.005866635284033006 0.4241692866950373 0.8683407275436141 0.897846450312215
Ni 5.722041227669582 1.9687420247644505 3.376552689070337 1.294440141381829 -0.07468000531239397 0.5314387959076783
Ni 0.2364317696960126 1.1279591488998744 8.803120189270336 -0.8312340524993039 0.16440250678020718 0.1284955084709529
Ni 1.9024436011676389 4.13537340047356 4.143832355800514 -0.8009076336016208 0.06145990707769416 -0.18632501788491135
Ni 3.1942477128372504 7.360315511540626 6.651749263625215 -0.0008988576651855487 0.06940590139764821 -0.7157262145372705
Ni 2.5058017075618406 5.488086420236011 10.735164596908852 0.7367809783250407 0.5855420055099851 -1.4730675335121661
Ni 8.010499648186808 4.874650658139176 6.959978793029028 -0.11594672527166483 0.17363739511491386 0.5723303919157176
Ni 5.094144214211916 5.395689452383661 0.8026345192913384 0.6000489408769086 0.5321736171911737 0.24155257089964846
Ni 5.212399782136407 6.9713659902556575 5.142136742340098 -0.046284484888836415 -0.8061393143142052 0.20707459172743692
Ni 6.273100730705886 5.655862776164468 8.918780668565175 0.031049413106636847 0.19441782219537482 0.05476424022507343
Ni 0.7164668715848477 4.540565297249953 12.758637889905938 -0.7448123332699494 -0.22736548076598906 -1.1395365752309923
Ni 1.7309942535087353 9.229268441879642 7.054339611736249 -0.17627200452428352 -0.3539840839292033 -0.5388145195464591
Ni 5.025667835719664 3.038579309547855 8.50454749038597 -1.2808642024696069 1.1291881421171328 0.45974924068217593
Ni 7.561739424879157 5.957426471581089 4.923350098746133 -0.45642274741210426 -0.06522014545107478 -1.2296133747144309
Ni 1.4307317938559148 2.14561780241708 11.87849401647973 -1.9996209763030854 -0.905246342320712 -1.160776201336059
Ni 5.478977769889401 9.232959890854966 5.793688560831637 0.01978720992925624 1.0727966507012814 -0.4592512179998349
Ni 6.0933640800973805 1.7162007717401258 11.570128826326073 1.929715252450883 -1.8147792278319195 0.5621444525216511
Ni 7.568780863799588 1.4257575663616662 5.2509218979183965 -0.4774607990293261 0.2733411761651551 0.10096002205484547
Ni 5.094873275384543 3.3693977380939164 13.007735021036284 0.2132717216770843 -0.4209145272031654 1.5878109825043494
Ni 2.8080944641510888 4.099760146484126 7.657306424539066 0.5485646569546876 1.2955349171079042 -0.5216446926353919
P 9.005668148821854 4.3853398678375966 3.0631228309225373 0.7069597811985502 1.370322137422124 -0.4075753868920981
P 3.740342217001745 4.061415220252952 5.25617667553477 -0.11335428195414027 1.1546168666028824 -0.006580995651627375
P 1.7501713309355411 8.047284937225907 4.917717870472032 1.2933942166158177 -0.8443875591621265 0.3120833299303593
P 8.687649819597727 1.5393065368426198 12.884509839928764 1.6466797318160993 2.91305113998617 -0.10744357289666012
P 3.913591146036119 1.3343111466204627 4.205168549112247 -1.239913213978542 0.07247759834443646 0.7703539291844796
P 0.9330044998905975 4.5251904122677304 6.263502963370044 0.16876309774174805 1.3386021806110238 -0.6979717187673269
P 5.559285242347565 3.565302935214339 2.0283496970934882 0.18873054200261047 0.6504554183539184 -1.8650967451395493
P 7.167492674314599 0.8297011460406548 9.555555616808492 -0.4527427274573557 0.7024950605589773 0.6207650903783374
