# total energy = -340868.9993965515 ev
CRYSTAL
PRIMVEC
9.25855466860835 0.00000000000000 0.00000000000000
0.00000000000000 9.25855466860835 0.00000000000000
0.00000000000000 0.00000000000000 13.55083062655945
PRIMCOORD
 96 1
Ni 0.008928950266404239 0.6001404491532034 5.939166634334997 1.7079293226552004 -1.2411542854744948 -0.684415320239131
Ni 6.633300857855228 6.113071921190994 5.927892492133213 -0.7144869428135308 -1.907007269330406 -0.5257142347190753
Ni 5.78819849118492 2.6844624181276546 1.167750965953637 -1.2356444113998588 0.824729932832199 0.18758203022046402
Ni 4.994508879418533 2.0450943980663965 10.543061715262798 0.8951609330602519 0.47755927228040335 1.0841023055220878
Ni 5.151469159246769 8.609780106166003 6.07272313929449 0.658126304635615 -0.8904198188308408 0.15383270168416086
Ni 1.802992448132547 3.450524502317361 9.384506345954321 0.28264805538837773 -0.7273992799998247 -0.20161433994381406
Ni 5.637811785277408 0.7230181369857042 8.672355900613894 0.6973250863222636 -1.4401959795951262 -0.8546110366623475
Ni 7.986123853630759 4.558643894255206 10.955806237334809 0.6207370653538794 -1.061065221196966 0.20042314784919033
Ni 0.7300268629828713 5.26139598059996 7.6907879910603025 1.8251780545677405 0.026419884754425468 -0.2938788911071907
Ni 5.623414732535539 5.146673227851085 0.5367295330607356 -0.8132455863416833 0.42449221725209474 0.19962867697235295
Ni 3.221143806703337 5.2457119887384 2.992280664303635 0.08538453621409166 0.7513020547593512 -1.0513449085854085
Ni 2.693628387397398 3.150047364256512 3.964702047552602 -0.3327668264216398 -1.669684677351705 -0.45743704760923154
Ni 3.523009727986875 8.26155660090913 7.660894895119677 -0.14689149447963737 0.20075610570857683 1.9461605424911002
Ni 2.8230259495326795 1.3478141176190346 1.737256708925299 1.0492306904558832 0.09678352207965267 1.110923282369674
Ni 8.103439001728653 3.993844274697494 6.905652358090193 -0.610601005361142 1.6233680536733526 -1.7947889007529219
Ni 4.025619634832603 6.326342731421834 6.535647176768675 2.1344869070767563 3.897849985220229 0.05696176209702447
Ni 2.957562009591908 6.782206194991873 11.16501717127799 -0.6035682668840766 0.6315997190999961 0.6124869095299452
Ni 1.5734543570866184 8.402379219689728 1.6099339889247135 0.2897581840705978 1.0775660470654667 0.07585602789836614
Ni 2.7339679107390853 8.36390992442126 5.244375053422693 0.871567462011028 -0.8295751767396423 -0.6867257135398626
Ni 3.551183510297812 6.718572147728293 0.8512444919365187 0.339649412474086 0.21374377621749643 0.14070002095694475
Ni 7.513280200524651 2.834867641144802 3.10296390958545 -0.6943793734303783 0.9139595538239937 0.6718025165711269
Ni 6.287780850605187 6.843460793667246 10.018481257834141 -1.4111522840646085 0.3401014124098401 0.5306124433516409
Ni 0.2813748877605121 2.3200271833845987 7.45654748002235 0.6702518842545553 0.40067403178657446 -0.13720923419486694
Ni 0.874356622328498 5.548781522148268 10.246894434469692 -0.34153248842941186 0.386039055482219 0.7628367948718281
P 4.857315614126561 6.781354407948624 4.633950201577741 0.2457709798563703 0.6513941281181039 -1.9967629380290002
P 2.3744026758302557 2.1077562970740944 11.138985818551918 0.8096185311120573 1.0334191773449233 -0.02270515490699961
P 8.326903480814025 0.35478226548989067 3.5712671674088496 2.031441720358108 0.740324472701925 1.9158665194932487
P 0.4591798779058186 4.2817112610963335 2.891896635401276 0.7394572396056233 -1.0957848840663384 1.1860077222093381
P 7.716903596635215 1.9465370820296142 1.0051929638824848 1.3238317071700685 -0.2722422866740215 -0.6198225239594098
P 2.1358745280561244 8.090217785448658 13.050872759175459 1.1656741528583086 1.1617745606935863 -1.0506162579495002
P 8.920552757184383 3.879732586566602 8.999472678452351 0.05306834057988925 0.22769741018411108 0.5388348312614333
P 4.984509640215177 9.331327058791139 1.0688177525912466 -1.185983810949938 -0.08391643630899741 -0.887841002360071
Ni 5.835898565606856 1.1943906057312446 12.9481852018344 -0.18785173894208293 -0.21550138233855146 -0.886877610005537
Ni 0.03917757471203809 2.353191326742396 11.848440172729369 1.6689200312715384 1.468531850425342 0.32450407219221533
Ni 1.3056228833137629 7.941562429292099 9.284364891188194 -0.4197639585384899 -0.4593419779414282 0.11577934645586513
Ni 1.3894498386352312 6.302946363396944 0.21321711061289556 -1.3692451023078613 -2.1507715031693926 -0.7422088342088314
Ni 1.62397829072802 0.5803576950737489 3.747251925676952 -0.45867503378139074 0.5010835806545887 0.1152036764580532
Ni 5.197030507505764 2.877142202443435 3.3399412494275795 -1.600582937458037 0.11088550869867353 1.1066668210861652
Ni 7.664592761913954 2.1213108213275325 5.437935326301656 -0.6330757894248903 -0.050746634425248086 -0.6313580354028352
Ni 5.838620580723325 5.286375561498715 3.212305590274149 0.27000491270307053 0.3419538922375466 -0.31851417315736763
Ni 2.833923268553374 6.142690038053527 8.836916528092162 0.4513587026256356 -0.9795820769198097 -0.5861436436497259
Ni 8.15737008354305 4.02202731556325 0.06113053404081358 1.2546204382817296 0.17228396641081295 0.5334080038189072
Ni 7.725273330190618 8.047758053053668 6.0692817344686665 0.3539540020222162 1.5921633459357742 1.4325153231214167
Ni 7.145326714950785 2.644752476513586 8.587852144935237 0.27937606950532534 -1.59166352348122 0.7841823504271398
Ni 0.5642024427719563 6.3812367029372945 2.448350753161001 -1.6554235394470007 -1.4619164019913533 -1.4220874429198735
Ni 5.645061233699841 4.313282933025448 7.251049226561156 -0.6196957685735587 0.3529674697392308 -0.7326947240708092
Ni 5.846981055723909 7.326701803833882 1.5607571750093194 0.29201304154304547 0.2286687729584449 0.7339622779293231
Ni 6.401799953187901 9.077522295567436 10.831016657932407 -2.9555283353137747 0.2970218076115465 -0.38760074354238405
Ni 0.1749746499374676 7.719570060422777 4.502127823935645 0.5599878111899645 0.2043173406972739 -1.3690103605892359
Ni 3.9730032678023512 4.266018010679955 10.362794875391407 -1.1124044949008907 -0.24517294126105518 -0.20106720919109244
Ni 5.683373133536404 0.6854209975810854 4.36508825065365 -1.5475305377177477 1.4511077414116234 2.195310209011716
Ni 6.488867402695641 0.5639394998151273 2.5017133597095778 0.9239426331786346 0.5652014941804201 -3.7858182787322545
Ni 6.791659179460971 7.867271785433091 4.031277537681835 -0.5010247023921951 -1.081417302490757 -1.04496523031131
Ni 0.2934211934341108 0.8836225839902746 9.160348401113087 -0.3207700590710798 -0.2384911583655054 1.6344312534660497
Ni 1.6050352875705511 3.6014296872946763 0.8908368499043997 -0.8321467941215605 1.294342696572016 -0.8217081152867397
Ni 3.315497738852783 1.0448834625314358 9.058933895059495 -0.48965759820583415 0.8800184209918586 1.0761359994871598
P 3.6356030131276276 1.0470962571329192 4.964062121899795 -0.11568370141826528 0.6606958651350041 -1.206185996929426
P 4.6924022357097295 2.8433762530224724 8.457967582816531 -0.25788113285634295 -0.36171796223835123 1.317834609046369
P -0.3984465358666939 6.052595041120326 5.986390819039292 0.4440007195986676 -0.27658230881027207 0.0003810374885025696
P 7.5380838688818645 5.803225125654408 1.4101945565602676 -0.1092780550022376 0.6381434337557849 0.690262008827895
P 3.107254323888075 4.710058299747507 6.878428503503575 -2.929666122835032 -4.245939558041868 1.5885674010543995
P 7.315785967703551 1.9574344010503084 11.246362833908256 -2.039719129875552 0.8559284699221903 -0.4117259187253619
P 5.999710176000354 7.335775187555446 7.676978856549371 0.042427058815959186 -0.37956836015621076 0.6125678992795256
P 8.395694543111187 7.253846235971651 10.47499559780788 1.5146543558150174 0.8879659579737094 -1.0144588341923366
Ni 3.623326169439063 0.2829951348536485 11.738095790553887 2.8490563823017645 -0.6577411533820543 0.511385476801229
Ni 0.2767557947618507 2.2606613298920806 2.3148340599872257 1.1367153037321132 -1.3875762965168812 0.6215675316749747
Ni 2.6510112595705015 2.0792954995638016 6.567843801148 -0.843814717377792 0.6807448133660793 0.5342770366874219
Ni 8.22430017632181 8.138547441598213 2.029006733214775 0.06085544072447584 -0.8641004642100214 -0.6171092387933049
Ni 3.3224416549662243 4.93293948987935 12.556227061184108 -0.16601227446948827 -0.42521289746820323 1.3129168600297776
Ni 5.0794931540922414 1.8332216296130635 6.544875178355698 0.9896302051844311 0.2920374670230777 -0.46672232956589943
Ni 7.700756677032759 5.890505521922961 8.536901391916729 0.9664954189391808 -0.641758919021185 -0.9041690500961332
Ni 8.199977952815129 5.491795117243956 3.9042381294586788 -0.6395984210347565 -0.47406668574611266 0.48949536159635704
Ni 6.86772746584502 8.359567662211655 13.202520480249172 2.94575865752152 1.4421862705522777 0.9359260307927558
Ni 6.140069867040056 4.466123155959709 9.582782000802055 -1.0879623026981262 -0.12017516153071561 0.5426729740606009
Ni -0.011284326612083662 8.380806786963968 13.448495283663357 -0.19317237982404797 -0.04768290789825981 -0.6518312156555226
Ni 3.885722871533798 8.28061996527923 2.7481631269859235 1.038025051548051 0.8365436376376755 0.9249954999231811
Ni 0.9957575706675402 1.2951607163695107 0.3488947504811739 -0.4359012304199848 -0.6967663856053161 -1.4071896998724345
Ni 5.107028096120742 7.44207265542001 12.67379404197305 -2.524253033701575 -1.6517090667098906 -1.5137912364837736
Ni 0.5871553260210675 3.2715381205772878 5.124233268538887 -0.16386566044013068 0.2491712637871709 -0.7024948034486611
Ni 1.5224119443754127 9.422616409295852 11.361043923160448 -2.9126004256019966 -0.5889751995612501 -0.13098716454455508
Ni 1.176595663371198 7.4666541184615935 6.64165485186744 -0.28620209128822327 0.6243224687122926 1.9206222890106792
Ni 4.355048273809095 4.4907601703302005 5.011002068971179 0.30840973773351404 -0.06473317851232722 0.6879616428294926
Ni 6.198815397359772 3.6133176716808886 12.520005743025433 -0.7596535120478402 -0.9941203797453007 -2.5204745404957496
Ni 3.5850513038217717 2.3534042735032084 13.308460567897765 0.29288335996314074 0.4417497187809618 -1.6187868620605734
Ni 1.9944963959864515 5.473018768073209 5.10742991739984 -1.0959098396799771 0.2735656334711353 0.2768129367638394
Ni 8.41470235615238 0.16713172815120567 11.457878222145615 1.7431056134460172 -1.5047252696267635 0.08192717379311051
Ni 7.943090090837056 8.255316334961849 8.393790984240622 0.0383469752093146 1.253169821878132 1.300149018841148
Ni 8.04485086684084 6.430066321047017 12.389673992709023 0.226967473996622 -0.25429598660824587 1.1706903751259774
P 6.48214569189783 3.8411984814144096 5.11591260532402 -0.45502535284394535 0.6332508815501738 -0.8473903505441922
P 5.4636768862619265 5.482582855200124 11.598793426474392 -0.565569161932484 -0.5114929489133708 0.4162903981675927
P 4.294108465997532 8.089088241760873 10.130058879511367 0.32326788579226906 1.0001329044879679 -0.8795525370990337
P 2.178158347909575 7.187073538624796 3.272661183276702 1.154681658402547 0.7359227440898035 2.2063875498718
P 1.8219076756255623 0.2777918270459762 7.758473581912204 -1.9778753570958778 0.0576472181998233 -1.2836883021819634
P 7.375661041711054 0.918387531476091 7.1662353092960975 0.05671673596575393 -0.7811895863474031 0.8639346280561185
P 3.57953320515029 3.608382861962936 1.595664704239332 1.8956771890295676 -0.5321337650921739 0.5713610860239128
P 0.8142278639189836 4.5879379616991125 12.405880167062312 -0.22487613868523207 0.030035112909509568 -0.6336044082348508
