# total energy = -340871.1497818759 ev
CRYSTAL
PRIMVEC
9.25088393321822 0.00000000000000 0.00000000000000

0.00000000000000 9.25088393321822 0.00000000000000

0.00000000000000 0.00000000000000 13.53960372994468

PRIMCOORD
 96 1
Ni 2.9651673035159702 5.548966919692782 11.806263840964785 0.7435604631407193 -0.5897053928590553 0.1614976744285864
Ni 1.1614022148452319 5.772199998241751 10.1131365480556 0.0015388052420296078 1.0264494308953096 -0.5337643587170614
Ni 8.972978062918207 1.878512230300827 7.661005687019286 0.9115542868166107 0.4186367869125822 0.024225448206267958
Ni 3.3416875277098117 6.614761249792103 9.287951231669085 0.23205003072585198 -0.6282850529044663 0.3345105485856239
Ni 4.915438639958456 3.1357813546401943 1.4106099251106567 0.22421845049657513 -0.4231961241484905 -1.0269225138769862
Ni 8.784916844824387 5.811849286487613 8.0738550572398 -0.718352339306208 -0.1198324334793162 -0.48998361408668517
Ni -0.1434099769420944 2.233644410998534 12.411660182865312 -0.45998809616585945 -0.15655575704227878 -0.8991615695792128
Ni 2.6001551788503265 6.141439776833751 3.0970895328743713 -0.05047923969647436 2.0405400831149505 0.6361420870550398
Ni 0.02920689053892522 6.5577665542991594 3.3995370048718905 0.6376127580632954 -0.8541430958869936 0.5607138907227117
Ni 2.903898699677347 8.97108163172586 1.5668980574813707 -0.21011594965692199 0.3889089208308464 0.6485959965476766
Ni 4.967326847557858 3.783916779997529 5.255234705384583 -0.8452470789489444 -0.14366013202653322 0.9934284958845988
Ni 1.95951296942373 3.982977299006966 2.869353124059867 -1.0058181277982032 -0.8923753998953148 1.037967201726922
Ni 5.618505813706814 2.6862346532151746 7.494482376740215 -0.7803691473286367 -0.7474055479184225 -0.3036994767420383
Ni 1.6837256196370716 7.498405676587407 5.204326166386497 1.0847291404728092 -1.0470655644837645 -0.22236982732361057
Ni 3.8827439723284987 8.349570250132311 13.02355527068108 0.3988760593458872 -0.984946940776149 -1.0680743055249475
Ni 2.7832301705408526 5.025995953030385 7.223581343811107 -1.2898430089294497 -0.7616150066495851 -0.11135293525339533
Ni 2.526055599090795 2.4095684694613304 1.2350762539469677 -0.7651538730407791 -0.6317390728913378 0.8817809122089201
Ni 6.598831227776384 4.745842186059394 7.100790661915956 0.35123865997358217 0.8245016188714768 0.7700716220573706
Ni 9.20899586296876 8.743768913392378 4.404040529011311 -1.7778314469629768 1.8131342360293292 0.8254848087203526
Ni 1.5723264761334173 0.550629259242303 5.9184046671994945 0.7359173447731648 -0.05592303641986498 1.6347025048495654
Ni 0.868922570212369 3.887545181054491 8.688377396073259 0.6856317091447353 -0.9856390817471671 -0.8367395556985654
Ni 1.0149792250282712 0.7056481703467239 13.68176953400945 0.5598559135977906 -1.4393966236222822 0.2827544990592549
Ni 9.01147099068093 7.751297088807919 1.2989073526162267 0.8329492354181978 1.578698992900752 0.4063083472542164
Ni 6.298131247740984 8.360652809002714 12.99761301705815 -0.2813401352102316 -1.19378119550717 -0.5812246090815538
P 4.395640726461791 6.534722602591172 1.407116791363191 0.5288874902407343 0.30769265706183135 -0.09634797720413084
P 7.927387663180287 3.547723213153541 8.939252115611177 -0.9065583762639161 0.06763569687110287 -0.8867236009261761
P 1.8929991144335894 1.749536407453464 7.75312876381321 0.16676535058542893 0.30456722405897224 1.0553617430542857
P 0.20102818200754535 2.6585930122262256 1.0568191225733907 0.7861770122596654 1.0036961963591942 -0.9095675954038851
P 7.210962213130711 5.161502899886516 2.747835363784555 -0.13163431121025074 -0.7108357192141888 -0.9905871697810616
P 4.667514952373509 5.056662633043225 8.32761420236686 1.0412759543851808 -0.04749830269127949 -0.40682051100394456
P 1.3938399228399854 6.762100077111709 7.844914183346059 0.8581797278502123 -0.41177965478143275 1.1835916565686777
P 7.635633287842449 8.498250455612359 8.454155192580926 -0.01731432290873147 -1.1073530485199123 -1.4627388978926488
Ni 5.98786585378906 8.33345521043929 5.3165421629354395 -0.8515370257227142 -0.9427080867115958 -0.5788303978177644
Ni 0.6751822345137573 3.4305607690019233 6.085619018503291 1.6366238902419943 1.4202683874332636 -0.16369313941800842
Ni 7.62269130131516 3.088518588973347 5.519175373293582 -1.9496276751040942 -0.5589938227078115 0.7276088249074694
Ni 2.4284217707784244 6.798715075449814 0.646147410414723 -1.2354569779794011 0.6146774894233606 -0.28172194402968254
Ni 8.685960140119306 4.098752110578817 10.915967103582078 0.2508481372689615 0.6925199516241364 0.17956610189452302
Ni 3.037129929102661 2.6444484107964725 6.073947178330681 0.005074843419746099 0.713921557228364 0.97116094273565
Ni 4.76270654734549 5.070233679673342 2.994445425860657 0.7664391675111059 0.023085935285186047 0.38760202909396474
Ni 7.026777115376371 0.7445046578453454 3.8292979158862126 0.9486758742592565 0.4286707741098166 0.5707350224041396
Ni 5.2842621287765255 5.506523864519657 13.078187290434872 -0.45171377197220913 0.18227141664082802 0.11356485530304958
Ni -0.020001336004754282 1.466320597923122 2.8160883849413367 0.26051214272128687 -1.165137306518232 0.03392339222032222
Ni 7.265505424399399 5.7911828119329565 11.629070561235695 -0.22562715791864368 1.2226238307704749 1.054225058346681
Ni 6.697612165688028 5.854773387621723 9.381523921964673 -0.5617176493968777 -0.3982165713850174 -0.17872817937425994
Ni 7.389254497862975 2.597527927832635 1.6755533888306333 -0.3720779653164366 0.29706191682086264 0.5408320641971203
Ni 6.543751465243519 2.881918599613846 10.767884505199715 0.969771004366659 -0.8084993299059495 0.2953966133032977
Ni 3.8499125854912237 0.6237362191631076 5.153471282514827 0.4990171850438632 -0.7840095722947014 -0.769966463938074
Ni 6.583983559172881 8.219484321221135 10.344446573307199 -0.3868283841527338 0.34031070020716875 0.8316202321941291
Ni 5.042046236536351 0.18086773080031118 7.190937749916293 0.3799573680645134 1.4137598968907847 1.604374286179669
Ni 8.626504709518244 3.7156915114923432 3.5102913617701463 0.8868927795141888 1.1554167367963584 -0.23878837789095003
Ni 7.787384786765712 4.047465210430647 13.458122015863324 0.06524148560731344 -0.803627603635945 -1.3127906188645586
Ni 5.410721711212579 7.171470189910556 7.546176315778449 2.189455550003152 0.3879861519062608 2.1612734311419812
Ni 3.1178253890580154 7.811067049460394 7.2296749010130545 -0.3982816202949979 1.4154272572908784 -0.6657938484832018
Ni 1.9921963421191635 8.980397271778026 9.30123365072261 -1.69126446040501 0.5205643150870196 -0.8246062627701412
Ni 3.554115573904332 3.3176259787766607 12.465195047792703 0.45369480695797987 -0.20750756549979746 0.3852908644622848
Ni 0.23516116820464164 8.406389178831816 7.137754418575776 -0.34569201912374015 -0.3364347621915303 1.2665629553555864
P 4.160103972372226 1.7170288015514674 3.144816692911247 -0.7885257149975 -0.014499993388387929 -0.6987199097872612
P 3.8763331098099774 7.650110921091346 4.714476139226353 -0.8311168101951493 1.95878491612333 -1.4569626575305037
P 1.6605799082065664 3.8145002020555827 10.7194126490117 1.1941205811244597 -1.2746094798091467 1.3693219782923838
P 8.5707033780439 5.094424740980603 5.656941385989573 -0.42542372792742866 0.3930823354822456 0.3008928605311786
P 0.6778020848243563 6.4092991191480095 12.917418029919897 -0.6281811803367504 -0.8785935156198739 0.3491475817725084
P 1.2795822562220118 8.590352255373395 2.8871990041240503 0.13281059090653902 -1.0190839916691738 -1.414324768255319
P 2.8206777484268177 4.617911713088789 4.834247332627932 0.5424184348476336 -0.4122866763248383 0.4183213125546925
P 7.323989512194625 0.8066539458279272 11.608057178536098 -0.8497449668192978 -0.4066312778112739 -1.40925609548316
Ni 5.140993690357567 0.6965295741208849 0.825734818888103 0.5394081872664 0.589232824098011 0.8203999379982775
Ni 0.43584336715563193 5.313134137319534 1.32152853893158 0.1641705932750592 -0.05938708370906546 1.0114506434936323
Ni 8.542811963190594 8.03648333660153 12.421976768551682 0.6083880568702232 -0.033749328536303164 -0.16765700916176288
Ni 1.178738371208448 4.0684092115012565 13.099485600357514 0.7829675041834323 0.6061576248778078 -1.235670379541788
Ni 3.408682428660938 3.1812957032565348 8.990445581832308 -1.3341788547323474 -1.2661513217394647 -1.2899731067494107
Ni 4.871968736676305 8.755193754965788 3.0211184993089284 -0.023506567762372418 -0.300917800231843 -0.0013562569175783095
Ni 3.8624105295929874 8.593765831519619 10.467643369004026 2.214282379238844 0.09546248927538398 0.28556677169706945
Ni 2.529089888998551 1.6701638238908203 11.035643937968231 -1.3531024311097277 -0.30671769474307176 -0.39778359761265686
Ni 8.918360844578599 7.60965680594922 10.037504096839621 0.13441341661728465 0.24435430201450173 -0.349254796774334
Ni 6.455044739860979 5.46631952324189 4.870615332366838 0.8683965204822142 0.44087451526486005 -0.5427534495895491
Ni 3.2284659600847307 4.630011869184353 1.0651643449081065 -0.21491568503841052 1.2531011734237258 -0.9553895388340062
Ni 7.01455669779056 7.184319667599194 3.2637488311462604 -0.40510404253347 1.89755383722699 -0.6187760849727667
Ni 8.082663748856158 7.186262353210867 5.673852001694994 -0.4848874305107004 -0.8136425646697858 0.36667659179520723
Ni 0.04240605163766414 1.902138987692318 10.100138131136735 0.5885982758378057 -1.0063449468359507 -0.31190052449559186
Ni 7.568555128936536 6.122484715794141 0.6625140741488755 -1.6088197235455326 0.856171439170932 0.2798283265513955
Ni 4.32065306185121 6.219128699532945 5.988308971126199 0.41900651154717516 -3.0110201977334916 -1.2816486460441154
Ni 7.576076097518872 0.5281625626874968 6.443971431874441 -0.6904263023199012 -0.4983772374670191 -0.41695657099668193
Ni 2.0107073607332486 7.587075398434487 11.601111614930172 -1.425563317283616 1.2454950789416936 -0.22888140318988323
Ni 7.074826206171752 1.2330965647998342 8.853939539518747 -1.4111183455028795 0.5909994290801306 1.3515955075468982
Ni 4.774316406596204 4.255619348279487 10.34731712257054 0.5116256178364931 2.0186962477669814 1.7175028252762485
Ni 1.983139726815221 1.807927986410038 4.078168893978947 0.5435335222886832 0.42419396928538555 -1.7007831985287227
Ni 7.521458879179262 1.042870639881578 0.14406956496167672 0.47817967947322165 -1.2120200871126998 0.5098988649533736
Ni 6.015266971797516 2.9859262869092773 3.3532317056850824 0.08420594252495821 0.00426160348983137 2.0988035947425336
Ni 4.79127327672095 1.2331243174514297 11.566788985613842 1.5331436728684562 0.30467186795763657 0.2734692171025871
P 5.02727257500377 6.689110603415991 11.137325953059976 -0.10500025356249013 -0.02989524489753561 -0.07288666085739705
P 5.836308623426963 1.5712903771405249 5.429502855635525 -0.6929279856958324 0.7583561333926553 1.1377308894808214
P 5.789249377205149 3.251343395883148 12.888200038320335 -0.060644096044618144 0.27375383822254146 -0.26469866999880864
P 9.166626814866556 1.6553346570550491 5.193453602579833 -0.6339095981800953 -0.9443355950126897 -1.414870356346144
P 3.3622614934258164 1.1451299101265036 13.343820870091186 -1.3685077099212044 0.04519896513414151 -1.9911530480413902
P 0.7040329660238758 0.1387762092140608 11.347595768048766 0.648021097880813 0.63381498158376 -0.5465859359617619
P 4.697580324935116 1.358409037636614 9.156156664508023 0.15080188527763705 -0.6216477500936067 0.7750708750441748
P 6.866311283852173 9.109493356115635 1.9438539983052583 0.8137590356429921 -1.1894668844025322 -1.0173099304878868
