# total energy = -340866.36708646227 ev
CRYSTAL
PRIMVEC
9.37690814566285 0.00000000000000 0.00000000000000

0.00000000000000 9.37690814566285 0.00000000000000

0.00000000000000 0.00000000000000 13.72405290357717

PRIMCOORD
 96 1
Ni 6.059348538092296 1.8735999767814895 6.2039301440279155 -1.588758176908967 -1.4374430994403373 -3.1391554946515488
Ni 4.040500257220194 7.796617650240254 3.0740364205408346 0.04234092686005611 -0.14388073267777154 0.17081406673350583
Ni 1.7251166394493496 1.5356937220229803 6.270080478826989 1.096013455137377 0.8453560937229827 -0.17187927477322656
Ni 0.3216298179450501 5.0824153836907175 13.097783168650679 0.5442215494946434 0.12063101812121162 -0.3397147184943827
Ni 0.15752173890172946 0.056197684704703585 3.9160077388690637 0.826513507095183 0.24430236573064373 0.7602646632692778
Ni 1.3731637765870481 1.8937040674186925 12.414696053948798 1.7955049529833402 -1.8411952559316032 -0.4472053425788943
Ni 9.302624081704753 0.2503456260452925 13.307225784542732 -0.03672075245980128 0.39812426878152724 0.634092917835495
Ni 8.822413871950818 1.8349108545944097 6.082555447568982 0.3821394633174967 -0.7834033061692701 -0.23045517543490635
Ni 7.589022285213652 5.209772547419491 3.2260717306030924 0.33800930576750177 -0.3050418497025456 0.2567940704397513
Ni 1.134558976981514 7.3547589939873275 12.110309432026487 0.9875260143572349 0.4518287002835186 -0.1579274405788248
Ni 5.867328217164759 0.9161342209675492 1.9132286651448045 0.012813349714584383 -0.008704469752533396 0.7331991745110534
Ni 3.620180358520278 1.0312066975956697 11.084135320925682 -1.8771667889302057 0.12591952021366057 0.180093949373535
Ni 7.101460579629695 3.1427363366105485 1.5310005795957786 -1.2707353415657212 -0.4731161489073852 0.042721707238242555
Ni 1.6179667123451904 2.287515447353976 1.0443662502077269 0.6740157221723617 -0.48495376497226156 -0.4626849262717322
Ni 5.3675390236186225 0.8382777542881201 8.114469511973676 0.7398717014352225 0.9654096420741695 0.7075879017008523
Ni 8.707593634146457 7.915160520499358 9.016414595836649 0.7836971832606051 -0.04436644193051714 1.0010124788794437
Ni 3.1225759845256666 0.456095615588032 8.662196272014484 -0.5034183994353524 -0.48687797857816795 -0.3915345313791515
Ni 6.01170446881635 7.241279654019309 0.29143992512063843 -0.11116498761230532 -0.20257618963645113 1.4401059909844809
Ni 6.033524533607755 2.037227020447157 11.234468722195658 -0.8660938404909664 0.20782046875452595 0.2633529546041916
Ni 6.92848475874141 7.918329915385261 7.315537263428888 -0.5582014087135032 -2.5378690818231133 0.4824374263083111
Ni 5.5362483513912695 2.8973145249279404 3.477688865365924 2.364580842517502 0.3471030405386538 -1.3773186233446149
Ni 7.669598055197553 3.7784625646564654 10.46863883408345 -0.2111287071921525 2.503999939879494 2.607445190250038
Ni 3.35065051650733 8.057670767469606 6.352315023826618 -0.278173821667108 0.8161347349640203 0.542205290395563
Ni 3.931634355961834 2.1380381577795116 4.668387390222874 -1.7761005803147991 1.3853432934213044 -0.061117436136610866
P 4.0558315017126505 0.7471792182067052 6.213070753894122 0.19338295317295728 -0.6966913093930066 0.3795534477578753
P 5.267262370039216 0.025036344217039073 12.247907116923587 0.3454706471415534 -0.3407660425770325 2.1067966402503395
P 2.4798358293358 4.001079736213291 3.7894307338814355 0.3879362725049319 0.7380940407095096 0.47530852857301364
P 7.078430893713198 1.9012618552235365 9.44726757523282 -0.4920883191345138 -0.7917177395722365 -0.8091251364154064
P 0.9261656370886683 4.794488048286822 7.447425349077389 -0.23425500879697078 0.4999870051563002 0.6740566027126262
P 3.7881957951048877 0.9320637121869896 2.58404703348954 -0.6011637712076421 0.3473059005780793 0.3631382396246456
P 5.197507551825526 4.233289484599342 6.946909445165404 0.5153935695193576 0.9603085734021782 -1.046928781795584
P 3.179878268986463 6.109815056660126 11.17457653576005 0.25255072178236504 -1.1700316584960557 0.5628728460472435
Ni 4.051986969454604 8.797124351219225 0.8473067789497631 1.4764374784256638 -0.09848456393115942 -1.4950638352775993
Ni 2.5364348457006125 0.26682647945198457 4.531256675341509 0.3109880399836515 -1.364170001777799 -1.4649739578707546
Ni 7.0081509686545065 5.59496654895198 5.80365526144514 1.521066429988948 -1.2293716910172698 -0.45848425792682324
Ni 1.9630181709588996 8.9336052463799 1.7508318718017122 -0.34297873395763506 1.7878281531643725 0.7474978505219126
Ni 0.7602487525024764 5.444785991281533 3.497176893151045 -0.03965926626283492 -0.16468429968668413 -0.42227489788580175
Ni 9.105652753381486 6.642882896508236 6.860997276869173 0.2618092642661556 -0.48846280656678454 0.5231032794587893
Ni 7.821232033599703 0.5850721713191585 7.89671051642391 -0.11707723933168222 1.0458484042472118 0.31230007392685577
Ni 4.78285130552527 4.802767858003542 4.66170353023864 -0.26655526359157317 -1.4215338844092484 -0.25136441478374777
Ni 5.29403344222635 4.8273166030073655 11.188327771263529 -0.4893917461389571 -0.4195724113529742 -0.24818498861450158
Ni 5.5148502474574554 5.203227465672864 2.1509435961862198 -1.24064520704856 0.2611778013297437 0.04122095432299998
Ni 1.1245163085708592 9.435044775724613 10.494974817741868 1.2725114596295375 -0.016775933906758203 -0.06666330565550455
Ni 8.941322441619834 8.305455559954721 2.023543298680893 0.40608209017602315 -0.23923369295848476 -0.9803675489355825
Ni 5.98151082522876 7.255316885215154 11.782648386890276 -0.12759227993039315 -0.0020347710418416568 -1.1692027348368574
Ni 6.796204718340748 1.2193356017254282 13.314375676851906 -0.3537711965874488 0.4107285878090991 -0.12358675831542587
Ni 7.739587296109905 1.3672563245807805 4.022615680693917 -1.9030973927530386 1.0117596900936188 -0.8364137969280305
Ni 1.3260166834322646 6.747613581362209 1.1158586094638958 -0.7197841866567282 0.2218394087414373 -0.4667426412808736
Ni 5.500222271060983 6.14251233466942 9.247527245992963 -0.5417116385885961 1.6569716006604107 -0.2753993442457644
Ni -0.1338244171394444 3.8630047667017178 1.731221006522493 1.9773405676383302 0.7452625334334907 0.6594992737237416
Ni 7.248434234782455 5.308023788882463 12.631371078939956 0.4152496156079042 -0.2921997036325548 0.2682840733572218
Ni 8.716539204327377 2.9877923097033 8.759006282726084 3.7761704712298454 -0.22280640064039692 -1.382395266536574
Ni 3.3130866232738256 7.210570280494664 9.319839147003652 -0.27388059360839284 1.3626772192823564 -0.8975811124659703
Ni 0.6850018793045463 3.989696169966293 5.433393985817382 0.24254347405800808 -0.4871034643254127 -0.04961174948985649
Ni 3.835286626811992 3.156492260568 10.039117375615676 0.6328670158481939 0.25650225023094536 -0.02987287630003242
Ni 7.292805763185088 3.2577159818499988 7.09313951151801 0.548129883410114 3.197248799249855 0.38333425495654627
P 8.51866769284125 5.751842218896199 1.1829025635902657 -0.48011623437430223 0.8954275564580771 -0.01782828643067252
P 3.8111035812180805 6.544181563463834 1.1419414166077593 1.2064346226051224 0.37900066057819887 0.4177980930613707
P 8.695469292171689 8.737243417073154 11.274584072081392 -0.16752074069421471 -0.7417977148133418 0.1422182573736841
P 1.3330118567603213 7.471342090485622 3.2096302602097753 0.5719961485047503 0.4866928591505553 1.636049248685447
P 5.742108988447778 6.7227366445802605 4.22743360558678 0.455206615616816 0.334152908135889 -0.6281050756831763
P 6.1577310562665195 3.355142055413683 13.184930275723458 0.4249496165044875 0.09218227586221543 -0.13298002660486777
P 2.023489850305598 3.746337278031905 13.116762968025101 0.7610059123106765 0.3253306818585688 -0.02874878999791823
P 5.097062113903083 8.181886667036316 8.316665653404709 -1.3058794935670222 -2.18522120020683 -0.8746975229995775
Ni 5.214470378300665 -0.28073243393657965 10.24164264651563 0.8273020644347494 -0.7092290368487012 -1.9306195094327072
Ni 1.2184260416546218 2.1753863821302484 3.319656084981113 1.691776367044422 0.6151552003907276 2.4189018245575697
Ni 3.020442703172862 4.712805803165238 6.647450388368955 -0.6859921778079476 0.566742870525611 -0.045231618144289845
Ni 8.681591468410934 7.349170356851239 13.410828427370747 -2.1677785792503506 -0.2263792055933198 0.41442326305186694
Ni 5.8633805389193006 3.876291845261847 8.930199553413747 -0.35067687393284125 -1.2367175898593799 0.31213398066263665
Ni 4.983460874131761 6.472560740568799 6.264508720125204 -0.6027766242207168 0.5969394487136493 1.8566609556673703
Ni 4.846473625941977 5.036356011857722 13.448143832543671 -1.0394273312122164 0.7080445296222967 0.8742534934836235
Ni 0.9199084264159979 3.504853767686809 10.810546215462711 0.30114919951635877 0.608101893088372 -0.3497628467590041
Ni 7.616262202798108 5.597123237779666 8.325930038455809 0.7951720166694242 -0.7003085944306197 -0.21393069541732188
Ni 5.906579953828626 8.835147712942106 5.273563652179235 -0.18866215065852024 -0.23581129754049712 -0.6886890079138204
Ni 2.3280424434985614 5.070956802180148 9.53077831740396 -0.5060740918906446 -0.7530714879549483 -1.1499017205154005
Ni 1.0399459758017673 7.772218935763575 5.414550151608182 1.1719288755187687 0.4629294381823705 0.22709885736816374
Ni 4.603930524998931 2.755601315133142 1.1351525352545246 -0.6047789993627262 0.4503500588554631 0.35638498006121205
Ni 8.753690513611238 1.7874168158456072 11.218287929843251 -1.3779660271206269 -1.6187387824314574 -0.450309949646147
Ni 2.8713779975480413 6.187840307682591 4.786098528747127 -0.8302251516188154 0.4451677433235753 -0.9045894254630035
Ni 6.686569910630777 8.064150210860607 2.707027994279702 -1.2114289904959201 -0.4827315605099622 0.8697201243896441
Ni 0.7356915682815012 0.8940497273720546 8.276619692637777 0.22037722237361404 -0.30676988813724587 0.4633374722540665
Ni 3.4032455931790055 8.104039577264833 11.801600993231654 1.090051066906355 0.4537048342603089 -0.09023235122469621
Ni 0.17018150232024049 5.9240397564249285 10.477875088410709 -0.3893184975644392 -0.5361763105926637 -0.1183674188980155
Ni 3.818305046520959 2.6279722210739216 7.3646694479959365 -0.5450378747483517 -0.7875504955684243 0.9526716256822109
Ni 3.973802310997049 2.8339828886575726 12.370943401470633 -0.3326868651133238 1.531849122426749 1.2271926810880802
Ni 8.625723850865946 2.863801455927305 13.370328624259209 -0.0950336292680815 -0.06688339208611062 -0.6372952268228766
Ni 2.526392177289958 4.844307560206346 1.25099298064346 0.4489446938675043 -2.171126155566345 0.5065960258323856
Ni 8.335170981237042 7.309374759526476 4.359431401058254 -0.5747819387800037 -0.14291708321292163 0.20777933110394536
P 2.1267577375199243 2.4715653965270254 9.107130554073848 -1.2102951340017931 -0.7305473387105031 -0.5058678894171094
P 7.285979374200068 9.02707426479018 0.8814124685326151 0.38798280947215114 -1.443818663949378 -0.7697132102766873
P 7.384568184349112 6.086944778178719 10.390987721688047 -0.32365843636246844 0.003922217872541632 1.0288685818597636
P 8.174160094888435 8.901892543704985 5.986706569921892 1.327601972845778 1.024008425553985 -1.9644639687859784
P 9.031762718763408 1.7182058582928113 2.0739376150575346 -1.3464720702774036 -1.026427833628755 -0.5042982309371444
P 7.8743897247481645 3.4996777145003652 4.909244523117146 -0.24767925262267665 0.13966900858926914 -0.1715810268065174
P 1.7408698447993964 7.953174505314292 7.852806895727806 -1.5835645485231693 0.673468334309324 0.2557702571609273
P 2.302902953294111 9.227983894450958 13.23779540734399 -1.8159112845538339 0.5889404896685728 -0.05650847660968977
