# total energy = -381167.1588299751 ev
CRYSTAL
PRIMVEC
9.28541635862372 0.00000000000000 0.00000000000000
0.00000000000000 9.28541635862372 0.00000000000000
0.00000000000000 0.00000000000000 13.59014542511059
PRIMCOORD
 96 1
Ni 1.444690078656652 1.3525137502305973 4.858300702826121 -0.20445180939260918 -0.5421343279483115 0.5008650368858792
Ni 8.85967075565546 7.49923654525085 6.84182256559994 0.03209996585833827 1.1230730303583303 -0.5055729838845099
Ni 6.882239197486721 4.773029010021867 4.59785870143011 -0.22170314027388913 -0.36278188472649137 -0.33528367930622255
Ni 4.836197697669943 0.8170989993420782 4.660482335136551 -0.06602284385802823 0.3944380781791917 -0.241301631231107
Ni 9.246426918806666 3.582257927752733 4.543525087469693 -1.076019014293321 -0.393387011206858 -0.49674715806276387
Ni 8.317643859761178 5.354574638038771 2.3210885326403456 -1.3999427885020341 -1.5380701636357963 -0.6549666759607108
Ni 3.7998709460858664 6.48336556595675 1.3890490780696219 -0.15387023979031564 0.13941858314135988 0.37636399428630024
Ni 5.579950264467421 0.5545974925924967 0.13986344134009623 0.05883738185318253 -0.02178727107842054 2.1822407774222676
Ni 5.576301095829217 6.656000027334528 11.228368403712235 1.4347722374763936 -2.6769318242869513 -1.5085487571379117
Ni 3.037835394431846 8.711456939362854 13.413038384490278 0.09471764068955947 0.5225543489338549 -0.18186415390008034
Ni 5.684754759173261 4.194250436086857 2.389623262415692 0.4364493896139709 -0.8407407064381585 0.4773119321562877
Ni 1.8784583049509151 1.4469092931719967 0.14384595642641987 1.1661675475549593 1.1594898784244676 0.9427839342548537
Ni 8.804543238594364 3.0524970668993325 10.143711988400469 1.258424642519168 3.5637785810545526 1.4101626664578295
Ni 6.731341895859663 8.705755693704186 11.601594786652946 -0.5614124594516331 0.18922599358179024 1.0909980042006566
Ni 1.7938867325418784 5.544238553061497 0.10867279917066332 2.3848030831016476 -0.5212101762011346 0.5787679200109452
Ni 1.4167224045134792 2.3622006422141544 2.4966051872631576 -0.5086680778700658 1.8348096641202334 -0.17580277819734885
Ni 8.046899688889122 9.221467719571326 8.365781315369755 2.3326279437599893 -0.8642534448481181 -0.5493035920032411
Ni 6.120240787498231 6.4046809475340245 2.65236154728302 0.07886858947244481 1.5967885034126112 -0.010675734546291291
Ni 8.850236772611149 1.1999357882383608 1.1271696942176475 -0.7594208272117438 1.1533770806585104 0.9557952589128572
Ni 7.164135153433795 6.043849666921907 0.11970944508254089 -0.5733503485397997 -0.9817857694393479 -0.16262176073070056
Ni 2.5519481259843197 2.006327773950129 7.908663052499187 -0.9008826660353776 0.4405672684370864 2.615576561107921
Ni 8.450592451521453 5.357759535857864 6.426045762087819 0.7197865006495733 -1.5933601944573528 -0.6709753926841412
Ni 1.8316040938863565 0.5713530264541684 10.8481566020272 -1.7124457224683154 -3.5008423465416483 1.6731924333946473
Ni 6.715853821334162 2.443652314718773 9.153791890811332 -0.06727702798010349 -0.2608538423314217 -0.4554089614356092
P 7.7528305520649905 1.2795953753812161 12.792567362457572 -0.7848382388435838 -0.3105658648445684 0.021471025389582378
Ni 0.1546755375529745 3.5842728631076692 0.5802688832643526 0.8687942701412651 0.4661163205507843 0.02296329366439271
P 7.932308365316448 5.162301521012648 10.516150039490332 -0.20901448906262712 0.994276445707191 0.6308193892905458
Ni 0.07825934635242016 6.402842435090351 9.068323347179774 0.9103358410284774 -0.641709039619856 -0.5518304721901528
P 6.762188049081316 1.0389638098366194 7.073276425592374 -1.0977875163186643 1.0129485681953974 0.14876120069852444
P 1.8668422490567886 7.576454067885187 1.2425493496411706 0.4262547084691562 -0.04191052419085685 0.4379213461738071
P 3.7970481795056794 5.655979253804837 12.350302980173602 -0.15006654977350928 0.3955642213638349 0.4984060338224256
Ni 1.778055097610235 7.384292375855651 11.915581141616887 -0.622987809061269 -0.4467679979311596 -0.40447103693516145
Ni 2.485306692609302 3.768606949127014 12.374996616500413 0.3058553467427765 -1.0370336341690591 0.052503726325670866
Ni 9.325250818475123 6.784909462968549 0.4512591651334047 -1.240715398164863 0.9069921213672251 -0.02508162555897616
Ni 5.92180215399433 4.660619759299007 9.605827316754286 0.8343121772039954 1.6270730133287654 -0.3754180854332631
Ni 9.35830690079574 1.9732438353803667 8.506874145838855 1.1987326259751743 -1.56852539480186 -2.0007093242712575
Ni 4.922319934614805 3.331300979191135 4.40890140659407 -0.41372906519831976 0.058854094023730895 0.46052725649878107
Ni 6.546450684857386 6.665833283283273 6.244522371607364 0.7474597981951256 0.2524054544537524 -0.3844567985967637
Ni 7.5004343639641515 3.366260571870101 11.924509998010004 -0.8018252603198837 0.23011707536919726 0.2337587858868426
Ni 6.14464286175064 0.12299369685692343 9.37563720193147 -2.6583473764165446 0.36087001241575917 0.9708503534737667
Ni 4.024940153773904 9.013548675941202 2.063581651362747 1.6002018999695344 -1.7330585136226604 -0.4157571513719421
Ni 6.8523030150705235 7.1130189362498095 9.145474943357799 0.8320076974405348 -0.768245110371593 -0.7414143633319941
Ni 3.113975808765849 7.711009036679583 3.708791225334549 -2.024648094475042 -0.43889116628624414 0.21124029306935233
Ni 3.642213861332569 0.17279788470610546 7.082993613836342 -0.7474559415403838 -0.6738329167375944 -0.4506202817977143
Ni 8.24786395564898 1.0144595960040055 10.607312400447451 -0.30425380658361145 -2.05143641831248 0.2521555432264754
Ni 3.635834780278001 6.904524196803991 7.058395617298268 2.5807098311377232 -1.126023371235906 -2.8184111466120814
Ni 2.0020564824143197 2.553313082192502 10.041010640505197 -0.5579530401481229 1.7638287049259815 1.8987211180622137
Ni 6.522355029345588 1.459128901130966 2.7559180820270934 -1.217821010065193 0.58742713834784 -0.063383092242336
Ni 5.04828589325567 7.529274867247252 13.132592810582105 0.1453442045971755 -0.09584455520515107 1.696465287879659
Ni 1.164716203900693 5.853220068595434 2.6376023779435203 0.7740576032883121 0.9059773069494655 -0.9490450846732171
Ni 3.3051253904097257 5.24917587668447 3.4418132193471114 2.197956645495627 -0.19270495326932616 0.9203819124105698
Ni 8.023110452117937 4.48536681050145 8.493881991236888 -0.033829289844619165 -0.5415422028902673 -1.1452559942132727
Ni 1.3578807208995063 -0.051688198833129494 7.274098625481584 -1.856756343594654 0.6551147715028008 0.5683577804212148
Ni 0.7439457034582275 8.35448839196573 4.158788502381613 0.2608155328943185 -0.8258072250567778 1.5041781388740416
Ni 3.9513253726958575 8.11866667210711 10.9338424244021 -0.5894670515960042 1.6028876743318137 -0.33625632763213703
Ni 4.907305416324795 2.522959056039105 7.391408718970966 1.7561202805381304 -0.7552558972007767 0.4449337729358983
P 4.767792035182309 5.8477973854282315 5.172368769454225 0.14037143397293245 -2.1822382063191066 -0.026571836951257467
Ni 5.54970766331061 8.550354965131762 7.065122901467168 2.2619586022688853 -0.40291089153689313 0.4639118567002979
P 0.7090316093195341 8.461614240767119 9.501482450159365 -0.5818169912499142 0.20338942956636585 -0.1228809904976529
Ni 2.741101343106024 5.4673088783350074 10.432461510179241 -0.16277499847911323 0.24223802700244734 -0.032837101134678935
P 7.9910293385174525 2.9458169180842884 2.834048361091801 0.8706770889862746 1.848056758938127 -0.8238945814150972
P 4.797059667618989 7.147569970607958 8.942125253129355 -0.11899476806936926 -0.2444589459131661 0.5434543323113157
P 3.7016962386769134 0.9917474675331553 10.160114676439617 1.8991543489448905 0.5761474516689625 -0.6982481123571652
Ni 7.095033084717497 3.52020349007052 0.5800664611872207 0.6352859097023317 -0.8859964929521645 1.1333307035305964
Ni 1.4971526812160565 5.971776264963307 7.189091567044223 -0.18280337788489806 -0.41106283122006626 -0.16950049012840487
Ni 7.302942842931236 8.882317886211634 4.968815728607012 0.026543297706167188 -0.14307546316765685 0.0493996334790504
Ni 0.14279949000014644 5.149199798497371 12.203556259669382 -0.9597290467496247 -0.2915651553723495 -1.0470293119291905
Ni 8.811414446717189 1.0754462108022655 3.7074327689178337 -0.5206540465873484 0.25542624355794724 -0.5965522405775597
Ni 5.352179000612164 1.2940806249374408 11.696969941022667 -0.6968597166500708 1.4286555830556944 -2.51492507143243
Ni 5.969603477529872 4.529936809135988 6.927984729835246 -0.05220470702801332 -0.14386042096279741 -0.19708662727678958
Ni 8.32306654292838 6.585533002410047 4.295519044234357 0.47704119499340425 0.7126722582022952 0.3355616155579576
Ni 6.948917772527268 2.0926357192226366 5.139751887328487 -1.4788381174473564 1.1086509413957293 -0.8473461275698182
Ni 3.297641344805676 2.109275185379531 5.9861733030639 0.4143031925342348 0.18939491505948672 -3.2307173633209456
Ni 8.714632551765565 1.605736340389451 6.317175183548215 1.8172233184970383 -0.8342268165790406 0.09930063207455157
Ni 4.324933386249875 3.129761016615581 9.657646439958405 -1.0455964361374057 -2.440733318610364 -0.18141292529527467
Ni 3.8655931232390466 4.876347838106556 8.231320129280823 0.2968855391439984 0.5584004120981867 1.5304663831466094
Ni 1.5972773260652708 5.1868057348452625 4.81377898835677 -1.7900619275908978 0.7106192323280085 1.4390104439274571
Ni 7.323250048559098 8.334626886324214 0.3914285846747279 -0.3620025833583056 0.13517703425618655 -0.6288391256357234
Ni 5.019083258733665 3.8350162470924767 11.658822664899693 0.033638256879735616 -0.03748694120186447 0.6498465811253259
Ni 0.9386534566597614 3.473804264408689 6.786810187701985 0.30288880791528483 0.7298680532552914 0.23272880196043144
Ni 3.358720813767758 4.036909055490553 1.5831430652482927 -1.0307490867119282 -0.7879904113193202 -1.2139826101557092
Ni 0.25051124857525253 9.075445261544917 13.057112589352876 0.3162577730230231 -1.0710706691491103 -1.2239191525431308
Ni 5.112680255866196 7.819694835433181 4.64830544009294 1.4160875165826967 0.23775505153042928 -0.4318748828694111
Ni 0.5231830718882529 2.12356544119173 12.101453821130761 -0.6937401971844828 0.9949827277455962 0.13300213809205483
Ni 2.7146100501676202 7.7046856681233065 8.806033547923706 -1.9591273870644128 0.8271094888079691 2.3762508226562624
Ni 5.164353598033114 4.646320218070426 0.2161422083781941 -0.6105089598679678 1.046338713620069 -0.44462601188749235
Ni 1.7068730956243243 9.45515379366204 2.2882952276033457 -0.40530793101416 -1.2029356083129281 -0.020238952754694176
Ni 3.3273082501467908 4.394908284106101 6.162750352237559 0.53854018283915 0.5434952128515801 -0.939389306751008
P 1.8213994212823237 4.202802304574859 8.829136592424247 -0.6230502868680883 1.1756289500781751 -1.7598928602066852
Ni 4.2054486482437845 1.8887094046368589 2.1793698651070867 -0.45893060143562253 1.397213562496329 0.05696587586208254
P 3.9931654589140306 2.0228093880285267 13.372023771788482 -0.5582821413527674 0.9534442421821774 0.34606817151623626
Ni 8.644973358066334 8.3347383113208 2.197988982036665 0.4413555686663367 -0.5208800465552256 1.5180597819521404
P 2.836165436026942 2.763237775761178 4.01209656583405 0.7420381129589221 0.8719716394279822 -1.0356326400564746
P 6.460597724987607 8.68597775681011 2.5812445432117843 -0.4206836421392819 -1.7173773554419778 -0.01318230301822891
P 2.2571825829315233 7.946180777391448 5.858399473853423 -0.8727877075713742 0.16623081823819758 -1.3545628177053382
Ni 8.444018376722859 7.425371057930484 10.90360446595348 1.0357036025037258 -0.18567735699858345 1.480493136552276
