# total energy = -381165.7207739173 ev
CRYSTAL
PRIMVEC
9.29431403165541 0.00000000000000 0.00000000000000

0.00000000000000 9.29431403165541 0.00000000000000

0.00000000000000 0.00000000000000 13.60316806899602

PRIMCOORD
 96 1
Ni 8.007915854438682 8.5296893462757 0.5651370430850787 -0.7975083781120845 0.4684372553744771 0.18232926646195696
Ni 7.022133032074375 5.284802687961672 1.2062011958357193 0.3111639034398835 1.4061198638470234 -0.31352366192131165
Ni 6.472244240484831 6.829619906859815 13.335199133821474 0.6178188632658198 0.3224230212934705 0.297290745002217
Ni 4.476020780799706 8.062696540964758 6.927453714547426 -2.293597826440721 -0.8501234332046392 2.119743173108678
Ni 0.8542506205237265 6.519580181522718 3.723962071783082 -0.43242998404193267 -1.2612999071844342 0.643702415900801
Ni 6.366837425776274 7.665448267668011 4.7140686090051975 -1.0252708372061763 1.513676051062148 -0.6034685080814187
Ni 5.399290047416746 7.589708903144598 1.6559409661282785 -0.6663479212144587 -0.3982867625013205 1.4592499109027837
Ni 3.6975662201145956 2.2949055333535986 11.257804712530167 -0.8607402894885371 -0.4152174768183881 -1.5601762515062163
Ni 2.7829685484294915 6.631957731707106 5.4441778661555205 -0.13760055609601463 -0.4463813040157022 -0.599733723629335
Ni 7.062330939985009 3.213146576114071 0.5165314987591934 -0.6882287804479502 -1.9705993922597547 -0.7167235454535333
Ni 5.098386632709973 6.081808699326465 5.844179115249522 -1.2185252352210691 -1.0666522283664406 -1.3652989731759195
Ni 4.8362683901907335 6.949944095486652 11.867444789755755 -1.2941568058134552 0.7165613088440563 -0.4604586080443747
Ni 2.8244862489235505 5.1892385517449915 2.9547302588481963 0.0985231304785787 0.9056672319082145 -0.7400077127924546
Ni -0.12437093292840792 4.561389054593735 1.7688194798355306 -0.5341227704977446 -0.49522455077065036 0.6860207170530379
Ni 7.12373847237011 2.3879602047989796 3.2639716026154613 -0.8160326621685173 1.7538165721056185 -0.8749083534588029
Ni 7.6823732134033325 1.1876646160583855 9.839252607747063 -1.7054656916060562 2.3115924632459284 -0.46576587918990103
Ni 1.3258060045614513 4.818404718744667 8.2713380892076 1.1139494707905073 -0.9335014805116633 0.7063709985746157
Ni 4.805690097236748 1.9493801172875298 7.198932260663614 -0.9335734714001793 0.8925466353658565 0.3537434286733069
Ni 1.4357670331142183 0.5970630115643918 0.8009979192139527 0.17176203246907193 0.7334130902940724 1.2223793188598369
Ni 1.6453352244596484 8.717471665680662 3.7588408438099576 -0.11098629594259594 0.803749731036106 1.0819130111802528
Ni 3.186378951886874 2.6936130139432857 2.522694297801458 0.4594751610851829 0.13893778685019942 -0.30503207951053274
Ni 0.09714509902259946 0.7181753580156973 11.276509519390316 -0.34576375290193995 1.5855301568899727 0.51676216773211
Ni 3.645741125430273 1.0880295703238185 0.10836147711891245 -0.2954860876933105 -0.33486304682903617 0.00826635377385028
Ni 6.923483183620393 9.174677558383536 2.7854389770821264 -0.26258188076612193 1.3798611872608106 -0.4540473052013922
P 5.380078700445351 1.7223200270547434 2.0090115062733886 0.1849978144330556 0.060525825299199 -0.06321674186780081
Ni 7.944565810434315 6.441154760262617 5.767783572159985 -0.3533227961961205 -2.032111749841939 -0.18523744124768743
P 1.3063901826827655 2.85538054855244 1.6119212363140942 1.2421660145684605 0.8502784707252647 -1.2327948577662058
Ni 0.7085473781764773 5.774575856807636 6.4779239957505395 0.3137517187717177 0.45465999908472665 -1.6465761163586996
P -0.012335413498033314 6.457763699323034 12.84526703220666 -0.4720802514437031 -1.6524639425980443 -0.31414509755539444
P 8.811102584592046 4.7477679325895625 3.9593377847228375 -0.662673043466033 1.2524743384730042 -0.35604970820898035
P 5.499966056315703 2.007450990958199 9.52436682710717 1.1687062548164129 -0.3030302185891555 0.7580920810979911
Ni 2.365486553624895 -0.05549356040740469 11.208303196337788 0.9179535054747352 0.0843820630915063 0.1625932214856103
Ni 5.439497249641349 4.632546322331034 7.964328310223999 2.6924535740716338 -1.6998771417746852 0.13175849549294083
Ni 1.5616678101217223 1.8868944444821665 9.51775578158189 0.6522230517773026 -0.8893564105633329 0.5269342231691054
Ni 3.7715768422400022 5.824746563605695 8.427829241777248 -2.9195097511273205 0.3472629631552858 -0.31732786615875025
Ni 3.93353955744248 3.3440198110943355 9.039999231264865 -1.3650626887953974 -0.393245086312355 0.5360513549790252
Ni 7.165274761492105 3.9752338499019264 10.636411975292326 0.17956713033578753 -0.42736388237293493 -0.389370176737981
Ni 8.97563053044963 5.394094525908759 9.74892767631402 1.176936098925373 -0.910466710179387 0.8139112449501402
Ni 0.19264045731591856 -0.02497475106281293 8.727194447522354 1.3746009673031359 0.5878842804899165 -0.6051667217194481
Ni 7.363392358029234 8.506202614879129 11.719469087643382 -0.5759060250821179 2.3166084284032813 2.8589003649753795
Ni 0.3643854379694814 7.792092589792937 10.635800409433246 0.7932084651851501 -1.6633597635749418 -0.10600966866361099
Ni 8.601255563827582 8.30343786135811 4.769747126260562 1.8871850923981563 -0.4244757621918625 -1.269779148300039
Ni 7.943859442572764 7.067851762481869 2.5442143523624488 0.018487517281226225 -0.5525254413746484 0.29276637476930223
Ni 0.11900532547481041 2.5532688730298565 7.78416825770401 -0.9209598964012268 -0.18024667290131538 0.26052422690614485
Ni 5.268937294018677 4.19072251924483 2.060948132725325 -1.9027073564034716 -2.0985698814651728 -0.6435854307069626
Ni 8.884416133169868 3.871788135440571 12.645205994618868 0.256281649579707 1.0371778730564074 0.6078735791276498
Ni 5.135796246430275 0.5145276446677407 11.417506121144283 0.4182750326977893 -1.8461939946977752 -0.9473849233619747
Ni 2.638888093301016 7.54714094517218 2.0126836897220572 3.7409371019488478 0.6463203131396225 -0.14734246597412687
Ni 3.8831364927952263 8.668341922046993 4.886911248138356 -0.03965515249777686 0.8240385631921293 -0.09734659367197429
Ni 7.917723831695375 4.582459264358685 7.58361648033872 0.34797387317938133 -0.29487519358218894 -0.31872963160228335
Ni 0.2426736082672544 0.9301377646392269 5.85802764306151 1.7222231135700532 1.3594571696831619 0.7051101295843212
Ni 4.584253066954466 4.656293294518703 11.114264257043219 -0.986656724378404 0.25450835972936814 -2.1329781837417134
Ni 8.675730901651377 6.9875210068583735 8.038846401892044 1.7763625757269343 -0.8002795130993186 0.17169004158055592
Ni 6.035811139499938 3.9855970099759976 5.887804766151473 0.9636661770205015 -1.05183958883364 -1.3227793546461541
Ni 4.0660857689369445 5.817905948525411 0.4209543505029579 0.2870425849116475 0.5804237104468133 1.1345203529633237
Ni 6.276310807730129 6.810064670271612 7.580039098892523 1.1624975549025398 1.1925586359539784 0.5186359877160551
P 6.937907958898382 5.66540484494213 9.156292475923877 0.3987829854114487 0.15221162114097012 2.1062330544373853
Ni 6.520807030966464 5.392189191545365 3.4370447407350198 0.3806376819609896 0.2508602214538196 2.3078389097407674
P 0.3200868787362638 3.047075774137836 10.85644370530268 -2.3954641623599198 -0.9339146567896819 -0.2655093388255621
Ni 0.9425828510420801 1.6308175060419814 3.4708481606358235 -0.19863211738703856 0.5475112759895087 0.39667133838508456
P 5.852880451986155 0.15878034209991104 6.39289031725935 1.5255185522230308 0.4629176111078286 -1.2023949053181098
P 7.3000330197109 1.2973746981340222 12.42864290258129 0.6643882263849267 -0.4166552377061792 0.5364604174919857
P 3.8688139549708827 8.260832726129822 13.498723293770537 -0.1731627694713405 -1.2550264154708966 0.1702319689777907
Ni 2.0686447541220407 4.005561196378782 10.525233391609781 1.6569867701690626 1.437442585219705 -0.020348481749364954
Ni 2.0684216905868142 7.555886894615858 8.791074267422882 -0.018837444421477233 -0.059878421523187196 0.32393791527610016
Ni 7.099266543692954 2.1156275112291527 7.057731184002356 1.1832898090575428 -0.29023872325144207 0.17527775893181427
Ni 1.8357385404035231 2.245878027173576 12.388989641469168 -1.7601242594912008 -0.148166504537319 1.0909774353753663
Ni 8.827562814628978 3.549386972526331 5.6415193874763405 -0.030733424528114815 -1.0341475708705157 0.049119640344786365
Ni 7.567560552959386 0.9255305732054 4.850277709634363 -0.6361870813603625 0.3226893875809797 1.0478317532258277
Ni 1.2867884745247244 8.233312262471236 6.402589863316121 -0.9516089887456515 -1.40467696075291 0.058251170332409355
Ni 0.6201770409708559 8.426875645164154 12.884648899350923 0.35022256000424196 0.8256059076792491 -0.37793339565594913
Ni 5.690638907364644 2.6502457449696393 12.06709780696036 1.318967951319864 0.3872577583806685 0.5046142195156664
Ni 4.668626849153944 7.484627389424914 9.603917789788767 0.009201463993609958 0.7530887143461288 0.37848746838720626
Ni 7.8819314286054665 8.850705656408742 7.08923612005893 -0.46512541739242474 0.8423116504697041 -1.348114233866517
Ni 0.8218153236389791 6.788762102657468 1.297112598480131 -2.629637924296994 -1.060081260017142 -1.828736204232644
Ni 4.166956958429226 3.930082072646467 4.28391009937995 1.3875115047172168 -0.35813795819657673 1.1302155549403825
Ni 2.7267286546104748 0.5221657118864597 7.006407052840896 -0.15647630995459502 -1.48219237863157 -0.361059759829062
Ni 1.9155395201308545 4.933087258793064 0.601330960538395 -0.12415805743786358 -1.75015712097616 -0.35049252583617707
Ni 5.751117008352968 0.12678094854025243 0.15698189234714624 1.4346634798126712 0.5319177924266258 0.3643636273913144
Ni 2.311040462401659 6.79715486817037 12.599757728747838 0.25341332689297646 -0.01419197522966588 -0.41830100083971833
Ni 3.7591131672092137 0.4102166295759854 2.858433730690855 0.4261055844858016 0.04570418690533419 -1.1291338918404294
Ni 8.79520001339318 1.9802279453465808 1.6712579955471747 -1.7211676757223453 -1.2648724550270407 -1.0790444313832062
Ni 5.40149279982711 1.6695747952876103 4.952695472970882 -1.051629272595047 0.40571339398269485 -1.4226955088175177
Ni 5.91949280019321 -0.1613790322853014 8.548978765484424 -0.11847849055458304 1.7963976400009383 -0.17568270767971678
Ni 2.0421931365697485 4.1029377238191795 5.219155089544471 -0.5292065641430499 -0.0036527662612388704 0.3244958446620992
Ni 7.611215945666033 6.384041200930629 11.372207493728135 -0.024397197897441852 -2.048387089963195 -0.6842006331251635
Ni 2.3470559290267934 2.6004468107302916 7.387880087040136 -0.33724568812859984 1.4092326984443924 -0.7785032977644916
Ni 7.603826966061651 8.253954933793667 9.636647716426294 -0.2055293587275041 -2.3912964041354754 -1.3622900111462668
P 5.416122050012389 4.600871300328851 12.939727933355364 1.9761522037571837 0.5362524152462378 2.3999265690066474
Ni 3.8332074381603296 0.7074906146783412 9.04515478722279 -1.491942001819166 -0.5426482914702525 1.3844662901329898
P 4.451455908982872 6.99042083281632 3.695123674403864 -0.38492036849674355 -0.9294730760785607 -0.5905937090012796
Ni 3.6997410895830556 3.321648397373897 -0.015821710667346375 0.047025476819919004 1.188793255374275 0.007112185564749041
P 0.17796008840381516 8.594191885212071 2.1184074405369144 0.1715566013264852 1.804884337315711 1.6449866603843928
P 2.781332749171163 6.059632466199349 10.553990928457479 0.4561044448407371 1.4215480254766355 -1.0824737687797292
P 3.7544474215973898 4.033862382410662 6.648697720594469 0.2615174440573496 0.6066067966000843 -0.8649643548722136
Ni 2.8574345919393194 1.6327414290333109 4.792559090463072 0.06938250435888052 0.2703846646399924 0.7388052078439211
