# total energy = -340861.2343595891 ev
CRYSTAL
PRIMVEC
9.42664855582706 0.00000000000000 0.00000000000000
0.00000000000000 9.42664855582706 0.00000000000000
0.00000000000000 0.00000000000000 13.79685302169471
PRIMCOORD
 96 1
Ni 8.048726997994056 2.0640400994894548 6.496344639770363 -0.4499193990759477 0.3250887410510917 1.4342567312925556
Ni 7.304832459264661 3.245943860182776 8.703026898840443 0.9438879659523098 -0.5034705928295266 -1.5658270220340904
Ni 7.677524433859857 4.799530944083149 13.051643539180509 1.1924586200410043 1.4496123878130196 0.4125049629832315
Ni 8.169708604680487 6.798923088246475 5.5130433947378705 1.2777274566128383 -0.534417418920028 -0.6367465534082581
Ni 5.006191358870951 2.7643740955588836 10.964345069878256 -0.07132137325280619 1.1620326994509795 3.081435000011629
Ni 4.456862844920108 6.716864113164241 2.5159112080540047 -0.16744103649621483 -0.8290303599797657 -0.7537456312038374
Ni 0.46823388500886265 3.643503333487557 2.7766032866415005 -1.0380273655408963 -0.26878441003240805 0.5808127183551158
Ni 8.11646689402403 8.883353028414032 8.923597276136153 -0.22715465030676363 0.8843967525652123 -0.6703395588723552
Ni 6.266854767675939 3.082608321842758 13.281844180570877 -1.0687258230660175 -1.0091813878434812 -0.6599942110822891
Ni 2.743776868614061 4.596377242532637 3.556677302265279 0.37372475689124024 -0.6400097975405623 -1.287254165156351
Ni 4.232602877406457 5.167773540592325 7.4590477151931855 -0.20146881550488527 -0.6133592848325695 0.049528959968063085
Ni 2.1591267027811822 8.908776699384367 2.2451476982226417 -0.3743449069737424 0.2533469924314153 0.09213111090930584
Ni 2.034355583402843 2.438428870812371 12.103841167021614 0.9907175247113389 -0.21203167862239614 0.48307300300978095
Ni 3.815963867563314 5.532575410403624 11.288281475832116 -0.9831859922209841 0.30829275253967553 -2.6048316638865914
Ni 3.0397170712253927 0.9248824190267929 0.4775756936598096 -0.041197300173916145 -1.4961583538933587 -1.306353347879647
Ni 6.812346635692437 6.202423625265018 3.8979417734685566 0.24396246589272177 -0.16297374475348061 -1.9453838122260756
Ni 3.1950588116481526 1.806098716930562 3.8223353392759023 0.9960636195146005 0.9787559814740886 0.17977333280932267
Ni 0.3068157269711676 6.484035322175604 13.159313775537976 -0.7274041650958312 0.015173108196012577 -1.1543510145360054
Ni 8.578862855624688 4.424642560390405 6.436148890524801 0.1702304263158939 0.36755025264941216 -0.0535499082019981
Ni 3.4101372235351417 1.8868379612245691 7.558785426848563 2.118668709097577 0.2819564286379918 -1.7704408109258605
Ni 5.053597974113749 3.301372553288294 8.876274558064893 2.5986923837580727 -0.4720877076428708 -3.8280532761420645
Ni 8.950433059049892 9.256799134888213 6.34253755772134 -0.732622476071977 -1.7582023598781396 1.7657146090947848
Ni 2.6288565969049844 8.853263166442463 8.437341524549208 0.4242659601739016 -0.12011808304053508 -0.12808336063419876
Ni 2.319087500962736 2.8140336797901533 1.4772293458232792 0.1676942901576015 1.2875074188177376 -0.00018563364824484158
P 3.3800850681575247 3.7946784952789163 9.67268401285237 -4.2197251044300295 0.5862405742389065 1.51313663361891
P 4.55600290706139 1.748171961975901 12.794401613939376 -0.8713237214313381 -0.7593467794406987 0.7559837765057368
P 0.6777383196452919 0.34094773581410287 8.36235536382702 -1.9697406438038847 -2.60617326551615 0.7312171110840181
P 4.4799298537686125 8.00990805952322 4.240959601290478 0.4304967715749618 1.2550068750868708 0.7065684592974025
P 3.499878917134552 3.410052383698756 5.4187693685457505 -0.3606872069809917 -0.12805327872721173 0.8733212114773411
P 1.7937780873576181 4.556615639213066 12.718849854307948 -0.14881725074744048 0.771208049654659 -0.6933912984854962
P 7.7604600872514125 -0.2886741419572953 11.010136900235173 0.19921627202528272 0.4328614151523965 1.856046976232455
P 6.144053817831453 4.110942552028938 3.9347792304273566 -0.7587729092150997 0.060702202976063206 -0.11697928030123723
Ni 5.164370520488398 6.267420366585179 5.348556862617548 -0.8185333171031838 1.162868050868081 0.46645082107206765
Ni 2.780833023817767 5.539051517914422 5.649645900632661 -0.9410278707956954 -0.9658696124297237 1.5441593072526696
Ni 2.5838066437840204 7.003735879930758 4.011848680465245 -1.3081996570597665 1.7530411273921744 -1.3325562315272599
Ni 9.316177593709924 8.484011918545143 3.6776202596929126 -0.4526414259928011 -0.01531143354608976 0.2197025649040926
Ni 1.0332643673450552 7.478857816989316 5.9166839989818305 0.27300744697482016 -0.8025513398526307 0.3295735162953227
Ni 7.681983238594366 3.9880756156450397 10.787483233623764 -0.002957797076743293 0.4746189587051568 0.8581406470821608
Ni 1.2415178857272153 1.6354575260128608 6.949971932948104 -0.9130514401874277 0.9033493824083151 -2.2703740800260896
Ni -0.011838927835241488 1.2904421913764734 4.818964922604635 3.41726401029836 2.368092712325502 -2.282509686947359
Ni 6.0478737233151945 5.828977518790835 10.01303881247662 0.5269355087206861 -0.16870190548650946 0.21491311393524923
Ni 5.021905581899334 9.491975161350197 7.8819903248798076 0.6727142297521189 -0.6341479394431465 0.3233475899902689
Ni 7.117600367009254 9.281346127549229 13.58747214983264 -0.5447406552229069 1.3365422127582012 0.0970635152139167
Ni 6.419604179764683 1.2086000292094485 9.949310898042855 1.106316379725282 0.7435944017024484 -0.7086883338538827
Ni 3.612499086612719 7.6332380392663675 6.571330800492551 -0.3482518094311164 -0.9365749772306644 0.28780028901327853
Ni 5.758965800475413 5.803101368693106 0.3807376190791354 -0.5443184800838239 0.4194965638097163 1.0297072757109749
Ni 0.9582282453858847 8.548565607386399 10.135154444976077 -0.9832602971023452 1.027569403432366 0.9234404967312355
Ni 7.359638993570014 4.484596044769842 2.257468327795586 0.8742030998616621 -0.24589619258032488 -1.113358631284044
Ni 1.8993471237672601 9.579360192827775 4.898007370170923 0.3719923475811658 -1.4354682351021535 -0.19878304114260603
Ni 5.988297304875251 4.296562687393012 6.0255683876644675 0.7109650457032014 -2.255336726076993 0.7486833861895815
Ni 5.793373067454178 1.5439719024432939 4.724456172865182 -0.7327096364691446 0.5718339118952733 0.6787995167142503
Ni 7.168664521865137 7.20983069580932 12.500680444381961 0.13779313172279495 -0.10086180591408436 -1.2272800985955636
Ni 8.547245876598174 5.493775325229762 8.7001574270409 -0.418672268136208 -0.28720405019017636 1.1218563843424099
Ni 9.22231645472155 2.9594303060587777 12.500818073449876 -0.5567929584017507 -0.23140622649426595 0.5428041003218265
Ni 0.9374358868173743 6.8684823274345055 1.8768136632231394 -1.393118566491349 -0.7115216895376197 1.926663867219069
Ni 4.78161088530873 2.2997722982121904 1.2752360647015568 0.08029426617537785 0.5235707060135112 0.0964114834522146
P 6.284991639365568 5.320617219165943 7.94341436642327 1.1706147846930355 -0.07220557562997242 0.29171505068665243
P -0.026381418456650076 3.152431507188433 8.207499095801357 0.5904551265408863 0.6079748805922045 -0.1055952068340117
P 8.769818474032592 6.400043884153467 10.943677143069777 0.46213985240153965 -0.8464752949290905 0.002952397760104593
P 7.904621822568196 6.45474672532546 1.4006981574140176 -0.21515788295620367 -0.35030997751172577 -0.24603246104787307
P 4.912650725931146 7.869450997061957 0.7459561467535745 0.5049065539451046 1.1322809221098435 -0.7374546073532977
P 3.4426214542224916 7.979073492321152 10.736601013083686 0.1820130207731188 0.021441457703227588 -0.0415503126379607
P 5.699200849065722 5.270957634934672 12.064450973652443 2.0219636056643435 -0.8925582053300822 0.808404199088982
P 4.005260395837448 4.270818510374105 1.8399064490655332 0.6627761447028006 0.618928808500547 -0.8330309964987266
Ni 4.378715928960118 7.15793699588655 8.839753836495266 0.514448946217901 0.53394973525499 0.5530931409526604
Ni 8.7100535226229 8.405120297354655 1.1502490750728576 0.19833978295760035 0.7401025864991061 0.2969071364105532
Ni 7.7971203232186514 2.8694529462471845 4.341373203642398 0.4352450848932246 1.212476715034144 -1.0375977342026452
Ni 9.286841863617344 1.8352459140533957 10.379524281707756 -1.8747671783497777 -0.6655840464652408 0.19868945298753524
Ni 5.101739867938558 9.003703049651811 12.443368306908674 -1.7892836546639763 0.18934657832005455 1.8465004701946004
Ni 1.833982743156093 1.773878432400858 9.306211740929117 0.8088073480646716 1.6403057099689557 1.1546472056201857
Ni 4.002856600473177 1.1215732103743905 9.646427968820602 0.23131495233204033 -0.7311304649074828 1.7590284553238609
Ni 6.5574689138919275 7.9705612287370915 6.860457421577239 -1.3746611311171102 -0.08133016363905993 -0.23526596655998835
Ni 1.7118133787602579 6.566367670063971 10.999251006562 -0.6918026138421376 -0.7890468776082927 0.4440367150429256
Ni 2.0695075556121076 3.843112615206833 7.418871339340171 -0.35278157898066986 0.9638510393377981 1.026370240917942
Ni 2.434158599047609 5.618150525371633 0.9388027508480377 1.537969890612506 -2.1070684058544873 0.5192286269947315
Ni 0.3595040933614178 4.480156093332308 0.5293411911631499 -0.802545940535992 -0.9021227090900656 0.8884768361718569
Ni 3.942167837511728 4.18760005752793 13.092137593087543 0.014480453004362159 -1.370332421834769 1.9731733236345177
Ni 3.266776753339782 6.937438261119346 13.177388431347588 0.3008303827243593 2.004359262319019 -0.6451365772441664
Ni 0.1381673295436882 1.603623734071137 0.7964565880299148 0.6315087020480865 -0.6055619002753377 0.7735559810615451
Ni 1.1229589277020284 3.9861431527051363 10.615740067497892 0.14202619596753602 0.6581730987131503 -1.0003879579215675
Ni 6.786008579818829 1.3026025679251332 2.3704099459871717 0.9222269360391085 0.14275047572807026 -0.37449634494994216
Ni 4.578589156837039 9.608582803138507 2.575320774815723 0.3058399201238088 -0.9661562904322071 0.03368273696442586
Ni 1.1615421999606823 3.4533489802010764 5.159609120337446 -0.08020247779251995 0.2860771356745847 -0.11235592259661295
Ni 2.4970437711066076 9.642141671753413 11.867294505869571 0.5811045385639217 -1.2526052076239136 -0.13871950019180626
Ni 4.033134995414492 0.21280658960154203 5.745161416430562 0.5264362004867643 1.1590062539198298 -0.9417179548841846
Ni 6.727667052330725 8.17199928026291 2.53107397214588 -0.3780845765218327 0.21985605976282135 -0.11178745168765264
Ni 5.723144536223548 8.514667379425951 10.424253728780151 0.15128679533385558 -1.2428136754547887 -1.7536702763357412
Ni 9.527325093177696 0.07101377104962553 12.620036896869175 -0.42296858151871675 0.0248211728087379 -0.909927035625833
P 1.3148760642556405 1.4415513666284212 2.9086253840362963 -0.9899351380193596 -0.20954259365195524 -0.00015812284441908252
P 2.5058482607937766 6.264007919832765 8.11609548407363 -1.1056769463690699 0.5596039454879846 -0.8936509241736287
P 7.633530265369475 0.518920973925252 4.496752650659107 -1.9883595444566529 -1.5420779992436089 -1.2858976511284566
P 8.410003301271091 7.299930602051248 7.525217131585171 1.3557493818142714 -0.6562383435842827 -0.07981038456042383
P 7.924153838233951 2.9358071249495215 0.783939884168434 0.46436437085668414 -0.13566425830525022 -0.02558093379289788
P 1.1929989259629126 8.209140275303001 13.979798890562101 2.457231573375704 1.6833521475364686 0.20071368250641564
P 6.010119996123426 1.8606224517812961 7.236849355703713 -0.43896778516045043 0.08176827961774305 0.3725721313440358
P 0.7689628250517594 5.546310037249668 4.054660747235316 -0.598022397365183 0.1383387198136198 0.750115747760734
