# total energy = -381175.29342583026 ev
CRYSTAL
PRIMVEC
9.20128984995797 0.00000000000000 0.00000000000000

0.00000000000000 9.20128984995797 0.00000000000000

0.00000000000000 0.00000000000000 13.46701777604648

PRIMCOORD
 96 1
Ni 3.4641200265112757 3.548247420124762 5.234576102416997 0.9581583598283949 0.3857675469883872 -0.12625170674209868
Ni 3.5269832391512557 7.617113024439033 0.9135270651242442 0.47250268369310233 0.7724594055632568 0.7726969754953597
Ni 1.9065532750390959 1.7145315559840977 4.506199233045711 -1.7920301070608622 -0.3560059994552385 -1.3027039240525178
Ni 6.458008132360053 3.062768962087491 1.3113429939660208 -0.23957847789241318 -0.6248446597643497 -1.0147581106003103
Ni 0.8062823507501188 6.264624622398919 0.21877814997358694 -0.4169588849895271 0.8675678539333317 0.2159459260751378
Ni 5.789828861942887 4.302302329237616 4.986729237371364 -0.8845970415014766 0.060404469229986296 -2.161560366254781
Ni 2.576407180219213 5.5329288477584235 1.7359392770801427 -0.15812875795635345 -0.18846648970794638 1.0047709174806114
Ni 0.8963086913225472 3.567349297970283 8.548014885293382 -0.7118250797106515 0.13023717375240795 1.2729094663989045
Ni 1.736715865948236 3.89672787274683 -0.0652813116273612 0.9843414459816661 -0.5450671853243904 0.6561766371084119
Ni 8.502479541804984 6.513786351772167 2.904418443315681 -0.3258824405969807 -0.4455984031030906 1.2739551340545994
Ni 4.889528651058977 6.24894562439855 8.744592162980998 -0.1633907776862412 0.07024948034486611 -0.7031038977875698
Ni 6.269446098309832 4.003573251139022 12.374142180718007 0.03358812036809054 2.0744174525886856 0.044676002751135965
Ni 3.1291746713414046 5.882384637110562 12.905591203256245 -2.0559965268793365 -0.19728614488210539 0.129657389989538
Ni 5.880249937852295 7.2752667018394215 10.856463020989725 -1.3617441659451257 -0.6273322020728938 0.4106254865723315
Ni 7.340614262754108 3.228677420388352 6.27273463932235 0.9422951675438933 -0.7555209779367053 -0.25669225475456436
Ni 3.838943772135139 3.867430965685107 11.882704047208412 -0.254042218726227 -0.6003389613135016 -1.0405313629096724
Ni 7.713984204572772 8.871736507035523 8.247282686382182 1.7962420882596806 -1.4999872407211456 -0.9644223384602357
Ni 1.1058570273911041 4.506718185796428 11.300591802316985 0.1992800353836826 1.3083233271218244 -0.8375877626314735
Ni 4.399385139039202 1.6875533739787667 8.554923213755048 -0.9664761356654712 -0.8717831775662599 -1.1862491487961828
Ni 1.9703458179596145 2.8859293713779213 2.2370599279581582 0.09282556587316916 -0.2047811677075699 -0.9692089612156016
Ni 0.5001149498912548 3.1554627566037614 5.611747097095963 -0.6249986688437107 2.5663864725365158 0.25344366591027967
Ni 2.264382238205986 2.7126690824419106 6.920498087695373 0.6751184683182373 -1.1718458288866593 1.342365504308198
Ni 4.570556735166478 4.412625795214397 0.719870276852893 -0.47088391714275674 -0.5379855958872606 0.5703910088011596
Ni 4.859063180179151 7.644091206444364 6.269596999464295 0.7551725934583511 0.3760593185616878 0.9547855867014201
P 6.184536595054308 0.8735124955796385 10.768389194135418 0.2751787435945261 0.1415232881891885 1.290619739194474
Ni 9.01984967065756 5.641522471232816 5.122947893531501 -0.41545144720606514 0.5223877414490036 -0.39355644690518676
P 3.4992321487937943 8.970659574818372 7.480443505073485 1.240796902135076 -0.6775093371479171 -0.5222805264471779
Ni 7.516791360590423 8.65619629097997 4.044778467597505 -0.5118228214489636 -0.02753265820263 -1.3076746377942317
P 2.195538187126897 2.4421051527465623 10.339814273265805 0.40194852762362393 0.5449540567852937 -0.3512533152616015
P 1.7488523673346725 8.51806652690629 13.341478389214412 -0.393790931513496 0.033822604976399814 -0.21267394019208535
P 7.883932029142508 8.156658261965841 6.041520025911381 -0.5226623352666288 0.36294566399786526 0.32587164196370333
Ni 7.440586277586278 4.37843380192251 2.8189292587960595 1.1937341443193181 -1.3448731012214 2.4007868601244136
Ni 0.29540005141048786 4.602199971154313 1.5903601486983054 -1.0530076409998124 -0.9789616697269914 1.7196280991493673
Ni 3.975214875647743 3.9485495374992263 2.974177102611458 0.6506441373259569 1.190586599829272 -0.10756210075239539
Ni 3.228263362342568 4.0112379256309865 8.902264546686713 0.47129066566287214 -0.9035126474590568 2.264154581478939
Ni 8.861670295878008 1.0580011185883325 9.812782790011589 0.1010016739260583 1.5456513184171639 0.03256225020673747
Ni 1.5176975623080942 4.44362494090879 3.8661381844532685 0.4186794672250596 0.5836807839315302 0.03917307065503576
Ni 1.2912078112640202 7.646888398575885 2.3476244677304843 -0.5678651570555123 -0.023540763434417522 -2.0370989186438853
Ni 7.346199445727244 5.507551690196792 0.7585773431018106 -0.18008083674741243 0.21229187426231824 -0.46643050935709346
Ni 5.645893083938318 5.747732960621471 2.8107953185188723 -0.15917442561204845 0.4488734743099366 -0.6756810256899267
Ni 5.6603483103811465 8.927542330317356 9.102869228966327 -0.8905558301880727 -0.7410153281213626 -0.33020677900394746
Ni 8.969629030348864 1.6407464122253153 7.476174106556953 -0.7810589743068097 1.074399476412027 1.0176099782268089
Ni 0.3143197437158637 6.064975034011582 9.386187986729816 1.2460794906902541 0.2373997250735395 0.5922502707680961
Ni 3.0006142487702974 6.100022747264756 10.661083751247912 0.813536635219541 -1.094717362033773 -1.4774965158177973
Ni 3.5050749678843074 8.1349064126273 11.909530407930289 0.2361727946449739 -0.0964114834522146 1.1725176581427033
Ni 5.081228324967254 8.559628753413138 4.007124949042861 0.566592718100992 -0.1659369411468626 -0.5496969707869178
Ni 3.8652318573974958 0.9465734978227935 10.671399317361887 0.7735847774169516 0.9295383820988571 0.8190470235148087
Ni 3.7058563149301222 0.9569709554169356 5.582563365900087 0.8526132895060283 -1.4339762239376592 1.7658727319392038
Ni 8.544492631517242 5.001333524710676 7.345154179193887 0.6195913817852103 -0.3168270152629318 0.7115952230880326
Ni 5.545571420089708 3.4587648757857976 7.836296031168498 -0.5782547278199526 0.920734153543666 -1.3606558179769532
Ni 7.30442558955255 6.545328373571032 8.922303115844697 -0.27349852767862576 -0.1740883666094034 0.06941927113408689
Ni 1.3762737364479514 0.41559834171473115 6.618460225746466 1.0338266971959875 -1.2385384451182024 -1.434073411637156
Ni 2.6754774686405636 1.6845445521793998 12.691667653837232 1.3456439179491535 -0.519799411896537 0.9198563789244029
Ni 8.698043757473915 1.2868187959787054 5.23829250341016 -1.398464918404927 -1.6575606403946612 -1.5827713631979128
Ni 5.2832518461504225 6.214716825947038 13.167457153603149 1.8515570587819017 2.1320710985464117 -0.9245836091967431
Ni 6.41613306199639 1.109675562702227 7.027049944939553 -0.6936334964032893 0.1924902661553588 -0.8148188443660742
P 3.7562333771672263 4.90832688633759 7.121978732774069 2.680335707762177 -0.862337715882644 -1.8449742633580613
Ni 4.027367786836765 1.7152216527270716 3.3971364762512453 0.4173113832329394 -0.24744965311037384 0.3460324331822944
P 4.048006280096643 2.399429570161048 1.1129226979101676 -0.8991746822053354 -0.6608871552102037 0.27928685222562866
Ni 2.7636350272330183 8.67242736637472 3.671540104224501 1.3332049208548522 0.7880307776389525 0.42280094559260095
P 6.042882736946506 7.477796293967438 1.6149643979078059 -0.09454023457143072 1.083894817496972 -0.8665898062907785
P 5.203587078141502 5.211454181011405 10.579783914022636 -0.3065271759988205 -0.22636712140846174 1.211123029219727
P 0.7556513329116008 8.20985091891428 9.05500687926062 -0.35204187260116787 0.44685387277674654 1.2361902566010001
Ni 2.49432247296493 6.234895254711598 8.00709865557053 -0.4807507826345075 2.7194213609097297 3.1830997614429823
Ni 7.8710042168241285 8.408515969281641 10.741199382462241 0.11552686412542684 0.08469188102244124 -0.577734079429792
Ni 4.858152252478424 0.4316683945361195 1.7250035440264808 -0.23653686285261197 -1.3396930996823573 -0.6141087614040844
Ni 8.19439275187166 4.202063476998163 10.249181567688549 -0.9277049284345442 -0.30630400424442084 -0.40019606370889144
Ni 1.8005360127384735 5.161693605198026 6.296544817212935 -1.130370849571324 -1.4267678791146783 -1.8680537708853442
Ni 5.615077964042052 3.1424797365459436 10.055701444183399 0.6720956223315135 -0.5896454861553974 1.5038395245877003
Ni 3.3739749892990556 8.116402618625692 9.568195021850775 -0.23767149067768747 -0.692063323702692 -1.1090067820732512
Ni 0.6929104974273746 2.2984546147290894 11.817455860224715 -1.352305132019413 -0.1877604647798573 -0.6288776921831428
Ni 1.4667776239665176 0.08629245712844358 10.979780548572212 0.4636956269244337 0.09433171810505045 0.3333800345256065
Ni 6.436789957836078 8.516309080534183 13.010499710123156 -0.6011768838337646 -0.369695324016873 -1.1164850927281675
Ni 2.3092109226295783 0.7006579835284963 1.570954628285876 0.040969757544142345 -0.9385393000458869 -0.3976465578141603
Ni 0.596283151476152 8.404844654609018 4.630809541860035 -0.35103759970636966 -0.692805086964723 0.10449323201908454
Ni 4.064835439335302 6.23699314881024 4.41961969567219 0.0023975536978990968 -0.7758355211243412 0.0017596630035840663
Ni 6.75700404786593 1.6841857018730535 3.453967323228642 -0.17049859237561604 0.6544910218758728 0.6423168484071842
Ni 1.0765325164596615 7.059017986461082 11.628756726954887 -0.14631865269530284 0.49973323727428126 -1.0546536612436677
Ni 2.151951676840658 0.7731834706991034 8.73416894177512 -1.7335277399495952 1.7760077634906768 1.0245038771331645
Ni 0.3150751696171726 7.287927676750518 7.170675639474279 0.15504369127312653 -0.2449063178632298 -0.6465542835272994
Ni 7.572744404510757 2.2693141295957733 11.858773332420053 0.08747278620168807 -1.5963491018823475 -0.030784846591340533
Ni 5.296428093296273 1.773226584296515 12.817544060142666 -0.013056833183958158 -0.655063349439575 -0.19357861412353114
Ni 6.763693385627826 6.502717200014863 4.855263967576831 -0.034850017799649656 0.6943369502282172 -0.21723559142083876
Ni -0.09411907432275964 0.7096881294425589 2.5509094857598087 0.22781388115731732 -0.1737150424303847 1.1484086809096417
Ni 7.016425215484725 0.7468502991162054 1.2243346764828653 1.6285143737609824 0.31165472703337294 0.09094197569721113
Ni 2.560553357710623 7.423389066751365 5.843042681858108 -0.19215705118565615 1.4672586401398728 1.4980753684104136
Ni 6.343084021430113 5.404478840666193 6.84976961244347 -0.6471224973259435 1.5948514342908986 0.9186127363252888
Ni 8.840774166500756 0.15163449726918649 12.635712769658918 0.45054597691635306 -0.9319300222594852 0.4031824000307249
P 1.9161226165416692 6.560271268378896 4.0766544962199704 -1.054795071917538 -0.625093285440046 -0.8044259311675243
Ni 7.923193933172777 6.3493132946966915 11.833885683481439 0.0754600780115281 -1.144448924930945 0.569392135223
P 8.649083693882385 4.096993947557892 13.06828657112182 -0.08774558024710048 -0.2719602366572284 -1.0205559482290103
Ni 8.251818002177007 7.797642332401036 1.124346099328864 -0.4436878163439391 1.0439090211326538 -0.9603543390384491
P 7.53732863966133 2.908049272312715 8.53959754528708 0.6439412713844846 0.4436302236331263 0.33091254682172044
P 9.185141642534699 2.8397480973380995 3.258035055963458 -0.8016946482792904 -0.2789083858402874 0.3678343595487343
P 5.405564592875138 2.1902842505903886 5.303055782415796 0.9954871781858404 0.11905158944923369 -0.6751089552365405
Ni 9.110813622671444 1.917705238405556 0.5771803535016404 0.14933455670349122 1.7527997008053293 0.47895949506203966
