# total energy = -340872.94673499814 ev
CRYSTAL
PRIMVEC
9.21663416862160 0.00000000000000 0.00000000000000

0.00000000000000 9.21663416862160 0.00000000000000

0.00000000000000 0.00000000000000 13.48947573743409

PRIMCOORD
 96 1
Ni 6.4239661983698495 5.467629828664883 1.1933301295561891 0.14333077371157252 1.6393271481057703 -0.034906067848565696
Ni 6.686151783738262 5.638211289416407 9.355167309908518 -1.4892073764968223 0.9179074827281481 -1.1716378266409113
Ni 6.404989149110752 2.1623790024389473 7.520260840934995 -0.48896674278639657 0.523256517207202 -0.18020399258883804
Ni 3.866230466927373 8.714447195783157 1.9454249697387964 1.6020392102885894 0.7385614672642312 -0.2767769413195814
Ni 8.785184861185574 3.383371015405205 13.157351387665678 1.4845138276758951 2.257515736006183 -0.4915956957688114
Ni 4.997010066999968 2.300075513333034 11.446912794908442 0.6642481012626367 0.3657137136613057 0.049316329736624746
Ni 4.579966598362316 7.10507544569736 7.7852344580668245 -0.4223319763759823 0.6547486464126336 -0.33874232727878434
Ni 0.9019499345553736 2.298582418636592 8.05644036306121 0.6668153477691807 0.43827975795449037 1.4851640596653841
Ni 8.970890818214016 6.522934413495734 7.500687475460712 -0.2759991826132924 -0.2659837073588193 0.17906216567491096
Ni 7.419841927628741 7.642930551871804 13.214789450309047 -1.018314203382685 -1.3960485956539506 1.3302877472080574
Ni 8.751802213095988 2.4665647886202344 6.322638524958231 -0.09246638276153753 -0.1573394292858387 -1.7758290718209677
Ni 8.659055225871947 5.574349232924765 10.340316720601242 -0.20243992116890294 -2.1158782908366334 0.5509820081469284
Ni 2.4081681960482846 3.342430727494125 10.136356298413705 1.2642499909516935 0.05848514072008638 -1.5026606737882509
Ni 2.115623018518887 2.116166799920678 6.105741635388438 1.3476154398532274 0.27499876637323606 -0.6910986457965775
Ni 2.105973202795587 8.61576469630906 10.240764170884281 0.7509300161319132 0.7762656666832244 0.3143674979788457
Ni 9.115462938018878 6.982226932062334 1.3237906611528896 0.32861192371300174 0.7781132614149244 1.1506738227947346
Ni 7.396993892119609 7.688460723479353 10.551076253637945 1.10998380127454 1.4227721276917238 0.5941904252136024
Ni 9.166882538706837 8.77877008397123 12.333899524280648 0.6776782586256135 -0.29540072706835574 -1.423997772568709
Ni 0.023736519019854765 0.05222789948350198 9.013802544122436 -0.20958681662632936 -1.1583261971336696 -0.19926460876471488
Ni 0.7135075589135127 0.10553322347326358 6.360328106082675 -0.7988476657487984 -0.4398422173456038 0.9390458073686602
Ni 4.4533576980844005 6.793940317533867 13.261718706946965 0.12561227338588687 0.3655687034430091 1.9412589914244243
Ni 5.120300979063568 4.641773345487868 7.649139798149538 2.2522966536990885 -0.600577559686869 -0.8009847666964592
Ni 8.181504555492683 7.730322674783299 5.476848305920323 -0.2786247931615976 -0.006750688460272245 0.03270211821871142
Ni 2.7786123635426634 2.4626938023702003 12.344880221943246 0.5649230437080529 -0.15732914487319358 -0.9638147867832241
P 8.13423244007262 6.710207198292048 3.516989165785862 0.973650284816407 0.8005723617493891 -0.5313104978599301
P 2.510426749486698 7.847014476953983 7.405047386846467 -0.5665346111695468 -1.169269840629367 0.07671297658202272
P 5.158780425715698 1.65363924284512 0.12507709571897377 -1.8453763838924864 -1.8589191555739275 -0.40462221780104507
P 4.707985643631316 2.5785653241212345 6.406772567775946 -0.837132934482242 -1.1581942995414956 0.6717297543516625
P 3.365509178851474 1.3728544902086848 10.248467433521851 -0.6233521343792232 -0.7947081896591282 -0.2686597115290857
P 0.5821631521230544 7.245407913895041 10.539097394520873 -0.2983307562309572 0.7099430321965902 0.3530083502794953
P 2.9554427020978133 5.279398513939989 4.468200165363104 0.15699798678601995 -0.03805155545608285 0.4511342453196553
P 0.9431381499191342 3.5579340620139064 1.4029864315116325 -0.6099464024962786 -0.8586196436011084 -0.5709890473964747
Ni 6.795525578569596 3.371297224958669 5.515185816409951 -0.05080448424637702 0.9807419015558656 -0.6622596100776982
Ni 4.6145474088626255 3.693437014032973 4.796897589477646 -1.4984957437772837 1.095562226532571 -3.433075266299004
Ni 3.6639437854612815 2.8916267287758153 8.191133172957947 -0.06524585648268763 -0.810013709667947 0.5696518166422899
Ni 6.274048430886369 5.6404970146307125 3.725038086784148 -0.6600248072099084 -0.49179547048444333 0.0038949641790320014
Ni 2.5648233229336115 0.6253421604154042 8.138834305393194 -0.13357086611133126 -0.037185093690729504 0.5617544161720841
Ni 2.956327498954964 8.952770915910284 5.591886643964207 1.093154645532343 0.08496956016386012 -0.39825950880781086
Ni 6.961268306508575 8.04037024014321 8.08823590678828 0.11415286659603564 -0.03012201619636103 -0.1362041899691203
Ni 8.711728288774204 9.063204623643411 3.251314162812062 0.12553745428389346 -1.5033733835845593 0.14575223866887158
Ni 3.0829456158668087 2.017124851723365 1.0790189839292759 1.3013597513197974 -0.13377321193012442 0.2723009078260988
Ni 6.415689661101919 0.6163043291849664 1.7044763522687882 -0.15606930432416347 -1.098642665230108 -1.3484713600956195
Ni 2.214766349689415 8.32179094052072 3.391091789647238 -2.352074739630691 0.94165650551863 0.23964378391270985
Ni 3.960101883490711 5.99349409409815 1.8455221879325474 -0.05016427955921683 -0.17368753162655892 1.7753104803133362
Ni 3.856820283686217 5.804921763917895 9.63358983926904 0.10880522913087712 -1.6114831293103087 -0.18129619721175227
Ni 6.400187282833923 3.2862737769668384 0.216092277427822 0.8511356765192374 0.4049335783938768 0.6528151768353466
Ni 7.9499181947674025 4.250158569859372 7.922504238810014 0.050608051964854774 -0.19326905330291233 -0.3136545310722211
Ni 1.2328538208324349 1.2985131209401641 2.294262582314232 -0.318509030951045 0.12700015487234903 -0.21023653439518633
Ni 3.9476778609548857 7.466773027593446 11.262012371685364 -0.08276406787210908 2.898520036249531 -2.0718466065377155
Ni 1.2782088763953399 6.995093353026734 5.481812384954297 1.111901330012227 0.1315605205495218 1.0535285465002888
Ni 3.147185554349525 1.6117957248090322 3.524611322044859 1.6163453424986163 -0.47542474243590377 1.2817077814168247
Ni 4.748815331935252 5.896037406936565 5.675008700376557 -0.5848845744316443 -1.060119312343929 -0.5256939230041011
Ni 3.4543206633879815 9.1419423272959 13.110447937602759 -0.9497436534021384 0.6188375343383213 -0.2998225102851353
Ni 8.337551384538719 2.2013192807875095 1.7573687710585462 -0.38619692121632193 1.205956397417123 0.7502468740219596
Ni 8.517957777058188 4.725451164926115 2.6078935749456034 0.25994778557738457 -0.7535306869795538 -0.04878076894812889
Ni 6.138103080438727 8.193467746332075 3.518945857168916 0.6346377345953715 0.002407323889911983 -0.8571816256030012
P 2.1508029102245585 7.563943999103241 1.356245194205858 -0.4405212456904994 -1.0335598166878457 -1.0881458794638421
P 7.573455565317612 0.9365206067583608 10.984035005743596 -0.06143111072228775 -0.9771608690728267 0.13300702318806126
P 8.092223022625815 2.7917737167927807 3.7931056933374347 0.45679632870143905 0.6274548436936871 2.0537015601975726
P 3.7936310414713676 5.379085626512308 11.80859194353667 -2.6695159914388538 -1.9965068561541357 -0.20139836727826607
P 7.339316196994093 5.062706233643412 12.738152148352112 0.11189029581410408 0.18567838543984794 -0.8241825449691611
P 1.2807711006275055 0.7534745702817266 4.383971191215924 -0.32328099841839164 1.1087309027040453 0.6872463619300229
P 5.663446433113061 7.637262322005682 1.3204385713930382 1.2435428403113293 0.17558680553180084 0.5623815082331217
P 0.7606358948442905 4.3900025564588345 6.953716196667436 0.5139938609583535 0.48606319598635644 -0.47309609430272714
Ni 7.298652408100874 0.8165946877421116 4.802859829966092 -0.8775301073523661 0.8463539388598779 1.0855254111218595
Ni 4.821589873435903 0.37261652811136226 7.259159131716592 -0.299266123561033 0.47570576401143233 -0.4667642385474283
Ni 1.8627093668827008 5.415085798637629 0.6533266260129755 -0.08228044336747119 -0.06230322891459592 -0.012526928822417136
Ni 0.020954938900187077 6.031411326080631 12.65660797966835 -1.5699037632066255 0.08219251163935523 0.13756764597555018
Ni 1.156328109322823 3.572182978067605 4.420810998692145 -0.8075619056933446 -0.14849432019038297 0.5090663417497491
Ni 1.991815974955282 7.052033717437957 12.381085925005175 0.6870987806085651 0.9606646711900165 0.23434114075287382
Ni 1.383730118244496 4.324628972002894 11.772359512236347 -0.129371483318003 0.9441836428158579 0.7748384473183946
Ni 8.814945372141196 5.224817607814502 5.147206176828095 -0.6465406566805446 -0.20404866041691955 0.46279316971482237
Ni 1.4072694012982776 6.13541182333156 3.2787382570667707 -0.7248932257485193 -0.7830145553712837 -1.0336804014261103
Ni 5.7717603150426 6.047512785553989 11.481984851997149 2.120831006856218 -0.4531787865535098 0.10129940767213523
Ni 3.0060143724643367 5.234605673046732 7.305454283940219 -2.5973602952102106 0.364986605687294 -0.6141316442222198
Ni 4.122102658054657 4.062037854741621 0.1441297213762867 -0.6662468768602202 0.5302121225894287 -0.16159383368681846
Ni 5.8301661242484775 7.912102345758135 5.852530286476355 -0.413083718304837 1.440711999999596 -0.7711049484178913
Ni 6.08782634235792 2.390859357530273 3.0672773381880973 -0.791930626913991 -0.14020096983333918 1.4288592144260683
Ni 0.9589262438389179 1.59476338530888 10.915305644874232 -0.7487435500035556 0.1633979767750928 -0.07065185798960735
Ni 5.522551750245731 0.7863991516650563 9.537153433483358 0.24352820656878058 -0.7881642178930234 0.559202853394824
Ni 5.741391506247685 8.956476002749602 12.400294311775882 -0.15750912209448356 1.21424023469247 -0.8368269732060492
Ni 7.8273738300520215 1.9847191668302187 9.132064860714562 1.5271393756559055 0.09847607929072717 1.1108849729325707
Ni 1.4043569449768232 5.485067700057896 9.11680764490907 0.6863547033536889 -0.18929952713220302 -0.5909318090669888
Ni 7.781235360605182 1.4613894757273322 13.08332061896055 -1.6647455881788749 -2.328766403922054 -1.4806204061587596
Ni 7.259122265180877 3.453325266923687 10.991912462762416 -0.012298614861694947 0.42159818353375134 0.3981096134935079
Ni 4.0345538523663755 7.247518523064703 3.97262360234618 0.5727124578454847 -0.6098726118355497 0.40104144242832224
Ni 2.5711828003443826 3.8937882023740475 2.6691086141729357 2.187517195329858 0.21922202572324825 -0.32811672924413815
Ni 1.0975536347597983 1.3302644248243758 13.367827048377377 -0.7301855844957101 0.16980619429428173 0.7522608191281948
P 5.149858724072761 4.013816426026905 2.168878572685434 -0.9717152725772232 0.954911313646007 -0.05043193139830669
P 4.86432740496307 0.46191649424608805 4.656715352413001 0.45283682983305884 -0.08678707298857312 -0.4832840905793225
P 6.594861024674947 6.176020312421208 6.7887135644329275 2.024189923891701 -0.9293550624434574 1.014530825080853
P 7.87942016184713 0.5547777677308456 7.175510805506916 0.5224304217614809 -0.05183112573867848 -0.2631639785218371
P 5.415795479450135 7.671041285354198 9.683595608312343 -0.28475995952505795 0.24675828347030404 0.4803347781430114
P 8.564391178790745 0.13570479630210436 1.146081055720946 0.9254780959865545 -1.3348411709066945 -1.2437940370901868
P 0.27120221834081404 3.4741732928703013 9.719841864563561 -0.8896634002807904 1.2023406550414066 1.5903103518874353
P 5.561464378692507 3.779382125417669 9.490466574317763 0.24892495210431967 -1.1724068435964516 1.204778575058938
