# total energy = -340873.97917163733 ev
CRYSTAL
PRIMVEC
9.18226321124175 0.00000000000000 0.00000000000000

0.00000000000000 9.18226321124175 0.00000000000000

0.00000000000000 0.00000000000000 13.43917036704138

PRIMCOORD
 96 1
Ni 5.293042244117499 7.235752063444383 2.933421858336945 -0.270915597442798 -0.5627805434437534 -0.5538112500656075
Ni 7.333947187600139 0.2605182572502997 4.712001475144015 0.6755033624614817 0.7676864096546456 -0.5370666836174169
Ni 3.0482910544914334 8.504208285730197 12.266441434096292 -0.9319318220316983 1.3561003373957872 -0.7356352947563718
Ni 0.47513988942297336 8.647368953460925 3.8891751843597433 -1.220474131417324 -0.3273531116052362 0.20315288807552753
Ni 3.1919659289691893 1.9382656038704233 13.159676401943768 0.736393513078635 1.3940886437141022 -0.2803985972325687
Ni 3.3062575607596045 4.985188501124228 3.995882266631489 -0.9073608175605534 -0.7717896331897417 -0.15963053931286056
Ni 8.156393332682143 2.201392542135559 2.582605223403112 0.14843724170020242 -0.15537510647061628 -0.4541606908508049
Ni 5.915764979295645 7.676261964907657 5.483154578983595 0.2793716986299511 0.002272340973944474 0.8543945497761674
Ni 1.6392635627367134 2.320835423659598 6.956436794911191 -2.9821554509829995 -0.41878205424119486 -1.0959419784694933
Ni 7.990084179071794 8.452778428764011 6.705258735930129 1.3703468200124722 0.35282477351377944 -0.496409572217687
Ni 5.493472688298521 3.2586567076061126 12.169303188450945 -0.2243356928007298 -0.7712733556749555 1.3944745662986113
Ni 9.327434923196085 2.4628483084728514 4.86518091040479 0.28255549567457144 -0.8501748552678648 -0.5145854717957654
Ni 3.0206248950486345 5.467082863459954 9.309018057615459 1.7740735225824416 -0.7795960166080381 0.02074674562904814
Ni 1.4571333693919004 1.9755731398200063 3.0069873975363723 0.5477015376234439 -0.31659510175778377 -0.21477298881295917
Ni 2.6229961633821977 8.102061880500582 3.154267228601331 0.5247870949191156 0.48906007383115124 -2.1576132086815747
Ni 5.369888606008234 6.061891518085126 0.27945667538862473 1.8763298948512075 -0.7480827764911051 0.5779333399247918
Ni 3.555014256897962 0.9489134580609855 2.1977481018159946 1.3058980055097833 0.4213395305557259 1.0218440709128145
Ni 9.002061421750485 6.5286902394902295 7.416998004829574 1.2192885957496549 -0.9970930892203796 0.8885280011247665
Ni 1.6003858597560259 5.055882746577302 13.280440611162403 -0.5560686786412165 0.13343254076125408 -0.11535537154456908
Ni 1.3668992675517455 4.519464104529879 5.860365629887666 -0.1616334286755023 1.5706095310243982 0.039484174137551356
Ni 2.9490858813683 5.977607522889157 1.7546717577492474 0.7954435251632559 -0.8443605625789329 -0.07660241914608744
Ni 5.089425554557568 2.9283706952737245 4.832134862871206 -1.9713668665533985 0.5940505572016285 -0.5137719747555345
Ni 5.356289674002 8.799867983008221 10.17612673158222 0.34240152129792645 0.4253152273740223 0.08622014474150959
Ni 2.5169134750175584 0.7398461769825532 4.733585303350534 0.5590915246279403 0.5857957733920041 0.698035739236043
P 7.063217335289655 2.4180939569546958 4.54862146353906 0.8251523650815983 0.6788465679021018 -0.20608831655476764
P 1.383372247983336 2.4261376196403552 11.79022446518356 -0.13321091166875124 0.5057863854468966 -0.13640884978075862
P 0.5294263485141691 0.5283042759340463 5.819819509658138 -0.11531012012893044 -0.41943460022352924 0.9329728617017029
P 1.5858136078357727 6.526183481598466 4.145540303901454 0.18023458871645734 -0.7217076289316862 -0.2677917071018356
P 5.013984078957821 4.826124153288977 2.7347902195441884 0.744837272970614 0.5256183325711593 -0.4429434819787469
P 8.785121268084513 6.921966578333604 10.058802198210671 1.1655823644754508 1.8660889338494893 -0.11329257547826939
P 0.3589447744422189 0.35636088553840095 1.8221366011857156 -1.7050977667436762 0.7058431510956038 0.6169801694146084
P 6.384262419418611 0.330109712876264 7.613626073761587 -0.9694850976951239 0.38418837542672546 -0.3349512356674683
Ni 6.020525421739353 2.80469479035004 6.978330065392262 0.8096396141579798 -1.6586597869961113 -0.7665978045761572
Ni 5.573991955525174 5.409969185486435 4.8500081384621145 1.3810899174615892 -0.16781127535144003 -0.2846234339471937
Ni 7.6877306118190605 9.3980465282791 9.375582121018294 0.4003809260261879 -0.9916670331088019 -1.3400929062239373
Ni 5.854142810022288 0.9966704096912538 2.9278170047943353 -0.34501839009548324 1.6557487839969034 0.2177950634687346
Ni 0.03469242735040947 1.1426683967939775 12.982144686079526 0.5543774069817227 0.0792758522131925 0.34980732684369437
Ni 7.4614888253898775 4.505130591456461 3.615177364526626 0.4270620348618 -0.7755794392494773 0.4871438306450449
Ni 7.482580484281384 8.795772693558675 2.2565843723920582 1.5700194628488833 -0.7076478084045104 -0.21361367839753534
Ni 8.625221334285342 3.6990656041726497 12.5525075026369 -0.25394348836483366 -0.7223581180314914 1.0881489647876357
Ni 8.087994653064019 3.7979310335522105 6.131876892808367 -0.6714767578005919 1.658716608375976 0.7412588115907364
Ni 1.833082777313084 6.668352464888496 11.206709076240001 -0.9746198478185278 -0.007274679284542311 0.7339175407343167
Ni 5.812244142402808 4.69588293007734 8.050789040237506 0.19558741702344382 2.024144672476062 -0.5068798756213916
Ni 4.714972855560772 0.714497620806718 6.006368208122059 0.7763176029670824 0.0021748961641317385 0.511431499547816
Ni 4.069468925036597 7.834251987932152 0.8701470849058991 -0.31682444415977046 1.416316087653735 0.002983508108356152
Ni 1.1616481351173316 2.853167958520812 0.8919228224162203 -0.6601842156059082 0.16041009779136245 -0.39477463558300396
Ni 3.1012359849086852 4.0994306503143445 11.456677831139212 -0.007233284523645607 -0.6843451291228279 -1.5849974243149543
Ni 4.263581972039841 7.946936723638103 7.61972768775088 0.4271399392875869 -0.8247541012019152 0.29782296335660324
Ni 5.173342259219945 0.23364085422838887 12.760775008578436 -0.6452044543676243 -0.3136321624747179 -0.47035966920817057
Ni 0.8169927988844999 4.3766431805427235 3.1697090408598627 1.571720761810706 0.12364897901192898 2.418950418407318
Ni 7.832691003164387 8.95595727752138 11.660334922657837 -0.9225904900261144 -0.4785936270821886 0.4852460994016997
Ni 4.572032562150199 1.2172926509564828 8.54122474393191 0.5148847482037391 -1.0913690143868302 -0.6147636213792639
Ni 3.1033203586868185 8.799886347534903 9.81942426584758 0.19048763390303325 -0.684773474909498 0.20038483841208715
Ni 6.644882599791982 7.019243476155381 10.94698416654226 0.7128260101713401 -1.1420140902372076 0.36719621174410305
Ni 6.620255769514656 4.070056589890344 1.4392408110479782 -0.590098514532416 -1.7796949825342767 -1.4308675031053488
Ni 8.752524233228245 7.888307972213519 0.11787546917193675 -0.00047771096736691927 1.8574397428149234 1.543210313075839
P 2.5437165017064167 3.1157072319322006 4.860907485046451 0.43549242501734026 -1.765869389505094 -0.33204151821984107
P 5.050942688900492 2.147988498551317 1.1012086413621398 0.9122492560011064 -0.4492545117984392 -0.4939739661930008
P 6.782809377419027 4.947072926000743 12.238971775088963 0.39222332991606 1.1142009246796811 0.05779839906570691
P 9.081800196593257 4.65310276517724 1.4522364683527886 -1.7165759425866052 -0.1879494408622118 -2.9248247355823307
P 3.9455450990027385 3.4189973900455946 9.29509499171333 1.7649085682537218 0.954961193047336 -0.32882095440001435
P 7.254933811561212 5.779114536272831 6.595448048649534 -2.004485503484238 0.23594936578025816 -0.22218702188884318
P 3.802613987855506 4.745724255485741 13.244382781253368 -0.40133043442365074 0.017036643767312596 1.451626847139887
P 1.8695914563521048 7.260691090675263 13.614686015446912 0.26112432238398897 0.12566266700784812 -0.5101490332909665
Ni 6.526256939705185 7.327363504785507 8.173085769207555 0.18298746887124612 -1.0937254304341484 0.8717803493527825
Ni 7.4798441698061255 6.17219804758607 1.7977172900598675 -0.006921409710181628 1.6325492059519882 -0.32442462510453157
Ni 2.0628597351280873 0.3672877789127557 0.7234843019373743 -1.04660430857663 -1.9997503027920978 -0.43751871141874976
Ni 8.174721130308372 1.7034567657452127 7.256399300790243 0.582174631699649 -0.7737423860407384 -0.021837407590065618
Ni 8.460381342809361 1.9384400668738795 10.632816699276544 0.6203102622291059 1.5397128414455419 0.5964095443521084
Ni 0.7029894901629543 6.823523533067673 1.9830566844419382 -0.46540798162985014 -0.40803330036512314 0.693339105091322
Ni 3.3709098769350936 3.41162403258374 1.8247572191428927 0.4538573006777732 0.7235660222966636 -0.017893592450969182
Ni 6.219376516625931 2.6761798326462842 9.389746680446258 0.5396763533261221 0.10990231884979783 0.4986641725798186
Ni 4.056145460930556 1.7741510111982863 10.962908965852465 0.21845275165739153 -0.7760157554559474 -0.770850409204924
Ni 3.924664632168047 4.97886192168311 6.337415430085316 -0.22647407929997126 -0.6395796519816791 0.8908995866807365
Ni 3.740642892575236 2.725993611264666 7.049005946318656 0.3462707744453456 1.0768219698105908 -0.3192754768034243
Ni 8.82230025234734 6.076399494162 4.934608003516972 -0.3979090674469276 0.373698274528679 -0.03291012046445945
Ni 1.6041964990420403 7.126620863650931 8.880456117209924 -1.1873187277112778 1.4046288811237937 -0.7808972519179648
Ni 0.857852952520249 4.505709074046868 10.715158645776148 0.8490996199258151 -0.9961947457758262 -0.08751083852847509
Ni 6.933132210554794 1.5231722073316987 -0.08451997936380129 0.4662708438507776 1.1157757253659688 0.9059348837473042
Ni 2.540227241637295 0.15919381774834154 7.1608064300649845 -0.6974991500062826 -0.38854562395415665 -0.46425767007549074
Ni 3.643026251009887 7.158134391433104 4.949149035741871 -0.5919057429444838 -0.5308813807423115 2.2686781803809057
Ni 5.569859937022268 4.789248183716365 10.337033959669768 -1.7581753632949462 0.9986838307462672 0.6012213639184549
Ni 7.911823748626731 5.091840489815934 10.122732788487653 -1.0278306275135523 -2.1286271058618698 -0.7706532055924533
Ni 8.719615001418424 6.086380614412356 12.357639673587126 -0.24530483885322912 -0.5722342326574855 -1.3160260950827207
Ni 1.2718352951948588 4.266786581945429 8.254593966195904 -1.019190178229735 0.08430724398951286 0.35613763993709635
Ni 2.4295534216027583 1.9983267883760156 9.218370753925013 -1.4429684001339407 1.1187008694325635 0.8077729932628863
Ni 0.999911748650201 9.113625921328982 10.933840674797679 -0.6274975240061645 0.1063577960316491 0.5703622124457532
Ni 4.220673255452984 6.678893703202579 11.68926915266786 0.4857094121913635 -0.8623048057621795 -0.31996633222286186
P 1.3024489611697319 0.3237868063404819 8.873817340815252 -2.2995175343592655 -1.220286183776234 -0.4907839985007935
P 4.758432507948016 6.849142047785699 9.590434228000795 0.0672258630271939 -0.9180944019279736 -0.6659650839537433
P 6.24839246877968 1.2944879388541304 11.059712058885907 1.193155903218345 0.5539493183053685 1.556870584171751
P 6.39320594391157 8.121868022524518 0.5736453740796148 -0.08735580100784957 -0.3124070318183652 -0.669261495316828
P 2.7000812641197673 6.50017931182017 6.9951556447361 -1.351171532635602 0.2874804437800146 0.8715746610998797
P 4.538306108903136 8.96438659526731 4.1199924926111455 -0.6567265960746109 0.6219444553984192 -0.9883544237958012
P 8.232174552025462 3.270015167357438 8.76412694118441 1.2141870128570313 0.8923548310700244 -0.05808224885471287
P 7.279459636941802 7.196185690713211 3.809587916862079 0.9248499754842524 -0.08699918899937921 0.5841340694188649
