# total energy = -340870.20806662994 ev
CRYSTAL
PRIMVEC
9.26160004629713 0.00000000000000 0.00000000000000
0.00000000000000 9.26160004629713 0.00000000000000
0.00000000000000 0.00000000000000 13.55528784463388
PRIMCOORD
 96 1
Ni 6.664258540281691 6.60787391806467 6.604854636388791 -0.044268740010388274 0.6251344230906266 2.03304608873075
Ni 5.78239675091933 9.173494629742134 12.883081343528987 0.5499291414023819 -0.045274812677399454 0.7942657028050708
Ni 0.6386521672501794 6.866698598169278 8.63021842168888 -0.38741048190844896 -0.14848686399121525 0.09260727921477599
Ni 6.851333603383136 1.8633228276277836 4.560948201262701 -1.1677073812382535 2.968718094531171 -1.5207488987485294
Ni 0.996122151433876 1.150559335315088 6.654440317874945 -0.937681837141598 0.26857177980096975 -0.008754092043546213
Ni 7.6055798031383475 8.098463644325173 1.24453771903689 0.4949201321563541 -0.2129588184223558 -0.15381830350645767
Ni 6.005832856534576 1.4486161540056526 8.55392876825162 -0.1722849948520775 -0.7265652141343035 0.21371292297956096
Ni 5.655346118926378 2.5444116471444524 11.137458636299163 -1.0516680962527822 -2.1653491438732515 0.21186558535817704
Ni 0.9487490662433273 4.195273365432806 9.95649439357996 0.33309387074375535 0.4688743429118957 1.001532870159288
Ni 3.307734215127765 1.4175805316256862 7.603309784921299 0.9479503089471415 -1.2276796480268275 -0.7681160409928964
Ni 3.700166740190117 3.9013101740451193 10.596114398054464 -0.6710404415941218 0.3383129530508496 0.4087236415639283
Ni 7.219843415044278 2.882876827650533 13.125300900576288 0.5559311246220877 -0.46871159208178637 -0.6474981354978074
Ni 7.503248382166622 8.647815462131117 9.756147457344976 0.7865901885376841 -0.6356461212552279 -0.1511826656558235
Ni 8.655335881520115 1.4814948348319377 9.306491209084516 -0.12373253986467078 0.01480852576774224 0.04661358609348101
Ni 3.507618071351112 7.7271383061932735 7.955747941698538 -0.48225667775607267 -0.2759014806931635 -2.49173449224858
Ni 7.4267012562428905 6.002702435655905 9.308199048167436 1.94954360003072 0.448894300245543 0.5549168244249604
Ni 9.152433750812847 7.775233796201977 3.3022717233104855 -0.5730855249141873 2.3621946016735125 0.7220886664201887
Ni 7.31252424857347 4.099202786218424 3.33161895596802 0.01189880832011499 0.730927090647425 -0.4374737171134272
Ni 5.8431435868459785 4.550566873561805 12.187342524764144 -0.5336712847826228 1.2118701917983967 -0.03346702140919398
Ni 4.2592988078418506 5.3348762276725425 1.7624991951739515 0.8537075510114717 -0.12949309649753182 0.28213743430054633
Ni 1.07792060468958 6.2412164264500785 13.071147397855338 -0.10038975137367227 -0.32486094131100185 1.1499878524713034
Ni 3.1960578395211887 7.26154840089238 0.4873083578467079 -0.6708998022511994 0.8161046530570332 0.5661746567269668
Ni 7.478093875934456 9.2264709830735 5.218732056113685 1.146677814261464 -3.378017406092911 2.3620609043091254
Ni 1.6374879675522527 8.044950118180308 6.336216364677554 0.37726028084832447 -1.2767290972553107 -0.4079458828576394
P 3.0787318877726317 1.9066671167170832 2.819974817349722 -0.05544866788660774 0.6294052825518386 -0.8152412766154734
P 5.522608864390514 5.556043241230764 3.5058315086662137 0.7095200857265587 -1.1569748253120977 -0.10858514270027106
P 0.44181630366343194 -0.09174819038575419 4.921152209835108 -0.20210053555161323 1.5093072325704908 -1.1567789072512076
P 2.1034483368624577 2.904650849797743 6.38260216328329 -0.25785722159694296 2.177092400452109 0.5261392380716358
P 6.486639571017889 8.616187097336253 7.600802669738292 -0.17513891936110482 0.15722887184990342 0.8891136984249074
P 3.2463205439843574 7.674050813659115 3.970655479627859 -0.6321697326708532 0.5237506832348011 -1.2106468609142569
P 2.178874809158025 5.287290125676641 1.3195344530816577 -0.5368921057127657 -0.11520316223742094 -1.4970073321572153
P 8.621744057475908 3.4671726631346655 4.838208096630612 0.6448023338331992 -0.5481753919360688 1.0104278586560727
Ni 8.621429163067994 0.8608240644336549 2.563887866273916 0.7644684169379802 -0.022718010422806034 0.5541056413775747
Ni 8.725529549684175 8.72067647116221 7.563701625365893 -0.817615947495237 -0.144913287707344 -0.3328840687257944
Ni 8.787999043254118 7.808075430627332 12.260785162289855 -0.6988566924754416 1.1585465406745918 0.012585035753862196
Ni 0.5419629131402496 1.1831972145353213 11.628078942389106 0.19358067100606013 2.5393968313215494 -0.4702547681991901
Ni 0.6711103714258972 3.8766928406264527 0.0466395664521144 -1.2723913891119056 0.47563660133639374 -0.15953463716494462
Ni 1.2447312864817544 5.250864251961209 6.920868771770647 0.6055894110791635 0.14887921433362747 -0.6380354474230109
Ni 4.2680324968613395 0.8400558520717221 1.16754418398194 -0.6179505037476777 2.016037984208528 -1.668772707060397
Ni 3.5741626690234667 1.7802370119397264 12.02715944409853 -1.2778339002837156 -0.9848250704863039 0.29073186083777675
Ni 5.1900248000322335 3.100885635529385 2.7087800449552493 -1.1453231000057824 -0.34894497884339903 -0.3843223299014284
Ni 5.511244880904922 4.910278165001828 8.837207777610798 -1.0825658142729033 -0.748256325954492 1.1492568878425498
Ni 2.0244654100775112 1.9943837325215186 9.530885890323853 -2.268503088255622 -0.1595498066735962 0.9535866812973126
Ni 2.4058117996612536 7.345995671814652 11.35948049555887 0.5146343227558299 -1.0440373191804018 -0.009815186318208902
Ni 5.15798892482713 7.248035726152788 4.7678560551025715 2.8589998666677214 -0.7149042328566074 -0.914350104394193
Ni 3.4828618139289547 5.064789441684902 13.00494362707155 -0.1921141137628627 -0.24887095893793268 -1.1530757473680078
Ni 6.787863856988056 4.694436571577441 1.0453419997108362 -0.9210390863785944 0.2021370452165035 0.04772713087263393
Ni 5.3511581208817285 7.316340027869367 9.19798137459752 0.6535440845815713 -0.020674754740532132 0.4858659923738858
Ni 4.577721885444246 4.068102332636828 4.8615769663379025 -0.39797874434259845 0.22800028613651058 -0.622691875087405
Ni 0.9889536728537226 1.5319983409011582 0.8691937725639968 0.14432399086277725 0.3864936265211344 1.1861038814675702
Ni 1.089395727377965 1.9403793415643165 4.022233331324079 -0.14499582011882126 -0.3172499617329633 0.7679561183762645
Ni 8.327280739675652 0.7070148170482237 13.341629654172918 -0.5595250126209331 -0.30601501224909233 0.2722985938332536
Ni 5.144754098094521 3.1774512846535816 7.103946528211635 -0.09202261035589958 0.13979293576164314 -0.16935445146884381
Ni 2.4346061147848936 -0.2011702924956773 2.338083569479153 -0.6154061400592692 -0.5145317357396945 0.3484680392069805
Ni 2.7005992734696553 5.917884700724322 9.212933302013282 0.9185140059638955 -0.5630340542154562 1.0006602377463476
Ni 5.251651487980994 8.15432961692916 1.6513053489395022 0.08989425115898712 -0.4223381470235694 1.1625433205388107
P 8.454257278866741 3.235391855709705 1.6039563439095585 -1.364951874249146 -1.3096662143029638 -0.5181348797099206
P 5.3010250788218185 1.2225312307238376 6.0970327601865515 0.3219255128317617 -0.2824716777115135 0.19339426602686693
P 1.657780133662222 8.997802073326746 8.2557941521191 0.6291512575595035 0.2729537109187492 0.4416934116217296
P 0.6444703045163969 8.351509085884542 1.2362476606685495 -0.3115176872348764 0.6360888652196013 -0.4847092530616233
P 3.7118270948831573 8.716703244662359 12.38157680484551 2.0846692122236807 0.4673607344808467 -0.2804978418145943
P 6.79721807322314 -0.13552036540580722 3.256074861349497 1.0725706507334045 -0.9829005997700814 -2.0972979567312846
P 1.8347785757104287 3.2718825606267647 12.000902807438667 0.4293482597928154 -0.4277726877755794 -2.0703283701209765
P 0.3976542152735799 6.479165459630055 10.850859343256543 0.23803890131943517 -0.7395035194625265 -2.0058052507369264
Ni 3.0398146435945894 3.7553010463757155 8.224142633323655 -0.4821191237369439 0.86005071962068 -0.5038503447664484
Ni 2.79362278620746 3.1223355016684486 0.7694565258174669 1.8508934570559739 -0.7193630399589095 0.5776361203993471
Ni 3.3145692760995393 8.96973016302126 9.853325723947194 -1.2676669870530426 -0.8237485427555361 0.6777055123191232
Ni 1.1381024830020308 3.7368426771118317 2.4034204544811564 -0.5372428041839651 0.2757374443114735 1.0538684463382109
Ni 0.1504741451416156 3.372546893556594 7.909076885805632 0.7231531031289611 -0.04102735025495515 0.044801729695722846
Ni 6.727700501876072 1.5612279512357372 1.4615583141709063 -1.0649177621738368 -0.10922534738743124 0.39124991025919714
Ni 3.3670269798178714 1.9050000286751874 4.994174370710251 1.0937120606977098 -0.2997050108706644 0.04996990416022362
Ni 7.235995645850205 3.3911627100244344 9.982073081102786 2.148824149635035 1.0606656717657021 -1.0848900915307058
Ni 8.724464465657407 5.898435340235534 2.1469139529148062 -0.044095447657317606 -1.28999573245723 -1.5352247237672012
Ni 5.441393891949473 6.679484611064342 0.003905616818153351 0.3300748814117735 -0.9068581668925221 0.17011832621806186
Ni 1.805150716565841 9.2018721728553 12.991699538738708 -0.6658684104748791 -1.227848055283892 0.9228776822492298
Ni 5.521340025158626 0.02112848861098705 10.546380530964585 -0.37798044684380067 0.7445467383133887 0.8731458622417414
Ni 8.427824671802455 4.811345751315525 11.703270170038762 -0.2962129385570059 0.6729068053788991 0.1829437601175043
Ni 7.455680803371186 6.573578212402773 4.41793983206871 -0.26676352294763733 -0.7362711285681578 -1.0846777184095837
Ni 4.855421706823212 0.3952675008935986 3.4578323392999306 -1.9262550618164243 0.8908219393652658 0.8512973989080822
Ni 3.8887421825292687 8.760640276166555 5.574056127523453 -1.261193206403241 2.548493908526811 3.018996016850117
Ni 6.601131473095223 4.430934783355291 5.68184818799241 2.107259181709055 -0.16053788161847835 0.17011061290857799
Ni 0.7840018689830108 8.7888140640746 10.134556993494911 -0.502773823872818 -0.873988926968327 0.27340339686165815
Ni 3.2978983956805776 6.076860068719585 5.584643062749516 -1.454246029930289 0.37640230372340333 -0.567526542769171
Ni 1.7279367554253515 6.561454777698096 2.9591599979676304 2.418228709749945 0.482953189602465 -1.6187326117838703
Ni 6.519129264634398 6.8628087260715205 11.612191593349836 0.6456603109581203 0.6479496212129293 -1.6701934986673235
Ni 2.2712314866790715 4.131609125432838 4.4920733849717855 0.09114920661201077 -0.686562705599437 0.4787910878049755
Ni 7.632762599821487 2.237287721826019 6.843414009024106 0.06175301283808073 0.0707269342019169 -0.3745644791837162
Ni 0.5266571925955965 5.537686749569441 4.387900757873789 -2.683372180595656 -1.0944692505787088 2.235176449079034
P 4.399639836168807 6.15671358592641 11.200829283571753 -0.09142431465026836 -0.6773584133923495 -0.7568263270116902
P 8.898499195631132 7.132089752838911 5.93263472525501 0.07352660843424111 -1.6294404851196778 0.46773071622575574
P 7.870563447397738 6.183646319403265 13.471096637666594 -0.4607848810355419 0.009638808641344691 0.06812446358206332
P 4.303513687353029 5.521849413171428 7.281900767403862 -0.646313371161087 0.037855637395192876 0.5997823174790832
P 7.570394983854106 1.3269372501477 11.368264197219615 -0.37171363999848245 -0.2569848462943187 -0.5972554372921713
P 7.398184789126234 4.283017766037939 7.883837172851325 0.10401140728665959 -0.3538645276322035 -0.47880728575489145
P 4.0289813332536655 1.5976167785502369 9.716619873711593 3.063088122073325 2.394091964602741 0.46925589462103057
P 4.8082709000382495 2.9801236300944747 13.415221403462375 1.364827689966456 0.031094664522275484 0.3520341592916841
