# total energy = -340856.3707313973 ev
CRYSTAL
PRIMVEC
9.42934677518983 0.00000000000000 0.00000000000000

0.00000000000000 9.42934677518983 0.00000000000000

0.00000000000000 0.00000000000000 13.80080213846517

PRIMCOORD
 96 1
Ni 4.476044902455318 1.9679423865994123 7.096303840436188 -0.7187364621185042 -0.5785498904628682 -1.8704582665617786
Ni 2.036361726703892 5.897811236564133 7.824434225652819 2.6675272431435997 0.638943561059577 0.28191889053183705
Ni 4.025067534873049 5.796125161083605 3.9225196170984815 -0.03715578311469085 -0.22003218032936947 0.4900265515094786
Ni 6.699598021076815 7.7961744734073495 12.371066275033183 1.6636194449942316 0.781385504408293 -0.5899437341221065
Ni 3.5240769120655635 7.075508359087452 9.757733192248944 0.7629357823435376 0.37915441254724375 0.5902676931204286
Ni 4.316754947606231 5.200096152262745 6.418159365339161 0.4481839044420797 0.3301507289550314 -0.9348765064823191
Ni 2.079331259897954 3.552317805617509 12.552464276300263 2.581761412330689 0.13684722286975787 0.6960197372472787
Ni 4.682924770411808 3.192352492981275 13.200177420592553 -0.8630730513867717 0.06395284870287696 1.4146500128052217
Ni 0.6811241486737928 0.6789176815315039 1.5739258169365389 0.5529172774964284 0.6721820113977326 -1.2821502682708823
Ni 4.187535179580903 1.9180328541885785 4.526524910345249 -0.31899702633105703 0.7709956765335366 -0.36647450308673013
Ni 8.707209669503618 8.345952536361 1.9114247679778262 -0.614362272175787 -3.0739939703525514 0.46559644349157236
Ni 8.269593686282985 7.5504362674449945 4.674000836636329 0.8569363423614145 -0.01568424350447621 -1.0742896903070402
Ni 9.351413210931119 5.865383713049896 7.903181529265629 -3.133140141695404 0.829324751291733 -0.17521116735993697
Ni 6.4191692483773615 1.285267110383284 11.968303986248632 -0.8181301681274942 -2.0525173100814844 -2.8999272010097026
Ni 1.4388617397881724 8.146965031644237 3.579900530765473 0.8647828349890267 1.622597236945599 0.43059318794351004
Ni 1.4893653210450073 3.652184017172987 3.9767836218439694 -0.5160294033311436 0.23097530960443446 0.14992462487900632
Ni 8.640751633525616 5.59068798318169 10.177967117648656 1.1554956696634102 -4.870272825387438 -2.083141205614929
Ni 4.946805039544094 1.6058837589820325 1.9354516864618703 -1.4846480392609143 1.4176903422934424 1.0359401439945641
Ni 0.9650842117355837 8.886122094964257 6.05414980587674 -0.9831068022436166 -1.5465288359261107 0.3224916697478769
Ni 0.7650858810459426 4.119709888322423 1.6438274503519923 0.8609976569149818 -0.2874071673399179 -0.6130888047800022
Ni 0.6657015091099991 6.094356540469559 3.088716428590383 -1.2317507327724075 -1.4517638869383838 1.2934461528996755
Ni 8.2527528729662 3.875470948495214 4.62858155915352 0.6919743635333114 0.1597639795669313 -0.11139895799998234
Ni 0.8655423697087161 1.7546034161110091 7.371105178988127 -1.9957604649064142 -1.104804828176762 0.7167765101786558
Ni 6.608114498792682 5.0636817926580715 7.768195715695386 -0.021205430433021543 1.1732946455180437 -2.554058804209098
P 5.526625001281216 0.5030405627935262 0.34660298533991946 -0.2971637325060495 -3.1819473930060944 -1.8784777944321456
P 8.496972954099887 7.2564198060616185 10.979048587023545 -0.9353151366816344 5.1874022023821365 1.9485192725312637
P 1.1733690523595985 9.386311223296978 8.680290770367693 0.3366664185863621 -0.24147569491512608 -0.006524174271762957
P 8.907253261057717 5.6713183273428545 5.532810652757035 0.6405479294322194 -0.1776578291282166 0.5877176730050652
P 9.16360891147399 2.521925938208879 2.6672812044132033 -0.1926051944666683 0.737521198925175 0.7902318990553293
P 3.828607095088479 6.035800297078047 12.283625113705886 -0.381494116424014 -0.4260197096402147 0.509281800194665
P 1.4831890989159506 1.798497025287739 11.744137296873516 -2.2892503481053024 -1.1055522478657476 -2.387670377347114
P 5.729469108823604 0.7958877851784252 5.534259943354342 1.4726918953403023 1.5025480594697864 0.10941715168326316
Ni 9.195093500312037 3.461541484340521 11.305589694192808 0.18138515738113278 0.04863010230287754 0.0026721475155244306
Ni 2.4745623294237626 1.80720031234899 8.90365690820272 0.9114516998004755 -0.2326069316705865 1.6791021140108633
Ni 5.709375170873956 9.443962249399346 3.3325489635721537 3.1895707138793066 -0.7065617744291832 1.4450399379509888
Ni 1.3372228110414541 4.105820460542118 9.173351312548405 0.7457474434897092 0.103056499572558 1.2721548476210671
Ni 6.948843944034603 3.7357657468706313 9.847631641342396 -0.9623983660516716 1.8608066024046275 5.246584369169248
Ni 6.508191711156633 5.468181910050846 12.703707226622729 -0.3539367756310356 -0.45937720205473787 0.1026302106684168
Ni 4.394829938794916 8.083316941001288 12.413738783804245 -0.45664746182840066 0.14641121240910912 0.539510002951587
Ni 8.192876521028019 0.29498485529582585 13.44944785985192 -1.261305563611389 0.22122954307158027 -0.19215499430312713
Ni 1.1463634032334644 7.259192034009622 9.895630788099266 -2.2551598341794965 -0.2527479253948357 -1.1556041702168165
Ni 8.789509008041641 3.248504252948499 8.886046660190162 0.8108961122729001 -1.2902045060339262 -0.6212857387684977
Ni 6.384167513197121 8.17385752860923 5.885558743381697 0.18285171462433022 -0.9431212629896144 -0.13856086312675492
Ni 6.789723717427231 8.380275358574384 9.602819397232063 -1.1357444551784117 -0.6653469907537702 1.435404985964386
Ni 6.312966515797876 5.940328161113623 9.724845516612724 -0.8543418421613608 1.9561089119530635 1.9919500900213887
Ni 6.272788069245341 5.578835294301959 4.940549610902238 0.9871308358013452 0.797707124386452 -0.008351714398804971
Ni 4.8873247201699135 4.40330692153388 11.29721266252952 -0.4450463872543626 0.005784982112893263 -2.0183614901353817
Ni 6.710083454676068 2.8759130449980566 8.039077274798396 0.4113849904461754 -4.090685807640464 -5.091700600512754
Ni 6.680965631875264 2.1968963553255523 0.10983397401750142 2.116579687779032 1.9298818599357341 2.537389056862901
Ni 3.2786310158528282 8.893731577801125 0.9005120451099667 0.3526964754660313 0.04073655848741371 1.0107993830628785
Ni 2.7728502848902887 0.5110093037420234 12.62363509978987 0.22206977958468851 -0.9605582275191393 2.4599006355674344
Ni 2.097605333922552 5.439375255693186 11.05409770083633 0.3576592187879453 -1.3337232552521676 -0.5304381225573059
Ni 3.2880886506550326 3.6646684722857668 2.3716815557085003 -0.09250597775022135 -0.268500303133086 -0.5852465857567534
Ni 7.225086086771763 1.9451327967823318 3.858318023800608 -0.6773864384168076 -0.023746451687320393 1.339192763007171
Ni 8.834807589885896 0.6113648983944445 10.92644037556945 1.5832945826912346 -0.7975860254275553 1.3476470644221112
Ni 5.3166334488932945 3.798885794094913 3.613864094867227 0.84586234393544 -0.25505317648924464 -0.2681748014728672
P 5.663718273852747 3.5408234319147307 1.4752505318770917 -0.02006720306352028 2.0503956357527913 0.04886484402150294
P 7.517188390762471 7.2799648849261285 7.6679051835356224 -0.6877448988329962 0.4156465939360068 0.334430844387624
P 2.213492005626529 2.372178482282853 0.8001894531712123 0.1009746773428648 -0.4576237096987409 0.6787426953343859
P 0.3179443717264209 8.465818392398507 -0.07168283701877967 2.3369648805724466 -0.8512742589796307 0.08486131672076998
P 7.548220370955944 6.693025766383758 0.4222744360389906 0.29348268411003653 -0.3512728556456273 0.07689166825173209
P 2.9497259714503534 7.4615929622542 6.594740856280254 0.10371187376836977 0.46515961306446985 -0.03132709224805572
P 2.9348464622600465 3.7031684951146797 5.570155580607612 0.3566197217798374 -0.5339880446920932 -0.49332939063046655
P 0.5819434506279068 4.757454327218011 13.24853582546105 -1.741792036840916 1.3416538229531538 0.7722177218660959
Ni 3.6915421105572337 9.19614015780261 8.262512246864786 -0.5868301281937894 0.0999359516657053 0.268564323601802
Ni 6.008389186041151 0.3286400797584649 7.640634569765478 0.5410428946563456 -0.3177001618965045 1.1360619864188306
Ni 4.816557472721715 2.8433252225888666 9.066671455022766 -1.3418253155340116 0.7758594323837412 2.9834096351050747
Ni 6.22579220498394 3.1621597246496127 5.688428819977031 -0.24635282050176927 0.12503017563017177 1.0157487566483538
Ni 1.765805480064168 6.01998728255831 5.372928534931299 0.002770877876917809 -0.32720141651872037 -0.18010706199965756
Ni 1.2769409971925099 6.613668384035453 0.9436258473094861 -0.23158646082587211 0.18513691111408115 -1.9870786208617004
Ni 4.916942298349098 7.193676932707813 7.632754464676542 0.7647445534175022 0.004484775244230985 0.47336708857592674
Ni 7.984450240202574 4.566594919410021 0.8962848689565988 -0.48743770773637984 0.003533981295187462 -0.7100967841656352
Ni 7.841991669323511 1.110258434482079 6.187713673955286 -0.1304361771370915 -0.04033520928393699 0.2958193026630131
Ni 4.000636097412919 1.9011731821782685 11.366561736224725 -0.3034259113656774 0.4412599236287368 -1.7978960789233358
Ni 0.3192390210368323 1.7606759154256846 5.043254998767728 0.3790477117660504 1.3270496998867338 -0.4700999877888806
Ni 5.783555841849969 7.7645673030614 0.9057990798393744 -0.5786704752011325 1.4343228086438007 0.1758832537262971
Ni 8.40040701391108 0.06189894681861317 8.514929259138606 1.3255080664312269 0.5358487520499159 -1.5756746042521317
Ni 5.654552948800163 5.677805717915053 1.9998880704941158 1.0513562214393182 -0.421511537357216 0.7464385560194629
Ni 2.2839197965912974 9.039075528789335 10.581033974333618 0.8292383622255138 1.8753752442474216 -0.3950679984537067
Ni 1.6724738058147002 7.2926002095871 12.24728724008948 -0.21222862512455062 1.2816404185139991 1.6764276525024935
Ni 3.1353238037651927 3.731201943037863 7.7187331343210674 -1.1229953830428594 0.14949139399632963 0.4629340661680608
Ni 2.400381658447751 1.0608863748366744 5.941742563127912 1.9244473191837241 1.5676756452070548 -0.28370580722893074
Ni 2.379938834667912 1.2468896690622762 2.982145951487181 1.0368102053043433 -0.06975582853789922 0.6359806217765113
Ni 4.036241310785922 8.937134860946236 5.2552210563675965 -0.686134874033399 -1.1001778709277117 0.408055154741994
Ni 7.722380405648576 0.9280089632023968 2.0231700705839684 -0.6437872623051235 0.25489505364482556 -1.643112069069499
Ni 0.4134872277915588 3.851058369728607 6.988767798224566 0.5971744475425909 0.8858229434887777 -2.882780771137403
Ni 9.26383343820642 2.4376747248911386 13.474606299947395 0.6872039387278617 0.2547713835827677 0.5535209725186984
Ni 3.8343401379197255 5.235616501514892 0.5941629410966768 -0.7674038454172203 0.40390822245315594 -0.45346726432820617
P 6.900301666904248 3.383032743200789 12.061349008356537 0.44395752506555797 1.3170393668385834 0.33612031627490496
P 9.16541934605228 9.551833976355695 3.9840706210215804 -0.6230122345413012 -1.7752127783932072 -0.597750631761035
P 4.344675243368272 5.23265568663165 9.10392020353637 -0.1449737086316342 -1.2838263704217245 -1.0756606025126378
P 2.70659969454105 6.497555408009189 2.4919698464809406 0.13369993549002782 -0.16856255169516776 -0.5421358706102082
P 7.442639975262744 1.57800118060704 9.80591149659429 -0.9807889527437174 0.027716234968345816 -1.0898451215431357
P 4.7359931339878845 9.330414055692327 10.689549725673803 -0.2968839964821016 -0.021469225617369476 -1.1748123677141509
P 6.721907855515513 7.355842838319286 3.0400270536505407 -0.05011105772377821 -0.03778904582331557 0.7228432851980261
P 3.929255942425196 8.671519592009757 3.1043804594312814 -4.153488859009614 -0.5970078400577395 -1.3084634522441143
