# total energy = -340868.83724690834 ev
CRYSTAL
PRIMVEC
9.25870930096515 0.00000000000000 0.00000000000000

0.00000000000000 9.25870930096515 0.00000000000000

0.00000000000000 0.00000000000000 13.55105694664089

PRIMCOORD
 96 1
Ni 4.917393116328378 3.402723820942065 3.691280756159798 -0.09363340648644519 -2.6354840986651253 0.07244674510650104
Ni 2.5806893123972907 6.449357680757452 2.6799926735275057 -0.7538621021770436 -0.8926690198763336 -0.2894169986810951
Ni 0.0908621958270637 2.1939345059442603 13.396859848267543 -0.06712841821738115 0.7426587772620564 1.4137053895037655
Ni 7.031424960688571 3.189643884244994 5.335403473763505 0.5360469841036509 1.1525892946498923 0.011572021108315554
Ni 2.029490569397955 4.298948367409566 1.2498155819439414 -2.99787131905636 -1.2519788868938244 0.08656312990322511
Ni 3.5802873486198448 5.135648671545205 12.974540487506665 -1.6740599236012654 0.8683792940910334 -0.6984761692075713
Ni 1.7660062190666241 4.809149545461711 9.136190688743627 -0.9248165511431555 1.5304663831466094 -2.377835650644879
Ni 4.096275220008033 2.1341880545882943 1.304441967036177 1.2731267246160332 0.7377680248286584 0.9900472381171916
Ni 3.0680677719320877 0.5348997110813067 -0.09813120852806614 -0.086644890983754 0.06043763646076689 0.34563828306766925
Ni 7.220173009246253 0.14635056675863645 2.705577265040281 -1.4558100319832992 -0.515728327150957 -1.5750030321064037
Ni 9.089126817438398 5.704059355203264 2.0485135136031256 0.33313706527686493 -1.4721614767581293 0.06339389087561341
Ni 1.2992469052268123 4.696267361216874 11.381627691249594 1.1817895703629324 0.5869309154377117 1.3765454926240164
Ni 6.332512768916094 9.09637638684979 10.699236740419249 -2.4767004807335926 1.1619607085624633 0.6551695360001363
Ni 0.5781795478802316 2.528831281397017 11.083151900718418 -0.4938189286723753 -1.236614231512296 -0.7125509021330825
Ni 2.829517125847094 1.0946757224110575 9.826196928004203 -1.0547724462097188 1.9127940512155122 -0.17531992502365934
Ni 5.505598920550368 7.444409690695212 3.351989797255384 -0.36122611020359724 -2.017141244575036 -0.5832547521377053
Ni 8.717695174939207 6.237860983357123 8.541895431390252 0.3588385838080272 1.1791950701628788 -1.3742261004622203
Ni 1.9320148774909953 5.851707993011041 5.250452037977608 0.5984785110659951 1.431489452960064 -2.593120031876618
Ni 5.917389277052451 1.3211900463570831 5.637361464876577 -1.7777532854268738 -0.35820249288592504 -0.9197460785987838
Ni 3.068882538353802 8.802477176344224 2.338017614786102 -2.2187712682481338 1.2820355970698887 0.9146293261975087
Ni 4.0903496460319255 4.617170207345184 1.63198084617829 3.0674024331779624 0.36770169062561187 1.2919981075992395
Ni 8.027051010605266 0.8130628191965749 11.875454841838076 0.9251898753221743 -0.08908795320760786 0.21978869685999566
Ni 4.640187358758625 1.6464299879706537 11.895172189243572 -0.22981651340964293 -0.08757434477655884 0.059101948368478846
Ni 1.5046050783362688 2.2701892360492866 3.487472490993467 1.040484311721821 0.8252343832724433 0.3317676957331641
P 9.295744175017777 4.476669293146086 13.096636013413415 -0.8521000973150357 -0.8672770621657901 0.5873356070752982
P 6.811169524254808 2.948945217593662 3.06488277591993 1.0710357021461165 -1.0716782208261222 0.5019875805260967
P 5.167544925213467 6.537787613641511 1.3279313126258387 0.07518702685579953 0.11403922383630682 -0.6190025991612758
P 3.142359655657528 8.619839875949403 6.859219448104499 -0.715923161039425 0.07697111533941584 -0.4210163428883523
P 2.04986898865016 1.970688506394431 1.1343724386963052 -2.048940391363504 0.1894576499766221 0.31617086973617164
P 2.916539734911827 6.298727738542946 10.798254933301864 -2.9636198540726575 0.5269177681088731 0.6784555031112703
P 8.8905182434361 2.7675393255407505 6.550865540580966 -0.3078014147255538 -0.19727766024167315 -0.1410350356988603
P 4.983407713905945 8.914933459959528 12.697340285162513 -1.4836573932128707 0.015747235531927722 -0.9242498800064083
Ni 2.7040523556123675 2.4224394523978847 7.622320419973155 0.5857602921683782 -0.35094735398540855 0.20847404317812485
Ni 8.35830911328832 8.767284822151751 9.621114664433009 -0.2448325272025009 -0.3263380400771606 -1.1121368430618008
Ni 4.828565058942799 3.6755594677044394 7.958590262020687 1.7076112771941494 -2.3452111797416384 0.31197765759043045
Ni 5.6738944801811435 2.184407294035801 9.857201567963248 1.3984569479851272 0.8111233977923579 1.3504307978148353
Ni 6.380195122005079 4.567913873668795 9.603037960322148 0.03672460911454321 0.5157193282898925 1.58660487801139
Ni 8.657041370068148 4.993499707084001 4.665100693844419 0.3020750537647378 -1.2381147273172226 -0.44490086281543373
Ni 6.822659582542853 1.7265363411601493 7.7476546424062205 2.3275446156998107 1.0409751353153105 0.06697260936580723
Ni 8.356077764337941 6.873462120678632 5.924752728588698 0.7062061908619773 0.4310999523765995 0.769384880402991
Ni 6.229741095267989 1.3355688219584803 0.16025437057101116 0.9792555468183263 -0.5135068940196059 -0.4775728991271582
Ni 3.372345995605179 7.470408146515382 0.34523319855732854 0.48966196908120835 -0.4833887344779868 -0.6067718614230388
Ni 0.5982857610779095 7.811813794632518 1.5928452076789053 0.6300493438937407 0.6301889547953985 0.14231287397001943
Ni 1.2026785668349445 8.608247971858642 8.234516465959976 0.46054885376533594 0.7109758443364788 0.3124772229346683
Ni 8.606627697724551 0.3498699601936322 6.822184610753831 -3.0444761633990924 -1.1068773944350745 0.5869887652588407
Ni 8.633431661257097 4.3768881826140476 9.926908538824675 0.4980306527608779 -0.6934010686775091 0.6648353412246744
Ni 2.85683957710255 6.788457910249511 8.078693313677972 -1.907057405842051 0.8848814055111148 -0.47118190799914983
Ni 7.397977263366812 7.2790954354711666 1.4652620447477198 -1.0124279198052368 0.6665996322139487 0.7576488229129855
Ni 1.075389830860697 1.202947069405737 6.008484792354825 2.64138786574407 2.31736561828428 -1.1163387969582903
Ni 3.330542922945612 7.916872369487027 4.55343973336122 -0.24347498473334195 0.14039097435695821 0.31484263784305133
Ni 1.621801821132459 3.6217200729059047 5.618282042544447 -0.7047365482949863 -1.0913343044941528 0.057674729003649054
Ni 8.243306684605155 1.2538977468909187 4.2041743668873375 1.295326400641524 1.7761676861073088 2.0886497941379836
Ni 3.98892974394712 8.491847478065493 9.164837135434368 1.0713432060842067 0.11756472049106205 -0.17345381834919807
Ni 6.8713141001122935 8.082492162119216 12.869547649488453 -0.40869690209105103 -0.04422863080107221 -0.7322879755506937
Ni 6.274812492323752 7.253893228654037 9.457309578831001 0.2126348594240338 -1.233242743936902 -2.15923994565172
Ni 8.783848653156838 3.2500847388012852 2.438038525889986 1.3153624933567927 -0.1912815905592383 0.5288116426974763
P 2.6993211551408196 3.3384591194293174 10.120918311898954 1.1491884964984593 -2.4828497881644402 1.4760315012364966
P 0.9573598042241167 9.034778193626291 10.521461188297637 1.6471993517649954 0.040997011237651974 0.8066216532672624
P 7.5912250446625995 6.557897530322925 3.619974806195755 0.3728996898867836 1.2536110231806088 1.4407564800842863
P 1.5748138712437982 6.263146518558291 0.36921881096748893 0.053062941263250556 0.28747067358800166 -0.010507841509859322
P 7.944250372998509 1.7369616478743624 9.858678332102606 -1.147213889270592 0.7301506174927168 0.9259771471101602
P 8.1355816014614 0.16178761283732881 0.649258659465502 0.5703809814988305 -0.21103666169897847 -0.4940474997434136
P 7.442724605595757 7.9281217013322935 7.58426897633721 0.5337466181052485 0.33411357025752136 0.3525252399954897
P 1.0121898809217813 5.6146202230014 7.022984721256353 -0.8636440933988933 0.18451007616335965 1.7685446223444123
Ni 7.053488465040232 3.402057193869753 0.910602396197964 1.2014623662015114 0.16513090030579947 -1.2053969253692272
Ni 3.056929544598874 8.628709719494887 11.392699255875577 -0.6067088693955873 -1.1927766655020555 0.2631380103799081
Ni 4.233535585938948 5.314980612706479 4.131920325087117 -1.2179804184611929 2.447115053766992 0.4687267615904379
Ni 3.264796827938838 4.817463866446937 7.013078828135984 -1.5194049831261252 -0.2264362840835004 -0.48693865661277436
Ni 5.955849955641121 5.4417878957951675 12.96147737450215 1.5882210734585744 0.5182886316789654 0.4447715363264211
Ni 8.746860109352857 6.904515831797167 13.114184045221094 1.6529434533376242 -2.012910237212824 -0.8578709383605418
Ni 5.026432936198083 9.04923103890239 1.4375229515720693 1.8852588219097208 -1.0179514207266274 -0.6662558757212848
Ni 6.302449739696689 5.759657904775954 5.52664952210049 0.7833081753523026 -0.5687812411118786 -0.6214070948377104
Ni 6.7682461477653835 8.534020899098566 4.99505517025273 0.778394282990453 -0.49279254429038993 0.31772253049400767
Ni 4.772892439695408 6.9328567410797675 11.326651326944395 1.8236505621796206 0.7018574269749784 1.414570822827854
Ni 4.307966350304453 6.611635079318745 6.137666934388625 0.07245060176124297 0.606336316547517 0.7955322282223203
Ni 3.3797992566220008 1.0524004555752695 4.996925429538938 0.179700056369226 0.905794501514698 0.27075644615711436
Ni 4.75089374630911 3.999558742266762 11.297177151638865 -0.5770295971635997 -0.3888166182273562 -0.5942868415821506
Ni 7.495267781087017 4.3865172403252215 7.625952611646322 0.7205115517410559 -0.6117873123597592 -1.4244729124329147
Ni 0.45572385818024647 1.9924835081752994 8.66946470625743 -0.03912859057034552 0.05528591705649833 -1.1220828985309192
Ni 7.16823164986194 3.056809181377484 11.785910160349763 -0.09297674673905278 0.3928799896634524 0.10672854910750651
Ni 4.277644077223593 5.590890150968959 9.39918895683473 -0.11767836325079087 -1.10630121021663 -0.3985040207184492
Ni 0.41633453104500934 0.7757168892121608 2.1781558134910077 -0.30691541257617466 0.2821862852606108 -0.5090290607539104
Ni 6.680306926476222 5.131297078156501 2.314886581247808 -1.3243400142650548 -0.15912120377660982 0.795393645761927
Ni 0.3895601953823436 6.669789032668631 10.680319345500529 -0.07735883769613774 1.1075314830793055 0.17183788001232986
Ni 5.369764395857454 8.556686219557175 7.076090826275345 0.381024375876447 0.615023817019186 0.31782306062761395
Ni 0.8895666085827842 9.183908224928096 12.772115473515381 -0.4261156117881306 -0.37984603929762967 -0.23953965423467777
Ni 1.0904537509530814 8.201772114516382 5.808877203614992 0.9177408752432968 -0.9786521089063727 -0.4299756089641692
Ni 2.547700531027183 2.8101293884940195 12.435222520329424 0.2970009816759401 0.01227650337450789 0.5039027952709386
P 5.22151394194273 3.37571616580409 13.441971057773458 -1.0233255405543473 0.1484930346388023 -1.4964278055046616
P 5.694911750377649 5.692235983379062 7.778388002181672 0.1566524305211431 0.23248866092516732 -1.5141067108416633
P 4.939178859399909 0.19596058313172435 3.638391304939308 0.07352249466918306 1.0058898615764031 0.5838872435153815
P 1.167115864268965 4.586375740088103 3.426059471956721 1.1586902653413078 -0.4360732372214748 0.4100680714069647
P 7.3581555545055055 6.317745127522515 11.047526238928942 0.5899501618800097 -0.432198584757417 0.9432498181476788
P 1.3016541696546056 8.507976149731707 3.684220990289827 -0.030828812455398518 0.12567860784744808 -0.7036816246679107
P 4.155993895235985 3.2356596696531996 5.7447671225481844 -0.3894974463444647 -0.7253799355769507 0.15285902491698192
P 4.939512172936064 1.2015119694583982 8.273556739753182 -3.3410804238572456 -1.2244786245910266 -0.9231574182731778
