# total energy = -340897.6205530986 ev
CRYSTAL
PRIMVEC
9.00910440168362 0.00000000000000 0.00000000000000
0.00000000000000 9.00910440168362 0.00000000000000
0.00000000000000 0.00000000000000 13.18573494609638
PRIMCOORD
 96 1
Ni 6.552222519894916 1.80867680566683 11.361778842870725 -0.40630063394473254 0.2190091383814938 0.6616749412188218
Ni 4.595850456921626 0.44031997687283053 5.854070984595006 -0.2635028499184946 -0.5172311369487286 0.05937885617894935
Ni 2.699325874385498 1.6222514086043345 4.69720738581795 0.5747055770161134 -0.993529026018205 0.95444491553255
Ni 3.4805503612300503 4.422929707333962 4.94258025378943 -0.30057224396696625 -0.41715300327820415 -0.20739700806386216
Ni 5.12188305292424 4.366902087156528 2.66717057901047 -0.2894769053847531 0.09028840127361225 -0.0752567037514704
Ni 6.912667777280187 5.948297207369695 2.654657833928553 1.3129130033750358 0.11841112765175736 -0.18615892462069228
Ni 4.857465839190888 4.7427709312508775 11.280198699922865 0.3552215558807302 -0.5326256171269279 0.4330542478894929
Ni 5.6970422951445 7.866218412822917 12.405231331082796 -1.0151658875616902 0.6368226580618322 0.16337329418474444
Ni 1.648161592818887 6.720161234757042 0.29074812312273757 1.0787150730682453 -0.44064980084856364 -0.009249800733042135
Ni 2.7049565646268388 1.669990652746516 0.2847498614224423 0.21953492897797677 0.029355056123349446 1.3995874620451445
Ni 0.43957942849228937 -0.2707019649531266 4.640600480228486 1.5039721935108228 1.588846365747399 0.2741209917539731
Ni 8.725741025887455 2.4700802041756558 1.2463789608682296 0.0574610703309462 -0.001573258024390839 0.7527521569423165
Ni 7.001524573840733 0.714141794674879 4.946166778245554 -1.426213549273105 0.12002706598862556 -2.072787630294746
Ni 0.7501034366530536 7.406898234799708 2.4905615020871177 0.5332326545833075 -0.031099035397649664 0.027266034804804655
Ni 7.542548319541891 3.7610668445014435 3.7851103422871866 0.9497536807044675 0.17279201639548303 0.17945631578953608
Ni 7.634558302637589 3.8094907805769718 12.502371098215963 0.1690217507197734 0.13668987135628716 0.010040929175769804
Ni 8.027382281186663 8.913148415328042 6.886540473649927 0.04529486728205748 -1.2532785795418546 0.6557973993921222
Ni 7.061272954129645 0.5916855433062049 0.4330739542150542 -0.8352457447618584 0.3998924164255436 0.19606204266701716
Ni 1.8682269856592477 6.447942136625289 9.219426432591614 0.28115732977546415 -0.07299721829333235 -1.0169188656970551
Ni 0.18454429606666875 5.034152394411961 1.3610711660769244 -0.9959216946200978 -0.5491272143263769 0.09994006543076336
Ni 6.432617650064457 1.9014976081572807 6.9691755827214035 0.286551504207842 0.7932048656407243 0.5388556571970397
Ni 3.4411715659582116 4.5116693855374885 0.46826351594733606 -0.43695795381927327 0.08300780845179898 -0.3424056350629845
Ni 5.848944804199289 5.380156057466241 4.98095093028046 -0.05687331614827624 0.8539901152488969 -0.8345728870645497
Ni 5.354660292053451 2.604090631919561 9.360948651572688 0.11643523487230914 0.8803236109371033 -0.2356781143967425
P 0.10628400808510548 5.598275483759195 12.30412305346753 0.05030311912992627 0.31571707002820465 0.22285190916635167
P 3.9114468149149735 6.379139606428301 12.524272230978681 -0.3338600594858186 -0.8226823062745509 -0.6047304055129779
P 2.5071977142465727 8.58570350730922 1.4753786825283304 -0.8626789012721464 -0.0792614540354893 0.08824103182628029
P 6.228660535866523 7.951318412854442 5.93823493868081 -0.04942380184876649 -1.5024084485681286 0.5122126006882146
P 4.746509709571128 1.0923719250288377 12.470659050776735 0.3772543673110535 -0.32324705985666263 0.34188961465851436
P 3.970186175512638 6.08006436812145 8.11795621304321 -0.008532462951043368 0.2057975247872262 0.09729157206432276
P 4.755644941418678 1.1137505297371595 3.6647505095091684 -0.1405670949235063 0.11747884564547509 0.5561692087748229
P 0.10610742963913704 5.669627590497462 3.6630766179142227 -0.5131765072633807 -0.6829824444473463 -0.5468664433166581
Ni 1.3914111269181444 1.1051828714659357 2.7171449819508537 0.19209303071694014 -0.802627701616521 -1.366739048056556
Ni 1.8000731109780619 6.474302776059148 4.748104321047475 0.7672776042520012 0.27791388313750204 -0.09601784755822172
Ni 5.886539796802671 5.658402246432325 9.18466840695943 0.21268293905314983 -0.45398714138741814 0.2642726382049836
Ni 8.607469503506145 2.364637646440216 10.091517647185263 0.7055649577335525 0.1020249729842501 0.5306286413015572
Ni 2.3759530815492145 5.032774001440881 7.058073821162126 -0.13525185335817996 0.6914845683810865 0.00878931615685583
Ni 0.33526661244687245 9.073879846681251 9.188690071157405 1.3582870606344606 -0.09172333394792591 0.26084818590446696
Ni 1.5360522978377005 1.063344590696679 11.5031425016146 -0.8555176076370169 0.5741813290815273 -1.5842520615084974
Ni 4.033565224869167 6.816180269304575 1.5302837682992518 0.32380550346329395 0.8390751458102774 0.3893629776491294
Ni 5.588356459830049 7.8633625267325105 8.143918650063203 -0.7062051624207127 0.037394124377742054 -1.1785402101876992
Ni 5.316263489159701 2.9307427387524014 4.817909564562642 0.14642458214554782 -0.8565267656278216 0.1356701718425212
Ni 0.9344513342441043 7.399636896664475 6.952838472827567 -0.8181160270601071 -0.3064886094514012 0.4400854437046614
Ni 5.182928744244758 4.347073048402622 7.249411882846386 -0.27059318110637265 0.2809974071588322 -0.06740584024848392
Ni 8.031769715022715 7.1201024057711715 9.101017971823635 0.41543910591089095 -0.22128250779670275 -0.18466845611809488
Ni 4.578625049335318 0.3979222307211941 10.266571752691567 0.03294663012934971 -0.8085080716566979 0.7084404795091347
Ni 7.925399219535503 7.169967798548483 4.87576873566178 -0.581304827500186 -1.3329274988237496 -0.2524797593351136
Ni 7.122048372318579 6.011063637627966 7.026520333960092 0.6054531426116154 0.47866356108817565 -0.2557746280363014
Ni 2.2892314427281835 5.231640971660643 2.5474575999273767 0.12355333397432915 0.6809361034412789 0.36889493960276465
Ni 2.298303610845031 5.243983444669661 11.390707977965073 0.1586794882535009 0.4610301642771286 -0.17439278522369966
Ni 1.3562305742902487 3.261313805993215 3.6720559922558933 -2.0197462862980506 1.267365910872856 0.46115460567013483
Ni 3.476550318882602 2.6940465392152175 2.610960074013996 0.7002682281109874 -0.22334427542173793 -0.29706345948275936
Ni 1.186976530187745 3.1727903462949554 8.084529733039297 -0.6383799752466232 0.7507490104693586 0.25281760229050654
Ni 3.658444136438867 2.6326134564060952 6.98494511903891 -0.4591709995812027 -0.24993179610227922 -0.42937654192758956
Ni 4.000988303408867 6.8480995261446855 5.922834775643133 0.7573284634590893 0.4353810962504567 0.31767522219584
Ni 0.8172609043891319 7.41100638639979 11.143026977449864 -0.5175340129011281 -0.5230665126835831 0.7896994235906271
P 0.2639000911415872 5.555437192403075 7.932577673910384 -0.26800665132611906 -0.26184757370325873 0.40824490215529685
P 8.595964877205038 1.6846935111047046 7.921593773842795 -1.3437503004708664 0.21480564182310746 0.8926232542400627
P 1.8271815060759717 3.306881855978336 10.297874786791665 -0.5101487761806504 -0.37224560124255246 -0.4950846827586764
P 3.975861911275909 6.098686186887611 3.692915672551573 -0.01666049137481647 0.13288720978074534 0.28672762477439007
P 6.803765723460468 3.8971133298366167 10.43173566340276 0.06692787217080086 0.5291083480022888 0.01342270116380914
P 6.269814124702433 7.792451866109163 10.239817415396033 -0.03307544239773014 -0.27552738518319647 0.13824178922443933
P 2.4168454063579254 8.44621554409854 5.782946808197708 3.1624568883816506e-05 0.2852834361286958 -0.8824781953862608
P 6.997794804624869 3.9399786485058943 1.5005366065266401 -0.9288063890288392 0.3916438032635061 -0.04759291928761481
Ni 5.087234037455127 2.887174709941005 0.4850204501055655 1.0688489789074431 -0.2549552174587996 -0.09373265106847084
Ni 1.4211952260187393 0.9679111479342464 6.963413359556024 0.5420294269393311 0.39663714271303946 -0.320964434470073
Ni 6.895676606407917 0.6310418158170787 9.194914461377792 0.3187314313744963 0.17998956258518678 -0.3037239022220705
Ni 2.786434904695133 1.583223968403555 9.087068274592129 -0.68421348864097 -0.12419456710275385 0.6877047896236801
Ni 6.41249131086581 1.8958038541852373 2.5105635156452366 0.6313112413252998 0.41906590403020083 -0.056909825813166504
Ni 4.026384968673409 6.914766898602157 10.247794977329963 0.27621515527884044 0.7240643020893207 0.4654336926614629
Ni 8.045697790403697 7.208319555920302 0.540182295351492 0.09053497006677956 -0.6631607817357289 -0.6628352800755102
Ni 7.6094138922958585 3.930185752038155 8.339383782466754 0.10747056947985362 -0.44141470403904626 -0.6191933750158434
Ni 3.066834269609506 8.479504184805343 12.436824458344129 1.1450811591983052 -0.6836028516401647 -0.32223995874838696
Ni 0.0924541319419345 4.836934090294863 10.112838593625513 -0.006885157155607498 0.08388686862264264 0.47798607540517685
Ni 8.686587458225269 2.1853564691559333 5.662125709275119 0.6170860988648533 1.3971364294014905 0.16948892016417907
Ni 3.59704709004729 2.577901165469038 11.348843570793097 0.5496352643110469 0.6278623635447509 -0.06737987210655491
Ni 1.1815080038253551 3.4001260863749354 12.411561127824502 -0.9701471567591549 -0.18488957098996545 0.6210142302746658
Ni 3.1136996306262317 8.411566528629425 7.963999628188379 0.2722147758701957 -0.7594961605343693 0.17545670771183977
Ni 5.544428066843206 7.69358595457561 3.73661343246613 0.07020705714270489 0.5185922789623133 0.25825137171156815
Ni 3.2229890759345547 8.469945525051644 3.6461719344440606 -0.30890236109921637 -0.7209774356338808 -0.31126443357348976
Ni 3.5786685170995547 4.1327824914737805 9.30154712180264 -0.6271812783173264 0.8922954385869988 -0.7420710230793865
Ni 7.095480523483838 6.074145386539753 11.293318658640409 0.8583447926731669 -0.5409559913694942 0.7506574791968168
Ni 0.6363373673752548 9.017302671136262 0.3883860937284598 -0.19123171115790935 0.09725351973753574 0.22996589450331364
Ni 4.599562207928719 0.40694574967435687 1.4850562624599273 0.13434065439782025 -0.36053371212226293 -0.015995861207624064
Ni 5.834566273599003 5.543121746707216 0.22883845869158861 0.4919903601040688 -0.008855650618417006 0.8573196938427622
Ni 7.941903898770921 8.708263363378334 11.45621497777761 -0.1452598724134853 0.03576764451791259 -0.3139232113525755
Ni 0.22431859102105972 4.810104977432924 5.771251188883614 -0.9363057827296777 -0.3150262146087672 0.052484957272593474
Ni 7.7570010403496825 8.645659096999013 2.697260987660194 0.19313561304884155 0.49425730176137456 0.26973031888544513
P 8.483747472971219 1.6466931088039454 3.48604501399516 -0.5149875923301904 -0.34251285006481014 0.14159296508485936
P 1.783586449951417 3.3798195650885647 1.44700270644329 0.017569119232014905 -0.25379590704337585 -0.35027758161189354
P 4.718887795523208 1.0128755879254954 8.08152339490564 0.14155979785407877 -0.22798357396596222 -0.30724271400860637
P 8.613929031351011 1.5840347877983079 12.402805179271606 -0.45876167995792605 0.5298208006882811 -0.5821887727670361
P 6.18536278018671 7.751100076976758 1.5035033046009976 -0.046917233376828876 -0.5775214491983538 -0.25383370225984675
P 1.8095596978966724 3.1992861222946076 5.858909774560804 0.045096635228322336 -0.07023765327032419 0.5814660356683985
P 6.993218179596708 3.920879347207267 6.125578363480253 0.34489857668816726 -0.27145090112097764 -0.9944068006374681
P 2.356844771146201 8.521964093777244 10.176605034470645 0.5329367206094434 0.21223685265466674 -0.8685417878108269
