# total energy = -381169.54428383225 ev
CRYSTAL
PRIMVEC
9.26382943891375 0.00000000000000 0.00000000000000
0.00000000000000 9.26382943891375 0.00000000000000
0.00000000000000 0.00000000000000 13.55855078607718
PRIMCOORD
 96 1
Ni 5.09724625563494 2.8084967092518114 11.644653332055547 -0.17798564478128057 -0.618270863201574 0.04235378237586254
Ni 8.517378054116621 4.920575760258972 11.08353205317574 0.6609928275501326 -0.06630155144071162 1.4205396388167792
Ni 4.4447113584723486 6.230092192819194 5.706753443192751 1.4595360746846346 -1.8218381915612298 0.7397081792741647
Ni 3.726884989891908 8.841139636775878 9.050414180627318 0.28586887631852054 0.7474790814688352 1.4634760331689893
Ni 8.278945606421868 9.307647570609603 6.710059544760609 -1.1933459077419641 -0.27145912865109373 -0.25100420323085154
Ni 6.080499871528695 2.118869438145255 13.75284528013891 -2.5922594836485358 -0.12411846244917979 -0.48733872026467034
Ni 3.475937108331445 7.999798627387522 11.581863094644909 0.03403240699436075 -0.10908676492703794 -0.9871328926838742
Ni 2.8967810058766847 6.504690631492281 4.028923818390024 -0.4417749155919424 -1.100080683228215 -0.17296530874855376
Ni 4.71459450785036 5.09544907268161 7.984590198240716 0.3542080270145513 -0.243333059838839 0.4245991751436042
Ni 9.035402144669227 0.19654326275473757 2.3817491323030766 0.008463814496637035 -1.0266216948071158 -1.574937468975791
Ni 7.131259014128164 4.612859130564488 6.739264694135171 -0.6653433912093445 -0.45224084812027276 0.89674498971792
Ni 2.1283741273726546 0.6716813802963042 1.389548509727233 -0.021227027699576344 0.6307347999965395 -0.14492100101682784
Ni 2.1073081787341486 6.098666241484768 1.4863833211249042 0.14993182396785792 -0.022479669159754835 0.3550441497626014
Ni 7.887891565138993 4.258406480253793 8.94534938296296 1.596008173603161 0.193130470842519 -0.6909744615138874
Ni 4.2187017063467405 3.2606457071182167 1.1563806964261745 -0.4849956739537906 1.3410025625224002 -0.20114768472004066
Ni 0.44726788602048245 2.716608782890623 10.740880595464251 -0.6135269207586853 -0.202254030410342 -2.2792423290499975
Ni 2.216436092085776 7.7581238393130505 6.16240231590332 0.8176874241631208 -0.8338987438156605 1.1499014634050841
Ni 2.7555446589361994 3.330309706133857 10.955254877541503 -0.19707248620940254 -0.9435506372175492 0.09528302627472622
Ni 1.851367092988921 0.5288785197609325 10.11259099327822 -0.8160172355495494 0.3854204480616137 0.7296479668246854
Ni 7.066495581000725 8.083608494288386 10.144413174530698 0.20545325407393006 -2.4868617375373105 -2.466446149995436
Ni 3.4830702571668235 0.9549618801233077 6.858809783935348 1.121015119388037 -1.269549548787736 -0.07648363418003602
Ni 5.685916311146756 4.189465059951346 2.816884180622657 2.485862863959151 -0.5469006389887032 -0.6366041142931229
Ni 6.355181684668688 7.8925790629450985 0.9617448561976764 0.2982160850299638 -0.47432276762097675 0.4504446754517984
Ni 0.18792882755731152 7.613070794554155 11.823259967829689 -0.8000835950384286 1.4638167043378596 -0.609979312616743
P 6.866554345528044 4.135253128802473 12.722638870014986 -0.462198730663933 0.5985119354070918 -1.2684300904713124
Ni 8.30861765281111 3.6000724257263363 3.838696634694976 -0.30622404293610483 -0.5862169200898227 -0.6092138952056283
P 2.7905526712074904 4.287374475589153 13.136514355656244 -0.02918767730754973 -1.1318908857602765 -0.49445604803574195
Ni 4.549698339967595 9.073439429238139 13.494066683369947 0.1501747932165994 -0.5456441408737829 -1.4750596242415306
P 5.904950299541144 0.1577685773451812 6.432786638465738 -0.33344816875938055 0.8455612677552535 -0.47215661320759333
P 6.051448501726428 3.2065819972438447 8.446882163197843 -0.7668171196758148 0.9385506128997965 -0.933515107358418
P 7.814651727876008 8.077929766709053 3.5096444789189865 -0.8323334562110697 -1.3826935145032833 -0.057780144233261777
Ni 1.1257220521785334 5.7915795522069144 12.672364066470054 1.0767098697127586 0.42816092435293357 0.577409863321154
Ni 7.247974003968331 6.0055647534386 2.4604157209787436 1.469088237149444 0.6809129635128274 -0.0747674228198777
Ni 1.9996068951495958 8.137255331828223 13.432673431471484 0.9079768538779976 0.21680801696511695 -0.22593337630515287
Ni 7.7982640132139505 0.9135164326238299 4.206594807368876 -0.566469048038934 0.1597884050469635 1.5806520028620648
Ni 0.2730384097589593 3.9927661648583825 6.255183275443378 0.05913228738578203 1.0768883042721518 0.8251305107047273
Ni 4.003373249814887 5.275241478651763 11.268159251843533 -0.9985701879865384 0.3223710850096126 -0.15591015303847988
Ni 0.8752179080586093 1.1399327668713515 12.491601737534886 -0.41734815000814574 -0.5871571725159049 0.5464100725055299
Ni 4.08936011668499 4.026236381406721 4.231366287869916 -1.322744901863793 1.4059830811588432 1.438551759123484
Ni 7.413129559081474 3.7655707425367635 1.1342308797178773 -0.9684800534693772 1.6789082528325021 0.8948197476707492
Ni 3.8057942909045708 6.219642592966849 13.481809710351651 -3.2200894512934544 0.18711306100384548 -0.26321154393032087
Ni -0.033234915275067944 6.225441750331714 9.177701979254259 0.23554390281172338 0.008564601740559443 0.7243172986403912
Ni 4.977659478601309 6.823079192950863 9.74412402146342 -0.031009561007636917 0.11859804685158284 -0.3152401303917861
Ni 6.247610094699325 4.528298893461461 10.641035965811236 -0.7604857781411484 1.059323555915511 -0.8039500199723703
Ni 4.589366058556021 7.856283378351578 7.355297323302905 0.9236024762303964 -0.8942523052030534 -0.34036546470450413
Ni -0.1016251377129621 5.286858321040807 1.1800155050283823 -0.1409000527828928 -3.1041360411535703 -0.8156187145595502
Ni 2.35370751993335 5.541502470634148 8.966093876712389 0.8730363332470706 -3.0005108135617355 0.5281416132136453
Ni 4.537692416732985 3.143124764097949 6.397521091730002 1.5870671623597892 0.9137818905955489 0.6700338547064784
Ni 4.369452006344282 8.331814282270573 4.92049331217503 -1.1806222895277085 2.4727916325974895 0.8949102505020264
Ni 9.419276717968442 7.429072609920026 0.9286294443251751 -0.7208614788813069 2.2502688246357825 0.5035322993053973
Ni 5.4042958895941675 6.8503704351184265 3.576637715844705 0.8674143590746027 -0.92066216265515 -0.04775515589709195
Ni 0.8793857050209944 1.728473128767979 3.558427805889247 1.0250610351882152 0.5977308342666932 -0.9033874347351023
Ni 8.872516227821887 6.978915335429733 6.88541179717648 -0.19457620215011007 -1.0544952812889323 -0.5964640517391275
Ni 0.39020918001821747 8.501258990514598 4.885187004588806 -0.9293807734750703 -0.09370642581622572 -0.7711977652420138
Ni 6.63595909772255 7.493094936674958 5.852345642837644 -0.3615451841059128 0.08712028795827577 -0.02642836939485771
Ni 7.764099009441386 2.1461514164831614 12.217529484386278 1.0297651255321039 0.620612109740241 -0.8690889185635484
P 4.039909793979472 5.528542372944934 2.32358339865688 -0.07757095370694382 -0.6193738664577656 0.4925994544429774
Ni 2.6370880691206424 5.166484118486388 6.554054800581993 -0.8467902550663482 -0.6502371316955253 -0.4488768167440463
P 8.703219740852361 8.314296380390443 8.542646075887243 0.49119923166134116 0.5591776565838433 1.5656699276309358
Ni -0.12943422795831455 2.4738130714277355 1.1222462632914765 0.8520813282619584 -2.3464424810455786 0.004229464700315296
P 1.9115634580957868 6.690930662903242 10.817107091408438 0.11995353243821276 -0.3781892204204971 -0.9924612468753229
P 3.685531254306028 0.8773337667521163 11.0627069641083 0.6029784558188777 1.0735042182912673 0.9838362242104735
P 0.8486112629026491 6.107957862630072 5.426362331835558 0.9889300937936129 -0.8946922209539495 -1.4636598670450212
Ni 1.6316753726889335 4.319566283644917 3.8870056535868325 -0.4450774976026141 0.030080621435464323 2.0185011010370397
Ni 6.971791450424011 6.376395854581696 8.345369117823722 -0.8752747356592862 0.8486483913210094 -0.07306252431362902
Ni 7.092174916808086 1.6317309556668713 2.1077176400049584 -0.5510126042745478 0.6824841646546891 2.2213796524052585
Ni 0.38643972773105467 6.204181261270425 3.0610055461093664 -0.36745563605307685 1.2879195666544916 2.947699069077343
Ni 6.446319240827713 0.6271223596493323 8.545751311588045 0.7416259651221679 -2.268555281649796 -1.7799762612201213
Ni 1.8661058459721505 8.159747910233804 2.917054897079575 -0.8848433531843278 1.492971728635261 -0.052289296322019625
Ni 5.679987460166702 9.22699666962155 3.231965816885169 0.4183915036709956 -0.3577538353842807 -1.534504300661409
Ni 7.425644992947182 2.193841611553975 9.81826245020307 -0.641724980459456 1.1528397200978018 1.1792472635570528
Ni 0.18257896593077796 1.820518540233325 5.665291320799891 0.877782075462172 -0.4952767441648245 0.3098986635742147
Ni 1.861900067308174 7.5943671224780145 8.71711826448576 -1.0752489688965159 2.186892417261666 -0.3653977250827836
Ni 2.5416243045121085 2.5853958996382924 5.2145374556797295 -0.7188809581161683 -0.6198868015384421 1.2843385341714526
Ni 5.647777124451624 5.569016044713464 0.7921408100835614 1.683836543372055 -1.2100228541770128 0.04850591802018743
Ni 5.471013990779094 1.9018734922752605 4.5418027779515 -0.022623650936786845 -0.45191097558467985 0.3911637783032941
Ni 4.709073265375185 1.7008669163921004 9.236803359695747 -1.7939687188444715 1.9345473837322038 0.4105167289086092
Ni 2.7362481017620537 2.929510116052517 7.753511378527161 -1.729284648402525 0.8009492854728335 1.4295680675676348
Ni 0.6639766531711304 3.6244270338928413 12.763233897952013 0.3847735585062341 -0.9375651090580757 0.8980778495967308
Ni 7.8534671741360516 6.257994847744076 13.193825964208125 -1.4304908364922202 -0.03902548933357795 -1.21687150166773
Ni 7.842285731740855 2.2259778366318015 7.263695649278096 -0.3515505347870462 1.2850761836684255 0.7543495833364234
Ni 5.892638669927874 0.42788795437942934 11.095762161088034 -0.8005173401417375 1.070900462119833 0.9821490663160375
Ni 8.702284094057072 0.4945171227996542 10.348279494628768 1.0457684429388958 -0.9808568298671753 0.46069643508679364
Ni 3.1843951252169225 1.8924336498554546 13.063379199668374 -0.1779059405832807 -0.06428066435594092 -0.56793637661308
Ni 1.5313203060218548 3.7672938148528416 1.7904064619354079 1.5981810128847638 -0.7156814773422642 -1.3330128594487043
Ni 5.448725216625951 6.8643680817291495 12.293552176078025 3.1166547424458715 1.3759266280930949 -1.486871529274794
Ni 1.1479089242054559 0.6152322342854261 7.870766449636292 -0.1598303140284925 0.39258534124116906 -0.3672288647542514
Ni 7.583083777956598 0.48009611917363726 0.30407223910768205 1.8757010030179568 -1.922025082895477 -1.4102814514238808
P 6.331382906281562 3.8319646096837174 4.9784283764627855 -0.05809253326735802 0.0546480263621833 -0.9341121175124686
Ni 7.741958456562745 5.7318834339014915 4.865133592531738 1.0485328930579103 0.6006626632015075 -1.1824554860817056
P 0.718129295810203 3.421762232501197 8.604473801396587 0.2716301070113193 0.23127561445367265 -0.19447695756808442
Ni 3.1483680916834347 2.283571065605237 2.9936195228062186 0.34744268326625966 -0.9204068521112342 -0.33565520371302837
P 7.392193304058156 8.307996976224135 12.120490868736168 -0.1417307762143043 0.27776244516130233 2.7780934208296415
P 2.279902589061328 0.3826693490609263 5.151856531459035 -0.4867501947510521 0.5346141083118664 -1.0481359147298077
P 4.421134911996976 0.9641423353127359 1.6048853037057778 -0.17056775505065463 1.1908377966081298 1.317090531791493
Ni 3.9430008719445504 7.674276917093561 1.9101831474769928 0.20680591144708257 1.2924781325594514 -0.5428894609467813
