# total energy = -381178.66159650235 ev
CRYSTAL
PRIMVEC
9.15145471559431 0.00000000000000 0.00000000000000

0.00000000000000 9.15145471559431 0.00000000000000

0.00000000000000 0.00000000000000 13.39407901949877

PRIMCOORD
 96 1
Ni 5.5675070668123245 2.170962979074748 1.930033547841228 -1.3563911291633284 0.3455629497450436 0.25672850730913854
Ni 0.43314292396742915 8.787016264486414 12.563418016388697 0.010467218079911005 -0.3445792456755356 -0.02476435142887348
Ni 4.945418634563904 2.8523162315894477 12.319217855265869 -0.08121626376901497 1.3034086634290263 0.13223337824683032
Ni 1.1697480838875727 9.129472848671774 4.9189489671552895 0.8174423980318503 0.42737288123399947 -0.270571840950134
Ni 3.876190128472006 5.947237525757498 3.8183300564933864 -0.27402560382668933 -0.4139668922407387 -0.7319082236137718
Ni 7.387475154520052 5.9904049373072255 10.305671792937003 1.9379625800613398 -0.6420916197702555 0.603838746936644
Ni 2.069015774354807 7.8000227298140326 8.253042613265457 0.18227681595746673 -0.5644358196589893 -0.9143310782307995
Ni 6.186465701572935 3.8293072263373333 8.500820078008127 0.27448788817508857 -1.1617912728641349 1.0862252654023614
Ni 6.7625314684231 1.6922961439870903 13.321831092722451 0.21293670693516875 -0.8667672124089073 -0.1489414350301306
Ni 5.656239571028173 7.52633932726874 10.2931617544404 -0.9861275913478115 0.6277199244296157 -0.28225647637691387
Ni 1.102393377717127 5.5924905379869605 9.761684620045978 -0.2476417145165219 1.6800703914614035 0.4307909057766129
Ni 0.1517256271035716 4.30413960192969 3.745560434610841 0.4205980244040111 0.4964489100960547 -0.3530731420791597
Ni 0.6250782124801997 6.671300617089789 4.07417086792176 0.3148441805049481 0.5116220182920672 -0.47907596603524594
Ni 7.068281568036496 8.820867495209848 8.207396072653015 -0.06649284151591128 -0.5438022025690377 -2.2976025767247394
Ni 5.529437015498595 6.19040997852395 5.603399071921086 -1.3516919239154463 -1.033936483300974 0.9861054798606244
Ni 2.7362574838104274 1.2698924520428971 8.744230468595289 -0.4608884964929418 0.35089953146660857 -0.8459687876063172
Ni 5.529491924226451 4.3127694236577785 3.359663725527401 -0.9301528757544044 0.769380766637933 0.8495500771996725
Ni 4.012144138644308 2.8880252076053554 7.510087258968727 0.5515597350272695 0.8090480033205679 -1.0102833626584085
Ni 7.926596498977542 0.7270190111818906 5.912829886591786 0.9672029865291666 0.33408297412990207 1.902830255134581
Ni 7.00273884988531 3.132286683474291 4.438168146045163 0.7100954986140544 -0.5225029268706292 1.4765799175407988
Ni 1.383690790525165 4.4320128776524665 13.182198197783775 1.6181983365469552 0.26236667943152236 1.0427620520124041
Ni 5.7492458045621735 0.6332449706033663 11.204816853912025 -0.1658400105576821 0.5119536905998731 0.029737636273748782
Ni 5.069356784790309 0.7472299987603458 8.499788709069891 -0.6419900611953846 0.23780981602776463 0.6156619648238171
Ni 4.955567597762684 4.463155277801655 1.1588770709174814 -2.1164840427414324 -1.42127677409312 -1.194307243213969
P 2.0679359027069655 7.50271942283587 11.523917095558225 -1.3300167529348577 0.6414622137163728 -0.40809577817194226
Ni 2.6446788772006924 7.729849375613628 2.9563682708772148 -0.438057100420723 0.7884079584727133 0.33688804767886493
P 0.8681133934270103 7.68648063206176 6.388694546267842 -0.1368510795244998 -0.7328338207518347 0.5408186944606815
Ni 0.46552077049338525 8.76381732696711 2.505041406534694 0.3441424152484331 -0.5789921202066094 -1.0862607466259873
P 1.5322372022858544 2.229788529518175 10.2132265435726 -1.093620015204536 0.67863882276667 1.0831638528682184
P 1.7673655264213517 2.752876525441613 4.541691231254581 -0.1367793457462999 -0.5070487970990879 -0.3833913334467268
P 7.891921637336263 6.616355283414876 2.7765659809297674 0.9202952662340343 0.7103042721907509 0.1326198150519716
Ni 2.6139848983289973 5.505762202337869 7.515363987715722 0.32741558941205545 1.356807904985773 -0.4316954198687533
Ni 4.350656445878654 1.9048112237004176 4.404374569485977 -0.7092789162500301 0.9840270000650406 0.3720409414309141
Ni 0.7793415379561985 3.98029707648763 7.882669516692469 -1.055552518908853 0.34019345790301414 -1.7100088308920487
Ni 4.489694496265554 7.583801310970401 8.029991463821961 0.4099657415011455 -0.21598937771856352 -0.724114695711282
Ni 7.323817636025266 0.4983360565512635 2.029015681256926 0.09090418048074021 -0.22670753546701602 0.1727454794282638
Ni 5.839982477344778 7.502710271381227 3.3617127362219072 -0.5504865565677487 0.580839200717677 0.7298965925003817
Ni 8.556372153125851 3.1865914153242128 13.315241130234227 -0.8449907399637641 1.0946404860492502 -0.054533869381822205
Ni 1.411035336997623 2.0728410823954655 12.74530958343108 -0.5427714473116781 -0.6288987752290652 0.10034167174455623
Ni 0.06659788087149242 5.30742272586612 1.55956619128542 -0.480893735970275 0.32851987821982775 0.11973781688298088
Ni 2.5435461519439535 0.03748893394391722 0.7072527842990719 -0.2887986483708059 0.3423488136831201 0.01213612114190168
Ni 3.2757540379082686 2.63855655404471 0.8951623479145083 -0.17097604623266685 -0.24631322551308546 -0.8118309653823438
Ni 3.8623805834161367 6.9567893961241944 1.0541999872776162 1.4494504083138586 0.6835154341326809 0.20164030808574304
Ni 3.2233345057147478 7.090711783365811 5.800385963396641 -0.7086094009868312 1.3150179655331804 -0.08898099531609836
Ni 7.371524169077785 3.4478562939193287 2.1800339009166154 1.5314914819770142 0.7326193907481835 -1.0926229413985893
Ni 6.151214298289164 6.201766933735569 1.5160894605687687 1.4722715199734322 0.09512541765093939 0.03735915737474856
Ni 2.405139551927402 4.713804469011212 5.387874993921232 -0.2930725931558114 -0.5210625948796769 -0.6992017345196861
Ni 8.465278573612181 1.5395217601814624 11.33528822760787 0.420183819684728 1.0413474310530646 -0.036730008431181904
Ni 7.902070600535043 8.380929616170198 4.279663121342262 0.666140176079027 -1.361814871282061 -1.3079793135188442
Ni 3.267966150007311 3.620269699388241 3.084803445915055 -0.8330327962709395 1.0605985659731927 -0.35952506835209047
Ni 2.3370435779308956 1.3893738438582965 2.78403997393648 -0.6073323619121992 -0.6794533482481654 1.4224718228424857
Ni 3.9839119010715063 8.201853951721382 12.349702265826247 0.8157238726788468 1.2312938477406474 -0.6581977813034986
Ni 9.125848872633256 6.075211467481345 12.309453253162085 -0.2540998114370398 0.48179027964261545 -0.6054387444339122
Ni 5.645477460368331 6.228306152199468 12.426249608185307 0.8266364058262925 0.9753317862838881 2.1456244117508145
Ni 0.9126800623916099 3.103642630442566 1.946454002906667 0.3480162963815426 -0.017077267197260913 -0.5415265191609835
Ni 2.5866586547658246 3.92932347412766 9.024621887393698 1.5518888146864436 -2.113068332191664 2.37453358285484
P 7.46185817785611 7.436389679585409 11.872712892374599 -0.12295709515122695 1.1857434128043578 1.4496404128374776
Ni 0.046843550879709275 5.659863547066691 6.080952174978726 2.323123860924296 -0.9813340266139099 0.31412967093642674
P 3.829352983610547 8.911915317450307 4.4530090600392676 0.03449392001181156 -0.7853840840447248 0.31999281458542306
Ni 4.474173629191494 0.2654077421118769 2.4382714783159183 0.16375484589387926 -1.0022594639126674 -0.48416726451522424
P 0.023467075140336118 1.3378877600383334 1.1592660077397972 -0.014270908096717357 -0.7923803128568999 -0.7619273956836813
P 6.963305231829814 1.5569461298212082 9.482043620528271 -0.44363510872913275 0.5810466887427929 0.3582791117601314
P 2.7269870602573483 5.382894772304661 1.7516771877273307 -0.9295550942694056 -1.0616012962060943 0.3165349379438097
Ni 8.770616857766655 1.4788567673548476 3.738086441604129 0.7393263704547138 1.4431704888424177 -0.16226077784685605
Ni 7.864714362683445 8.787547048855693 10.21882540352302 0.2969104788446629 -1.6426754957527128 1.2132971540529105
Ni 2.825099805481988 3.858747455922975 11.423488117163513 0.36306007808854246 -0.1604016131509302 -0.42487351185091343
Ni 5.916076822699024 8.31168971034335 0.5387671831628164 -0.6746142749883091 1.1406681177322742 -0.7813222552705255
Ni 8.100565651735717 7.571227212291299 0.8810535502918214 0.9284978566494847 0.030066737478393384 -1.1455452433189175
Ni 5.947585281033922 1.8664025685649064 6.589123299834524 0.44233567319141887 0.14870669331150518 -0.4784450173194664
Ni 3.2264917575664875 1.4556852841994716 11.278149290255097 0.31379876995956923 -1.0964484857922665 1.1298275754733444
Ni 0.2693456130446409 3.951323571088767 11.010816997231856 -0.14401288738026163 -1.4080008829198203 0.09844445472184335
Ni 3.2398803357087917 5.97933167718953 12.379384093814455 -0.14778083906312614 -1.3644651644207146 -0.35030457819508704
Ni 7.570998425925231 7.158350184630182 6.301351232866759 0.010430194194388488 1.9772197257897495 -0.5162448617760593
Ni 1.5007561983148852 6.900590313163229 0.5191629370271739 0.3703041612454655 0.49558861897828843 0.5635732145483777
Ni 6.426499205396933 1.0043538441296291 4.239132243875103 -0.8731402058147865 -1.093324081230672 -1.2772286625995488
Ni 4.595970339031503 2.7101209293508086 9.952965579551792 0.6010565562058164 0.0789950877479801 -0.4302170355510139
Ni 3.307390616608164 8.604691833639432 9.997394061551288 1.6580568633047894 -0.5434067669028319 1.0388136088876174
Ni 6.694179253696598 6.261882839283621 8.131424356790982 -1.7311363568992835 -0.05300637699370226 0.18510271544203608
Ni 8.92453517340262 6.8612024523809465 8.276844631645718 0.36644519251069146 0.5057940987563806 0.4242250796336372
Ni 3.3505854825218195 6.241658124523202 9.741942186945229 -0.12799285780292152 0.030319734029463915 1.129108952139765
Ni 8.154275539033863 2.4150780316694 7.769677421364225 -0.6233269375682426 -0.6801352048065383 0.5339877875817771
Ni 0.29910431325184944 0.15064941603758727 7.8789997833807375 -0.4199547343930574 0.9547117960406911 -1.517009486310755
Ni 1.8214414719052054 2.167311548672301 6.6988071443094235 -0.42927061247734455 -0.04089596688341344 -0.6058634906761565
Ni 5.264310223044249 5.100416821847713 10.643939756332388 -1.811214650409113 -1.803370728884662 -1.6722449818797134
Ni 9.049626406914012 3.250514326003637 5.658743409018422 0.44064517286287336 -1.4670848335661704 1.0921534579613383
Ni 7.344701255519961 5.519928654124805 4.479770658850985 0.6271295991437844 0.3181076817475683 -1.1979666943434273
Ni 3.56385098151585 0.522227759187022 6.48529272574911 -0.29993512460359956 -0.22943984679651452 0.3789253272555732
Ni 7.028436134522077 3.579033244768129 11.079890346584204 -0.16982676311957207 -0.6782593279400642 0.007188033108006975
P 8.235128640802325 4.628531214650314 8.874166482194536 -0.05361495711197863 0.13433242686770414 0.14563782457819432
Ni 5.624987353423272 8.539121661124318 5.967504337209274 0.04185395992130857 0.380754410044512 -0.3035845484307288
P 4.7024475137995925 5.315741398136357 8.327821894587544 -1.1773302490399984 0.31262377581486156 0.30661870727136226
Ni 7.236531061642969 4.454562061892138 6.521255197058622 -0.014284534943472172 -0.28408530205553656 0.6483198600681543
P 5.2694899463720315 3.8376350500622123 5.847506803352025 -0.4834586684839738 0.00596598777544779 -1.0761054033595405
P 4.50591087389246 1.0086184219931384 0.042444446632952035 0.3322698321805633 -0.6438250575215944 0.1772243411352238
P 6.5872719605603 4.288362494125634 13.14998507744139 0.21478404455655267 -0.6387080480100032 0.06058573200285695
Ni 1.007639216346367 0.024440789914321907 10.006448510774797 0.38459975193253115 -0.05948915650456852 1.6518579335829293
