# total energy = -340886.2341440815 ev
CRYSTAL
PRIMVEC
9.10523871043030 0.00000000000000 0.00000000000000

0.00000000000000 9.10523871043030 0.00000000000000

0.00000000000000 0.00000000000000 13.32643722435184

PRIMCOORD
 96 1
Ni 6.146800774914464 2.3104087234043034 11.15400083521065 1.2121802668396477 0.1330633303472934 0.1379404559339366
Ni 4.742964220240472 0.44549200027587676 5.803250113488071 -0.42689825559042605 -0.7432886975365716 1.2559283584598755
Ni 3.078799793841511 1.5773459780446688 4.523405964074096 -1.714762029306318 0.1448803775868795 0.2795784153241185
Ni 3.621044057590142 4.4750243691946645 5.075679647944621 -0.05056048655637099 0.12557499239004824 -0.2498605765447116
Ni 4.089235417252201 2.4365800122187173 2.22579465327199 -0.7432023084703523 1.7913857886086437 0.34547090425186955
Ni 5.467650146251816 4.639474080335397 2.4744659987690447 -0.9561503282594307 -0.039451006906770766 0.01896188581448347
Ni 5.13878714492404 4.653496147505361 11.456298392918242 1.2674633556826687 0.5922165893166834 0.15351311356121303
Ni 5.8760656156730855 8.158639625221168 12.440001946845621 0.27127606610601024 0.5900555771096225 0.7219287438035566
Ni 2.2461985820519725 6.738003905658484 13.425851605469079 0.24164101684839673 -1.016075029639521 -0.14319527657497275
Ni 2.5991904651981947 1.6772031278193442 0.38593736732874273 1.1548690918230047 -0.10972362718008845 -0.28144092245415403
Ni 7.979029692107714 0.232280095289672 6.898257012410491 -0.42260271353886575 -2.449068835059253 -0.0005620431510570965
Ni 8.801487668295083 2.3942861797482724 1.2634337782059064 0.48213532168685996 1.2020969144617168 0.07756169773556319
Ni 7.028970904673669 0.8704671668153373 4.67368792423011 -0.8270277277274403 -0.4054822518084952 -0.5283760978219545
Ni 0.7537024998147484 6.976151416587329 1.7621276865818496 0.3045829077882561 2.5663995851626384 3.13334762972052
Ni 7.918643750892646 4.003154493210095 3.9769550801744744 -0.37590659503390744 -0.44952884850574837 -1.393789881526761
Ni 7.422007626400087 4.158990648803563 12.57188039910298 2.006205057278506 -0.6528750835390046 -0.8896065789009261
Ni 8.064974037573489 7.290127353095046 8.842331036284893 0.9416534201948364 1.7927860113902803 1.2572190522468412
Ni 7.129128527316272 0.8386643900547843 0.4815496549510561 -0.40872698399803803 -0.9543654684448659 -2.5975017058840812
Ni 1.80236373516891 6.764864359003545 9.20502272992213 0.5519793390631913 -1.1399705774446174 0.3728097012761386
Ni 0.3464097062909183 4.870565031487149 1.084830884461932 -0.6835030928375068 -0.959703849938644 0.7695795129123004
Ni 6.275166426188592 2.05041774550095 6.788073611741364 -0.46116257608993483 0.6898601454037862 0.10661104969303574
Ni 3.80005304496774 4.512838424361458 0.10960066541011622 -0.06946297988782875 -0.5477262202137921 2.1456776335862533
Ni 6.326183077067366 5.7681321194180475 4.680670731575984 -0.2754283977114869 0.1932682819719639 0.11558702793940093
Ni 5.510991081140797 3.167430184641792 8.890345690055916 -0.16536255670063132 0.798612924030173 0.3464134706707969
P 0.24418246295498205 5.416378548697225 12.284655653079259 0.6859363848693477 1.3968284112427685 -0.478530377944421
P 4.37326422458978 6.4592288208904325 12.72465446301511 -0.36607083989040823 -0.06424852556642482 0.3257024633756907
P 2.251898461304179 8.58674062011092 1.0410610928432722 0.31085151440578723 1.337461382138361 1.2240343379647565
P 6.325154185125673 8.008102718389335 5.751743600782191 1.9271055827421781 -0.3721579266247526 -0.22082125188956808
P 4.838915222732086 1.3055455059079102 12.548359747211126 -0.4064078489465582 -1.637822795646102 0.7037934676554266
P 3.996644247738326 6.4784590844378105 8.406063553054402 0.6749809142991084 -0.7119652048329417 -0.18893545892456493
P 4.899164585370823 1.0248583210712257 3.773620537828515 1.8976679942073513 0.18226704576545386 -1.9129722286645894
P 0.43431349906512007 5.84182991920616 3.7054022705227956 -0.18931778196464813 -0.23776122217801632 0.0923509402295958
Ni 0.8312108418824902 8.998006029158292 4.338794523495407 0.3460190634458557 0.41377020284890026 0.5151020064208678
Ni 2.1324741541605077 6.343737976745088 5.075293585835524 -0.14606488481328395 0.33830292574852056 -1.2397306656540907
Ni 6.090648769565652 5.9173760823939485 9.215737774497205 -0.664688788344481 -0.599461958025187 0.6206578753765117
Ni 8.538992749825663 2.3297118288590597 10.207570485287794 1.0406090102251435 1.4993015275080308 0.4566328065403813
Ni 2.4098834531652527 5.430264037290859 7.363549264158969 -0.09052751386761183 -0.7792520030050579 -1.2760770654936087
Ni 1.0406376992566468 8.90011561088278 8.620752327712664 -0.13382977619967276 -0.23170396024034287 1.4488487701741175
Ni 1.7587951693193775 1.127865883339932 11.379457464826837 -0.832194102419728 0.9607582593450873 -0.7454209133882259
Ni 4.3085168741705475 6.898374469986137 1.7867955985148805 0.4659785094213394 0.21684401240937493 -2.322300336581736
Ni 5.6895630170741365 8.243336553023122 7.874418697352883 0.09429186600605052 0.2794737714254542 1.0084501661044116
Ni 5.521161632458233 3.1045585133375035 4.335556700712524 -0.122001416106177 -0.41105048992489207 0.715115320426149
Ni 0.843050383402688 7.698934347768463 6.598838531091957 -0.6217166556583293 -0.9474083204007424 0.006178103786253876
Ni 5.203598232012226 4.898081061998599 7.064970285822946 -1.1260783928435574 -0.7926513071300995 0.05285133947307672
Ni 0.7683974441041027 7.357906747908822 11.290770621548338 -0.07915963835030237 -0.12406858304785084 0.7952272953873917
Ni 4.4876806506013205 0.6781089893871648 10.338183309404489 -0.19718895718260876 -0.8997248982818505 -0.06415879406609597
Ni 8.092317068554921 7.664261599857278 4.413262626454024 -0.0016892147769648328 -1.4769987502457727 1.5548412124465478
Ni 7.028852536574182 6.330125645304117 7.098739794082663 1.0641919397514061 -0.27557109393693835 -2.2866985282177263
Ni 2.5320575423123843 5.488146037939861 2.5731221675958516 -0.5162985978321302 -0.32741918895648126 0.3013165783321585
Ni 2.722347920094908 5.4695531410820255 11.569452832884485 -1.3920852401308281 0.08652816290023163 -0.8812265823673469
Ni 1.133019448286815 3.421029285172864 3.470177541127431 0.13541126175417972 0.9806336581127756 0.5954872896481551
Ni 1.6160432413384018 1.2784301058870307 2.5962030364719184 -0.5159741246131759 -0.13209222468327575 -1.309900441800957
Ni 1.0408198040250878 3.202585510189346 7.8294415511194595 0.486502340406304 0.8036882816705514 -0.16350853421102807
Ni 3.5482112554521255 2.881935433918263 6.808183441320314 1.2939796568056423 -0.18182635868360944 0.5260181391127393
Ni 4.419637203873306 7.027823644632489 5.876945181704656 -0.6418496789627784 -0.5174730777562055 0.17297276494772149
Ni 0.5372955666662446 0.4412416749804616 13.465565013370714 -0.7036898521980268 -0.9569607399758681 0.009572731290099641
P 0.20235026607253556 5.844934805508081 7.87078024407943 0.28716959740781506 -0.73354010279024 -0.31643775024431303
P 9.000182181141163 1.4454110733090944 8.300024856914993 -0.9153749461142817 0.9675248886449597 -0.7924759578944998
P 1.8513408126411428 3.0898717637627295 10.137313555099379 0.4201457673579409 0.40938852884143695 0.3692569509278737
P 4.293875650787884 6.114377020893527 3.750712668482467 -0.10683910654344181 -0.16136911927052208 0.8489317268893831
P 7.039860769826446 4.219030590958593 10.35485500095527 0.13860714298365806 0.35756100264718416 -1.4066415406784485
P 6.408967904800689 8.163228665385883 10.230319012961457 1.1961278413624756 0.557317206336337 -0.7019322460769718
P 2.6908437951545983 8.476658287588277 5.592465665065186 -0.7973826511674976 0.4583677869536171 -0.0763980164447652
P 7.23653391974283 4.084127378497429 1.4956528683981505 0.8292393906667783 0.10640664699171352 0.3445064834560712
Ni 5.730645852834448 2.9181196514075087 0.2457157851052561 -1.053160878748225 0.4293451744690219 0.6706115815868192
Ni 1.367652337184746 1.0659047358778488 6.5015690900768295 1.174580968429635 -0.7721575580521218 0.448862161456027
Ni 6.947069285067285 1.0700294088830398 9.101690110641757 -1.2635820183503916 -1.3606020819208826 -0.021011055034028333
Ni 2.8030385429911577 1.7028252687390064 8.685412267843043 -1.626986110041914 -0.23875418221890496 1.4429935969449215
Ni 6.551911042788528 1.9479838132528327 2.3162142234222056 0.5214534025601922 1.7364960785492998 2.081478987421157
Ni 4.56845322064337 7.098134295727597 10.696211299921949 -1.2592399393316118 0.1797342520412711 -1.306575234082466
Ni 8.446146633635971 7.249317674487396 0.0655422377334773 -0.9764587007994795 0.5786643045535453 -0.3905014621289468
Ni 7.7862444789975465 3.9309590577616227 7.99226415615417 -0.5440834812548824 0.29843591435025374 0.22745264116315667
Ni 3.398839819138316 8.69335385679476 12.397690814422175 0.2231334449625125 -0.23456251273506057 0.5199323379299756
Ni 0.2955797127997972 4.658358344822738 9.824915556410202 0.0780679479480204 0.8904367881117052 0.9042868066209201
Ni 8.51216871743429 2.1935611987340735 5.975027720510874 0.7239375467034693 2.750552535096895 -1.0206688196577907
Ni 3.5882196730786347 2.8295347867993375 11.678076506211914 -0.49988801768459074 0.388064313442364 -0.9823218444484759
Ni 1.3618067741177868 3.5835668962449643 12.715846055365615 -0.04899134229703821 -0.7814870629831637 -1.08510297887246
Ni 3.2612778770579114 8.488740938974344 7.877230394977614 0.20362982771194607 0.19457903036358745 -0.3103187818307688
Ni 5.736200048271901 7.905768943763861 3.414992512099041 -0.1562438822288148 0.3346280480000947 1.3490807115448444
Ni 3.026526620060494 8.526227205557943 3.060549253948344 0.10105978085750338 -0.45731954819476084 0.9887843122443681
Ni 3.6189589579914916 4.601204763247501 9.688466274464973 -0.5609710010388402 -0.46839534639294816 -2.060148601374497
Ni 7.561263142826994 6.519113973992286 11.289144425966159 -0.6243144982924925 -1.1852965550749264 -0.6461681038324742
Ni 7.894678763365798 8.929816898615524 2.5099281708514223 2.376237195809508 0.27856282957541056 0.2527669515582292
Ni 4.885943779181999 0.3785047612048194 1.689272121347778 -0.28494250784950925 -1.5146265879008753 -1.9611744994014289
Ni 6.288095864747912 5.848686163737967 0.32731237922450046 -0.6405409874536839 1.0554298772880597 0.27720965798162583
Ni 8.23813746188413 9.184362943942489 11.368583078579375 -0.7904411868526581 -0.580554836708039 -0.40607951907286194
Ni 0.018508218140510856 4.899601636815082 5.863498565602966 0.6477809568455489 0.12159209648290027 0.23478491315851177
Ni 7.674514098320512 6.163818465525285 2.4572079298638823 -0.44504458748214965 -0.36129861531274554 0.030180894458754475
P 8.599833952961834 1.7841441530863782 3.402425462028921 0.8426991157161099 -0.10961538373699832 0.7019121914723138
P 2.2971332857849474 3.595940915260537 1.5313007873443374 -0.7136932432676418 -0.9938429577141981 -0.4048924407432963
P 4.74127064589397 1.276663689633152 8.166227020398265 1.2560216895046306 -0.813229131281451 -0.8436517094373664
P 8.4499162023427 2.0035439781042115 12.335736040626987 0.14218611858416805 -0.3072856514313998 1.0349263580180692
P 6.5324167273269085 7.944639206587612 1.3333629198111296 -0.5502867818521168 -1.4470194302748627 -1.2699755805815611
P 1.8316552871726604 2.9793341693189834 5.606645252859852 -1.1525620409563826 1.8159051139062468 -0.050602652648216076
P 6.856535899436794 3.996025091525626 5.896548760027341 0.4504976401769209 0.10028305059247891 0.746198929204831
P 2.403145576732932 8.439909545316864 10.40245627690193 0.868530474956917 0.5404996205583659 -0.609747399111595
