# total energy = -381173.2995054189 ev
CRYSTAL
PRIMVEC
9.15571501431418 0.00000000000000 0.00000000000000
0.00000000000000 9.15571501431418 0.00000000000000
0.00000000000000 0.00000000000000 13.40031439730181
PRIMCOORD
 96 1
Ni 7.911499151921921 7.490125678248117 1.6459073295403284 -1.5169156410453681 -1.6125912747728226 -0.03653589014250482
Ni 7.1707102473536075 6.430232637096941 4.5460029604175345 -1.695951067247402 0.9463490258982927 0.5650426000050527
Ni 4.861776247865779 2.921799253399505 0.5757736211074853 -0.5228716230639575 -0.6583227369171372 0.3185792220673481
Ni 1.0086942826003669 1.7194982203850786 3.0497238196276464 -0.22575725573860475 -0.10424280657117531 0.33185279924780264
Ni 0.22506304060594384 2.624403317196465 11.664544858996704 0.2863851538333068 -1.1013106989805743 -0.9778545527057417
Ni 1.5150144804934866 3.8942460601231454 7.654929464691327 -0.4068323380784864 -0.40318831356799595 0.4883810454862557
Ni 4.5254685227069205 4.804269201646603 10.610583805625403 0.5687226199598011 1.464245821455478 0.7142079781205313
Ni 3.8221722712619193 9.363000437124462 13.528287707683747 1.5023176886265353 -1.4914789461398186 -3.2981823389421394
Ni 6.125219145973609 5.302312633135944 8.629427151585816 -1.24494409153423 0.6186701555225216 -1.61529710373976
Ni 7.134352902896301 7.183619805571891 6.8719894791830605 1.2699215874151741 -0.7733963155552293 0.9852181921596646
Ni 8.467360923942085 6.4351217889328005 8.813145729747573 -0.4969744435822215 0.8100964991897404 0.06734233400040016
Ni 9.154048708289238 5.680993007538928 3.8807441271412286 -0.23588663086312278 0.7067422658711054 -1.2731879168712719
Ni 7.382207264972296 1.24823525541239 11.442729350518439 1.6160211263899782 -0.6503314911815444 0.11249630482921914
Ni 4.838777091664129 5.151087687681058 1.5974378896454553 -0.8212859401476565 -0.4998723339553069 0.02018907335336523
Ni 0.713307110278952 4.418108608049053 2.071246143401607 2.5234256527042738 -0.06513632748801684 0.042245024712140145
Ni 1.4319355221440504 9.063443752169993 13.39960413267809 0.47653417344999865 -1.2020899724831813 -0.508142544383899
Ni 8.390178246083837 4.633789787444873 11.856557599420833 -0.809222067004587 0.8733605493557088 0.5065358620184115
Ni 1.9775612047400717 6.112272964895132 7.355312352017538 0.6137773462065945 0.6020515731292341 -0.524278016493181
Ni 8.79641732278259 2.6046727512671026 6.552995211180778 -0.2441992644938762 -0.6877235586767576 1.3238234796399522
Ni 5.853669793352281 1.2170142670972501 9.659696876697803 1.1520048829013323 0.28112930475100617 -0.8358360700476896
Ni 7.780728073885223 4.139243839104031 2.1284657001682628 -1.4932519788798413 0.27168204329517726 1.0140268888612407
Ni 1.7053984192104994 5.074069812693681 5.066592340213631 1.9860517222590828 -0.8302616612837056 1.213559920795994
Ni 0.933855467794516 7.1190079244751345 1.9774174600138115 0.14571598611429742 0.40912601920866964 -0.7108097510722597
Ni 2.4621091122480294 1.6586127153130321 1.0532487387405323 1.1803510381441928 1.6769542144299248 1.3360953550287697
P 5.042629087217379 7.541296969653782 6.834535280062951 -1.6462279889906617 0.7709967049748012 -0.8351436719663552
Ni 0.390447299383224 2.25545546788996 0.4736974696040657 -0.26069520526637036 -1.0188176253816648 1.1388238654346838
P -0.21957235829140154 7.519771883574927 5.173271985243399 0.5381295776642925 0.5011375738209757 1.3268254996910698
Ni 6.9097449013282635 8.952009544315576 5.523931293740669 -0.2774595692089028 0.2240112195817755 -1.2270353295746093
P 2.759331089865149 3.864764657667207 1.4622153029522116 1.329865572068974 0.41196143177493566 -0.2785579444794042
P 0.5181759333093291 6.449441327268542 13.415590926724152 -0.6118847571695719 -0.5683909476519954 -1.4382686806654263
P 7.532058853169918 8.465328355201335 10.057954001017336 0.25933483458373396 -0.07471111566064553 0.9857226425999089
Ni 1.6453735513530052 2.2458877456643527 9.683040287785275 -0.6608928116371586 -1.0181491385597305 -0.4581829246363206
Ni 9.13429067521473 6.768627865286842 11.09625054151228 -0.13966206661073366 -0.6781924792578707 0.7521006394012467
Ni 1.5163695263206538 5.5606411332273415 9.530745954812733 1.3521580649185874 0.9395068061654787 -0.29580439026467764
Ni 6.644549614950544 9.053454867052158 2.9791717106074698 -0.9683954641753708 0.6640727520270369 -0.4189705161029171
Ni 3.364807681732745 6.728104670482499 5.474752285929543 0.7448904948060526 0.08943530924469759 0.33406574773872144
Ni 4.691077096502887 0.9404658940594811 2.028593329277 -0.3726214965247324 -0.20682802293426963 1.8279838994476518
Ni 8.975155191958002 5.5911205086235585 6.456941689036215 0.009408952018725731 0.5273815951191692 0.5867473386719959
Ni 5.601274196612264 2.9726500947784746 7.930065110897124 0.12864540378525585 -0.1546037755222305 -0.27159616844959034
Ni 6.312627477299883 0.7400042597886634 0.2585830289697438 -1.6581828473596925 -0.4876277122599989 0.5380210771108863
Ni 7.743354445057541 0.4818597895697393 8.125427927457473 -0.6844304897477825 -1.3041928498932183 -1.7402385763108674
Ni 3.7569378015418695 0.5440289258915755 9.510390969117068 -1.3586333882302861 -1.0578274309859588 1.1584418967759273
Ni 5.3389629604748015 1.8517525242596218 11.919580048385182 -0.7451599464173554 1.4193507607150009 -0.3423123040182298
Ni 4.617813064685366 8.633866757812799 4.562337671635436 -0.47601378217015444 0.7651973246842048 0.4876295120322118
Ni 3.665307405337202 4.517878434931774 12.754312082779398 -0.4321052537126623 0.011933003992160093 1.4582206983073207
Ni 4.922332147196083 6.640402076033607 3.595505149379491 -0.9887652860809746 -0.4038714556779496 -0.20418107222972576
Ni 5.58930767704397 5.4948023863140945 6.26412416125933 -0.5013849139450914 0.2962005972618318 0.05732865851813998
Ni 4.741653266430403 0.7252232734144811 7.206997092805042 1.645444830967734 -1.894794786424614 -0.43318151749597655
Ni 2.9433884294836985 8.380711236723762 1.9900541779236518 0.24467209036523668 0.14509969268653722 1.040172436908357
Ni 4.917067611043237 6.600510625567606 12.386647864722681 0.9010904111708095 -0.9187027249359341 -0.15201647441102853
Ni 1.2522729257487468 4.1919716020679285 13.240113407677486 0.5405988651403916 1.9728066843237184 -0.8036029210455966
Ni 1.844546976516509 8.015544697732258 4.03569270190631 0.05997226678857413 -0.36042598289980504 0.839977860130205
Ni 4.0924215123463705 6.774826284374627 9.402625456282555 -1.835248294319549 -0.9792730303198232 0.9636134694056953
Ni 3.164050317865863 6.736811755493554 0.30826102325100957 -1.4929280198815191 0.20769139937582942 1.6379557216795404
Ni 3.1364916155700944 1.73556650029507 11.684269931497038 -2.0384348638464895 -0.5517929340839981 0.38354148587134596
Ni 8.832683110089413 8.7183007619894 3.3984943041104265 0.20894352661537563 -0.03637699596713735 -1.3951415104586489
P 7.5307770530631375 4.133338402897795 7.654420406934634 1.28181371086707 0.2563068463906876 0.42852293567804267
Ni 2.498704505296596 0.2758040134043321 5.834965583079848 0.22405030034982704 0.6357818755021437 0.025060028292421356
P 2.446251413784152 8.584828748013418 11.465430030409511 0.7531411648506191 1.1528356063327436 -0.13016569708452422
Ni 3.0183096457249854 1.9759223317464032 7.615786951716288 -1.0459761880743277 0.2895262705654498 0.3905582835088113
P 5.827960545496295 4.258185733298161 12.314862480885482 1.0205366649553007 -0.12860478035530754 0.2999991450723156
P 8.164297600124067 1.520498753807495 1.9518492101695712 -1.1591000991852167 -0.27230296470862786 0.8167176040506837
P 0.15535142622721265 3.5074903450474477 4.058057367055105 0.49482808666317996 0.12584290133945425 1.1135964583264628
Ni 5.3913702734120035 8.586797226748828 11.405155211531195 -0.23225803297160003 0.8429503124949675 -0.81833765615261
Ni 3.829863071902599 2.9220281462757156 9.72454131295679 1.1842688851413605 -1.1655319708534895 -0.5002410301486352
Ni 6.496574948337851 6.258288308487462 10.564325470914728 0.9738369469059164 0.3219363114650391 1.0614277467427076
Ni 0.2613123476256802 -0.012998368654253306 11.082300894064495 -0.7824178023275493 1.769809605099765 1.3025817966523567
Ni 5.859007575225514 7.849560739619306 8.826599137439732 0.9345036965239326 1.7790604342740715 -0.06714050240223922
Ni 8.505677591419756 2.0608049659603798 9.407502705688852 -0.09973823383260243 0.5053577825499103 0.35612401309034153
Ni 0.3354150429416375 8.0668441691486 7.342728737254978 0.902309114069259 0.5347701742737564 -0.7927035005242735
Ni 2.2020135591522854 4.0507355417308775 11.10272363205152 -0.7680245097203546 -0.7571523428925411 -0.6680764738697914
Ni 0.116348995692414 0.6274786907004729 5.297103946844894 0.7364004550571704 0.15362598498999347 1.5407428253719528
Ni 7.2594840604631665 7.498915164694608 12.363130495049289 0.5610393923829305 1.1162125557930713 1.3012296534998364
Ni 2.528423956343794 5.8227600993487885 2.9257975541611536 1.7136662251389776 -0.6507989177362662 0.3232234057075788
Ni 4.908342214602085 1.9083623104040526 4.842806521856941 0.010875766372239333 0.1838091934415931 -0.26642336599939925
Ni 1.8732959217685732 2.7814787645672965 5.607107302669618 -0.8965321023761657 -1.3741803348259496 -0.6230947669527785
Ni 8.356869754737655 9.228686097364024 0.38857129336980106 1.289020255917838 0.4547602721080168 -1.1704533194145066
Ni 7.432087600556132 4.175912477872986 5.4653447887172835 -0.8422288609479107 0.40819733674681313 -0.6824250292819796
Ni 2.4073030019681396 6.403342301999707 11.53247183828012 0.3664467351725882 0.4489387803302333 0.12756656889878032
Ni 7.585738810498851 2.219656622050606 4.30408699512195 0.25527197736827006 -1.8489309340129643 0.2523470904119912
Ni 5.023685912782182 4.28492042123957 4.405835372026636 0.5999710364511216 0.23977336751203862 -1.1300728587149313
Ni 7.104743320429684 5.536231996908231 0.37255428546408104 -0.490623304553213 0.17582283280200686 -0.8536286181444201
Ni 3.039669928932968 3.2479716019997547 3.70332468093279 0.15788167494255392 -0.07003659300311163 -1.4287679402638425
Ni 7.402175879492917 2.999201668418916 0.11147540857213575 -1.2081942856087065 -0.23001885922843612 -0.7873103545331602
Ni 1.3723775957540258 7.932154445071176 9.602303361345227 1.1850412445310108 -0.4869124313605292 -1.0990100758718555
Ni 6.253911876694314 2.53595910982865 2.4898051502695244 -0.7256401312168729 -0.444603386179673 -0.27837719592716575
Ni 8.930466146806625 4.324674535979845 9.598430493879741 -1.224434915837285 -1.4383756385569355 -0.24923939802094497
Ni 2.9386549248036613 8.18299357025296 7.925441474797667 0.570349871150579 0.5228060599333447 -1.8079753175362088
P 3.0994018139089126 0.9371881480721437 3.57305991393827 -0.020366222361177827 -0.303531069484974 0.769924554956545
Ni 5.272410067787778 7.61411237143393 1.313976036174618 0.5227263557353449 0.35286771093657293 -0.31015166012528517
P 6.547279298276045 1.6705059891609402 6.344004112770845 0.5082196774787376 1.1688358384157418 0.12993121247621492
Ni 3.8422782215082676 3.884852296483458 6.42638906791961 -0.6437283840427301 0.8637500228491382 0.4155347509484908
P 1.0187564134385891 1.1141314970980642 7.743424944063413 -0.68237386432907 -0.27440869819772096 -0.4099348882632101
P 6.626952330627466 5.92793179811008 2.5685992339762964 0.2743040542990566 0.08325514857591469 -1.0329229544347953
P 3.459761602499992 4.72886273250775 8.646968586047098 -0.23480676753538268 0.291512190647227 -1.3900766943412317
Ni 6.628417245035214 3.621854381717362 10.154329804331605 0.11477430223011846 -1.0456224042793347 1.3590303665583887
