# total energy = -340861.367633056 ev
CRYSTAL
PRIMVEC
9.35565441282421 0.00000000000000 0.00000000000000

0.00000000000000 9.35565441282421 0.00000000000000

0.00000000000000 0.00000000000000 13.69294591720517

PRIMCOORD
 96 1
Ni 5.600379045790775 5.277861564687842 6.472861198162556 -1.2729020101997368 0.4621794473902234 -2.147557624217785
Ni 0.8520147867984661 0.4822549922160751 5.452119987309118 0.07445143424135564 1.002888355745918 -2.3117675553712123
Ni 4.5701717836107925 7.1122247625485455 3.6894819154564686 -1.4217758252167256 0.41251164785145084 -0.7921499420136486
Ni 1.757010645609403 1.060014377742711 8.822625536929602 2.5352591550040917 0.6048718161868486 -1.061560672776146
Ni 5.082740032303577 3.668408303464929 8.01942481358377 -1.7180705248542605 -0.7057413354104168 -2.1062950180235727
Ni 5.984213487156772 2.034087712309268 9.317242155571611 1.222753928590436 -1.328799849808621 0.38823760579543465
Ni 0.2886995964122248 1.0433613125507282 0.9965839751050009 -0.10491874959227737 1.1321569949374695 0.41430679207866067
Ni 8.446696623702493 8.358809604369075 3.365562021728661 -0.29668216488394067 1.2791055679072874 -0.058381268152370415
Ni 7.731578452871268 3.386148204115424 7.91448150034501 0.4846354624008944 -0.39616174573851776 -0.5936828894495647
Ni 7.142873887025475 8.50814456312999 12.063773257061326 0.5340309821148868 0.16804190330500737 0.37592484986635255
Ni 2.8375045512764117 0.19628724694770364 12.83565779775709 0.05472541656733801 0.210671822160392 1.040416691708679
Ni 2.5391901486294675 3.400247175600996 8.003033706720649 1.5999841275317734 0.28959517613017216 -0.00029850507702529236
Ni 3.436023198799952 6.935038020036769 0.024203078455988358 2.5316117880594917 0.7054029782343917 -1.6141367648830716
Ni 7.841338992664718 0.20782183350680225 5.730484392082251 -1.0814620396857633 1.2483472036785082 -0.8661285503836438
Ni 2.0358278640652845 4.932282394990395 4.068050994412327 -0.5404250585666887 -3.575281696598146 -1.6354944046232414
Ni 6.635413825745512 6.601649268286037 -0.03612779581200025 -0.8719220171369693 -0.5240034226755557 0.6622801789029884
Ni 0.7481894742846754 6.611753375256454 2.972026702105604 -0.2334746789875205 0.7695049509206232 -3.19480779390853
Ni 3.3493711258740286 1.6353216461981002 3.3977538936495 -0.03213493286133176 -0.030317420036618758 0.15885638015099737
Ni 8.097141300799095 2.7182854446800992 1.6132067498493312 -0.3096641789659054 0.6555796269543613 0.40933479278536594
Ni 1.655922797632227 2.9281047104444795 5.414272622181226 1.5458042990552603 -0.16713404677875732 0.5036600831325132
Ni 0.2212191308972063 2.6273110593279423 9.554937529788818 -1.058143933785113 -0.598130383697957 1.099736669625235
Ni 5.182929737438938 4.826179916146419 3.5434055311935135 -0.8714530479203508 -0.7512182367962933 0.06157046451362945
Ni 5.90484011351139 1.7492735192533526 6.692687272089489 0.1781136857187126 -0.3254283837786976 0.35200999092196794
Ni 5.288545722243597 7.6662292054746395 5.733606374023018 -1.231197431372099 0.5831236258764796 2.304522957993657
P 7.488537257614342 0.5200471589818134 1.5520684825891695 1.0608695602463925 -0.9721397617091515 -0.4213097057590551
P 3.6167463787513734 2.999974849098868 12.66656369647625 -0.23997417066893512 0.874834305687758 0.325107252993853
P 0.21854622037734706 2.718930984847654 13.122005382602312 -1.1437935507351333 0.1845722968598628 1.2070732846303855
P 1.7107750005651454 7.567162178891547 0.9708802496508137 -2.4302493883599046 0.812359327081988 0.09589829126122193
P 2.7297461215678407 -0.45024929782182066 4.346031817346768 0.8270007311442467 -0.06664119416831749 1.2053501312916919
P 8.736263489296347 1.448189842844146 3.6590152262442825 0.21913692220860972 -1.0436904773639446 -1.1285625927179919
P 5.249298751187212 2.8170343790067163 2.515873050664311 -0.4615238160840955 -0.4056635145813659 0.6748567300164184
P 7.609010021927355 4.981689606944811 1.9928302110788612 -0.24043234125227625 -0.08451421779399639 -0.707709257770065
Ni 2.8390014560127694 6.1783152531893935 2.2366610235842153 0.8672168983518161 -1.175796328893975 -0.3777176801007172
Ni -0.1501610630622922 0.2284248560718496 7.598817971803677 0.6965912934800326 -0.18411412627652163 0.7814379549127832
Ni 1.4030768763521568 7.329725020741361 9.55560926578926 1.3559951792764906 -0.4092941693554177 0.09166008481015828
Ni 0.3305193724842263 5.053185519415109 6.249008450494819 -0.510911622488604 -0.07214566892631447 -1.8703397387060432
Ni 5.365711161402852 0.8148578689802197 1.5906961093108878 -0.47199360526716777 0.20575844401917467 0.05223376049373585
Ni 4.1766074614584685 1.8892715347212343 10.832640214381852 -0.8755660416474598 -1.8894191239349976 -0.2649709498235888
Ni 3.323820833155318 1.0481701190162782 6.602218092085852 0.39641834183401403 0.7707264820325501 -1.6328788213772651
Ni 1.685945093250807 7.459965088459109 12.149121151735699 -1.5982607170827636 -0.010144544633169626 0.061196626113978476
Ni 1.2749511865745147 5.1548721292868285 10.881126829923407 1.744376509738641 0.5973148297751971 -0.02010499827999118
Ni 5.628436653942885 1.1797948236151572 4.288192353899356 -0.37983935442941036 1.0193603852590123 -0.14430445047875148
Ni 5.879598557394552 3.3081781786603774 0.449907816428839 -0.29829167546290564 0.27190675771147366 0.6775746431682137
Ni 4.671559012535241 5.0845643849510145 12.80454743950827 -0.20415253298463548 -1.18457638907945 -1.1898654053925313
Ni 6.2373868563479204 3.3149703839016014 11.441785014402614 0.12112004194248818 0.36617702645096933 -0.05547489313885284
Ni 8.80000356410139 6.41462973278731 13.31341926906771 2.004292927857458 -3.159856988864958 -2.140906694560171
Ni 1.964107415884532 6.838543798469291 4.9264753401787855 0.6573454606055323 3.1864365391256992 2.0629161368173055
Ni 8.834423017383022 8.325868344514596 0.34849064940966434 0.14487317849802792 2.280279769175576 1.9368392650901742
Ni 7.023823182212003 5.6779748450617324 8.160543636473 2.5424903826452083 -2.2478057078072706 2.1339181790574795
Ni 5.163423197593273 1.4812340148992489 12.919924178759443 -0.9487113554828823 -0.9002527457608623 0.3738509980564594
Ni 4.652267652745427 9.048826553902497 11.495885958270973 0.1287284504173654 -0.8973340294521707 0.40664156222391906
Ni 1.5967295709638705 2.6927164406521844 11.55534020770273 1.2762791542020857 0.27222454606220853 -0.22185354980882435
Ni 9.051146756243853 4.531794888432414 3.675967672383537 -0.2446237536258045 0.03747717100985159 0.12886394755396516
Ni 7.0018280382421425 3.3186658674694853 3.758837254153776 -0.1770579907606886 -0.455884358410131 0.36298705875876197
Ni 3.541059133019272 8.434244247426916 1.850656070350499 0.4558388498841763 1.3365023606592015 0.20997531031399969
Ni 0.7096235948833322 5.134373890053326 8.478590050241522 0.5546702556317932 -0.6518489562673354 1.5984959730220212
P 5.866640975770453 4.534713852668313 9.61628255701569 1.4653033161857152 0.5894894201935074 3.0482536281636534
P 3.1273895091267403 5.894633094340348 9.266948027560904 -1.0306516419021152 -0.7189724893887101 0.04732449611757656
P 7.287493595866861 0.7666874745642194 8.091655144940344 -0.5148634080475004 -0.15261656988887265 -0.5041568202632737
P 8.769195393496222 6.884414572984062 11.076922905004494 0.2172782717333161 -0.39819034613277227 0.08624534155249017
P 9.005229203456071 6.605849957202441 4.6444285497542115 -1.0516889221883887 -0.017435164757311907 1.6676164819687667
P 2.058580816057926 3.2120301163131826 2.3890085031270503 -1.6011496085947845 -1.0261398700746909 1.820568066599555
P 3.7665678315516047 4.963651904871696 5.163802101604664 -0.10477579625650987 2.0008232241413024 1.3868695002578437
P 6.461015068305203 8.652811050244388 4.300242437027038 -0.13213207678227565 -1.5599926747405006 -0.8525713805244994
Ni 0.43792883627613416 0.5101488764126462 12.493662779337757 -0.11726698674498515 0.34241951902005546 -0.9186772710146373
Ni 8.47841229280408 7.574057296333396 8.92903301011361 -1.5672586122742944 0.21829000082728212 0.9057371659142014
Ni 2.9054920932708717 6.121068002678301 7.128150893377933 0.25059282672504585 -0.49514947455834085 -0.11425776760501612
Ni 3.7347305389401906 8.83219637158769 8.692392018170075 0.186900173662091 -1.4026108222525004 0.8646316541231431
Ni 0.41392129100133257 9.375488589994221 10.164670800484062 -2.424180813568322 -0.039562849894286704 1.1477427651908685
Ni 5.003441503895012 5.528209526189115 1.328214799355973 2.560534384631113 2.5171480472256778 0.8784353927754548
Ni 6.763895030398039 6.31294312291559 4.2866037637478955 1.7755027988298 0.01959540563342432 -0.12265550475040811
Ni 8.745198139441483 2.6359089059073986 5.355037295067159 -0.5645057536649762 0.055039091153014884 1.9686062730891256
Ni 2.6232226382667645 1.3584129812810752 1.0395236230328904 0.641126941864141 1.5955590018808843 0.5436926735743668
Ni 7.493654800681767 7.372246470908531 6.5383404891581565 1.6174025801185372 -0.14362722190606877 -0.2568678611004802
Ni 8.615285519634813 4.5393449016964205 10.343528462907797 -3.054781401979842 0.6613442973522804 0.6239146917509126
Ni 3.619440807276818 3.9475249028680817 1.363434161106096 -0.4322551490269652 -1.315035191924361 -1.7674958693649239
Ni 7.467150231193629 1.5781679522330314 12.97736696245172 1.2857248729960178 -0.07864104684267102 0.13866833523889668
Ni 6.2027802899742435 7.881877044056213 1.9765495009400476 0.5813374805103343 0.06132235305856536 1.2389315667915628
Ni 7.813926924680162 4.1462202953104015 13.104670290189825 0.9395263465495045 0.3841649783879577 0.02744755468799144
Ni 4.363954444868274 3.025543853126783 5.356351764538774 -0.025102451494582574 -0.9352115212242346 0.07800007082456245
Ni 3.573401630979207 3.850619032498106 10.155469514182762 -0.12468976157161753 2.8754119894771573 0.15595951821917658
Ni 1.9381267630541186 8.66829465861109 6.958385991662114 0.058522164605608884 -2.8825192899459005 0.8516722657489977
Ni 6.5476203629581144 6.075908257913302 11.438950251058136 0.1777503888420229 -0.465747881467772 -1.7601191172848785
Ni 6.061360215006822 8.23895431325981 9.99318071605959 0.44991502820057355 -0.7092542336596817 -2.0286847264382613
Ni 3.9933582547644435 6.781932732471153 11.025765250073999 -0.17600692378835495 -0.44578557941323227 0.11657098911922503
Ni 0.7043760082169371 4.442092872106161 1.2965683620984447 -0.7788545104563231 -0.046869410858028954 -0.4600544306274206
Ni 1.446459046742732 9.346280236326038 2.7390961627773165 -1.0930122064172079 -0.41244608472083805 0.16527642474472826
Ni 2.0286146543669594 5.306274687714838 13.113830411610877 -0.19995957794921046 -1.6098283673157052 0.3168036182241641
P 3.9681915438844246 1.5645928974051848 8.526131744668252 0.2536681232162599 1.5467077847061363 0.1443342752754224
P 0.6031627944680912 3.0094989054839454 7.55831453633421 -1.2652342092418338 -0.33390119713639915 -2.3634151043441745
P 5.784853843237693 7.18517080148219 7.972717643547559 -1.9727706888794605 3.192350076396657 -0.28818004095020044
P 2.4223006000291125 9.057938961485078 10.851605061826048 0.6489382103784437 -0.011396928983031986 -1.392312782760602
P 0.439734477614366 6.969092602788914 7.396805999804865 0.8744018461360296 1.0062729559474348 -0.9709781373008827
P 7.457439061716506 4.385809254019101 5.730046547446866 -0.1159986615555228 -0.03219046868961553 0.1720834203642327
P 7.686222239359621 1.6898838238383491 10.739952808672026 0.6716508214846111 -0.0982567641910695 0.560554482326712
P 5.318661574408201 8.324942134708976 13.72005811852666 -0.8539428069507293 0.7388699996435856 -0.7549872169204224
