# total energy = -340894.5200701975 ev
CRYSTAL
PRIMVEC
9.05350365384135 0.00000000000000 0.00000000000000
0.00000000000000 9.05350365384135 0.00000000000000
0.00000000000000 0.00000000000000 13.25071773957380
PRIMCOORD
 96 1
Ni 6.3910038612797395 1.845076834912457 11.512620535875387 -0.14429416606610634 0.3387040178416812 0.14373340846662988
Ni 4.372135974865153 0.3005853667911132 5.854219833264968 0.5746950354931522 0.04462046692285219 -0.16722583516161524
Ni 2.2872499415682195 1.530630554397143 4.758054232718372 1.0026212181274603 0.11730143952734637 -0.6220388148844384
Ni 3.1522759785979386 4.160456011582631 4.8144892462388205 1.166424657871088 0.3902476942469279 -0.9237140621075963
Ni 5.269971908260976 4.350317031641558 2.808383178234183 -0.939617363601414 0.01907758545674134 -0.4726176120044119
Ni 7.1858380863540505 5.958726233853599 2.6282401887379976 -0.946771458147692 0.7393783067385717 -0.33689524676771654
Ni 5.134096929049475 4.542812621193459 11.501013039150502 -0.5163916717665687 -0.4185457698606727 -0.2343992476843189
Ni 5.386943172347634 7.859771826860773 12.389911353977721 1.8425358291198979 0.3971475066905547 0.6604222997586432
Ni 1.9144357245539354 6.428068904249615 0.40646065709568213 0.1331062677700869 0.2985778392447567 -0.06600356058431858
Ni 2.7357514471091657 1.7395401456355075 0.30211993561949463 0.25734325807500197 -0.2255590236848696 -0.02086553059509955
Ni 0.43150445823473144 0.046104060776695426 4.815509576073384 0.016524737127900573 -0.6786082266390506 -0.3312971838546488
Ni 8.827202040986792 2.3605199446838028 1.2673447163142828 -0.7283798987455391 0.6306772072857267 1.1262444861077765
Ni 7.00211534160865 0.7187847964111578 4.591943268160879 -1.9513904234314714 0.10780686977334983 0.3704501999050265
Ni 0.7765443374808225 7.342608551441094 2.486232366315019 0.2802127064740077 -0.291152236204647 0.5823962607921519
Ni 7.489094236651787 3.909836930123892 4.021711977139779 0.6702655111013102 -0.13042537850381408 -0.426610292036362
Ni 7.586057258197307 3.810845923814021 12.611635273945826 0.8578925356270967 -0.8025585389414822 0.22958228591164975
Ni 7.860405572099633 9.075775030674356 6.788461714582251 0.6937898194754953 -1.0092171261774232 0.297962574258261
Ni 6.772074873406023 0.5871441407455806 0.30735557664281626 0.8289234020882564 0.20820047780176398 0.30910162159421606
Ni 2.0811288293808374 6.620881366420945 9.237074963518562 -0.06255545413471808 -1.1914178374813158 -0.7191043869808841
Ni -0.05116949593586616 4.919981573349049 1.5308152458667534 1.3256052541307235 -0.08629085007844493 -0.16380935328089852
Ni 6.3691849180561455 1.8508982376065533 6.833884951902342 -0.4700051140822293 0.5733359503620965 1.0529364214422448
Ni 3.3428793859366723 4.270628094606669 0.3638793144967049 0.22179878531148897 0.8790043779050475 -0.4903512818387491
Ni 5.786628187489566 5.458701240393367 5.1277893532221395 0.5761327963809433 1.2958925575576392 -0.5981180424027828
Ni 5.58612930092121 2.6780263093524677 9.388000486802639 -0.9819981425604701 -0.15327477229816183 -0.7587225155931384
P 0.15972552860081127 5.720220739960492 12.3546108388229 0.6600073237084118 -0.6409703616816187 0.8056199514756255
P 4.13043459426751 6.157550222290684 12.450347110656056 -1.7711710042236657 -0.03652020641322098 1.230965003646319
P 2.548995778720651 8.373621520031557 1.5398922883879056 -0.2995378891651809 -0.32121434569735 -0.6893171284161226
P 6.204438316462883 7.792504296507531 5.988979420856076 -0.24956335701926696 -0.06283030506265953 -0.7417874304006966
P 4.716422602627342 0.973487007908835 12.705396976684765 0.21792361862679888 0.9921689124458849 -0.9213897848497937
P 4.112445282987309 6.130869547734694 8.17489802548235 -0.7711234603606526 -0.21262200390822736 0.1651501835795091
P 4.728545243696385 1.236129141899082 3.7316006084463327 0.7163499641641985 -0.9650933963853314 1.3030574507371946
P -0.07847033547559695 5.80149404009253 3.8532824103584016 1.0310262516327147 -0.8701952642538497 -0.6574135948393065
Ni 1.4410732986428678 0.9643339159590198 2.3678369861416075 -0.3237427685461585 0.22912977175526344 0.9027284609948646
Ni 1.874609363043315 6.288237544046948 4.922641492651577 -0.08684672258191493 0.7128653480497077 -0.9309961975913063
Ni 6.055444810806988 5.710180404676273 9.171457886837379 0.12497181158841059 0.36248286542883373 1.146856248820857
Ni 8.523257824429724 2.449244278124148 10.282264813102316 0.21048516007088267 -0.8231613027934983 -0.0013305458859654503
Ni 2.3499545062016716 5.013640066149088 7.019845722691259 0.4880982241385143 1.0748959564324712 0.9505831185842983
Ni 0.5292904432404281 9.326738145262762 9.067121692112899 -0.27258475761510476 -0.3039067076568379 0.9305693944665328
Ni 1.5586511474581501 1.3882913737492746 11.401063266829272 -0.526273706766971 -0.7488533361085427 0.13099693473656793
Ni 4.059228789929927 6.748662513581867 1.6552791893774161 0.7715250666744454 0.2720119158307702 -0.47665527240889516
Ni 5.546339153424239 7.861890346659246 8.08879468127986 -0.2854348741048955 0.4917435342005853 0.13047345813293015
Ni 5.305796621263368 3.175434840326551 4.968170655961593 0.06445164271616642 -2.0527978174363803 -0.45362307317978007
Ni 0.635443676099754 7.431857988079352 7.160912886109703 0.22768455466830467 -0.009003746160507075 -0.5340690344416738
Ni 5.149741382945895 4.205868384698628 7.4882585982868335 0.20109086334017626 0.7305193136860451 -0.5987952709754655
Ni 8.698968218655256 7.1141886603492654 9.37713537735756 -1.5737390777923155 -0.07286634914242289 0.20700440061113382
Ni 4.614118014068577 0.2876995153844148 10.367295317150452 0.17884336479588553 0.9708153864707731 -0.13740669491765367
Ni 7.755602216599077 7.435262105362369 4.5299032306778875 0.26237079319658035 -0.24491094584892018 0.5949291031518399
Ni 7.295457905669939 6.127890945112054 7.036422687439145 0.6081767121903655 0.2302299467979777 0.11429324882864188
Ni 2.487078868884067 5.060863139947541 2.576893244135251 0.1424874518746707 1.1361316633145013 0.23911233688927208
Ni 2.321789057086068 5.426651838313895 11.417003770287273 0.32285316685235366 -0.8761663942356201 -0.1424475997756708
Ni 0.9407404860666178 3.574866357372939 3.6846274113420585 -0.5295554628420364 -0.5662481902773796 0.2744189826103661
Ni 3.4982918255118736 2.4746846227126555 2.557851915758543 0.7203516291244239 0.8533820493512528 0.3007007991250305
Ni 1.1174014981504403 3.212056261629224 8.102786870803538 -0.7529647871737549 1.0636250115043424 1.3240191405905262
Ni 3.7326598683455696 2.579868225356526 6.720975994796773 -0.5394246423266322 -0.7972181005651754 0.5677067771007771
Ni 4.056060063735629 6.822602475949959 6.035410313105954 -0.11691191739841154 0.5714387333393836 0.16865511140897407
Ni 1.0148524649995432 7.5147971328392495 11.374640617120532 -1.6530354988307983 -0.6601695603178889 1.18969879790768
P 0.32299188238616533 5.447148970039298 8.090914106428674 0.3335006192638708 0.3856176516740843 -0.13188576509942448
P 8.45593597305601 1.810492451877547 7.963893453554383 -0.6692542962279764 -0.5823929183580422 0.6154400786209981
P 1.8554974173399914 3.255458756987695 10.4579697752258 0.07667620980681635 1.3059486562420608 -0.5254486397625144
P 4.143200034078825 6.015029971574569 3.7920508507301274 -0.9036604858908308 0.4331136403725186 0.13722466081383464
P 6.897302932604683 3.958544778481959 10.532769820418059 0.7055191920972816 -0.058435775539389674 -0.9796280996663966
P 6.656787560954049 7.6620252053297495 10.28969864475414 -1.4338062740186985 0.12375439424154171 -0.7063825685388415
P 2.238795591305696 8.279338335496071 5.885505119656443 -0.02910874444049825 0.7557359221609888 -0.5963462952143407
P 7.023028934491017 3.9896707232133783 1.4967215627167891 -0.5481275694172689 -0.19446153094911672 0.3923125471957566
Ni 5.189422888401919 2.9149474401484268 0.5140162776335703 0.6316825086217895 -0.5848956301752378 -0.40877480651683795
Ni 1.449284826237806 1.1037126009910727 7.0841382718232255 -0.19839840410967766 -0.13140548302889626 -1.492791751413971
Ni 6.959781159652827 0.5324365356761954 9.264622963701449 -0.018516056526316497 0.37285803801557077 -0.6694311881254729
Ni 2.8753564697265253 1.6883154233288264 9.153423308040118 -0.30216735636822795 0.053871296097158836 0.1050807290914384
Ni 6.484173464895515 2.1324440867216414 2.471841822641199 0.2902340952657517 -0.9577055885616925 0.6182685492087288
Ni 4.201033813876471 7.1000380345158725 10.418137981613134 -0.1601946393464467 -1.4823577005648405 -0.8454921050802149
Ni 8.339507919174086 7.199680893071427 0.4836924733044791 -0.17100638524997003 -0.15635521099569846 -0.4283738116946881
Ni 7.591118166604772 4.034395030070042 8.355743566843326 0.8311553767425687 -0.9950979131672216 -0.04003336177280202
Ni 3.0791417780335393 8.598103137139043 12.363316687704149 0.045081979940303 -0.5685387860837692 0.12106322056262378
Ni 0.10738541467373729 4.764324689181716 10.246329647358293 0.6057094815967955 0.18090076154554652 0.1609795971415873
Ni 8.56684138985644 2.3414170524838918 5.698073154563031 0.7126342058755082 0.1910198522574194 0.4494000362373679
Ni 3.8447241335827735 2.65465016354196 11.312270126762993 -0.4070899626152473 -0.6848719481605753 0.619048879018179
Ni 1.0644928242090752 3.6815347345764238 12.763488781329661 -0.1432549261683146 -0.3767306335970996 -0.7509714108928099
Ni 2.957091498532591 8.505431476210944 7.947780028181207 0.8898981419994159 -0.3829534745783598 0.48081788842701706
Ni 5.566465091509738 7.802091956621136 3.4143785237848134 0.04534089002864449 0.3406778537386004 0.6655519076757247
Ni 3.0921426089335737 8.390379554847687 3.7884593259264756 0.2444383770878758 -0.23416527729664188 -0.4467677408208435
Ni 3.6029503249578316 4.420472629583317 9.47305724601067 -0.17859782444398273 -0.6215212518180715 -0.25191925884595323
Ni 7.235415071039697 5.936916344133417 11.455642312150202 0.3525013287360897 0.9594832492874055 0.07317642418367397
Ni 0.8890187264226025 -0.12644575540761066 0.05778217482819558 -0.5033538647460041 0.5684678236365177 0.9108063529069927
Ni 4.664383065013557 0.36299931396503127 1.6032179233554404 -0.5706154661071398 -0.4642743822460391 0.346443552577784
Ni 5.9570784962325645 5.483815658859033 0.30107244527469385 0.05217231112818111 1.258954546880709 0.979560736763571
Ni 8.01489455432678 8.98224328692209 11.372998311601544 0.7218235856842601 -0.3868525525224499 0.22453623884731008
Ni 0.12452279128284237 4.81822019499502 5.776610485963879 -0.5128510056031619 -0.2945728318504217 1.1613058485872838
Ni 8.035862468229622 8.933662187611795 2.4468776923321784 -0.10331900920532529 -0.009190151139700302 -0.34226191039626863
P 8.578619997795817 1.7295812918819993 3.5302027089891372 0.09954411554392534 0.25154182090187643 -0.4243505494679079
P 1.7836850282737855 3.289309806246211 1.6187872331735385 -0.8121757503162723 -0.08759028561615882 -0.7902267568490068
P 4.683114763573564 0.9303923316663816 8.14259240925631 0.7807663827670553 0.8041544226736925 -0.40522976947805694
P 8.655638151324084 1.590347462904543 12.592302422759243 -0.4715516326337427 0.10566282684715353 -1.3323163476023119
P 6.455066451425035 7.721905076898571 1.3300139722844273 -1.2078312458423328 -0.36468115863173317 0.485304463443461
P 1.7448454986351036 3.174683399543332 5.997526833427609 -1.0015979190692685 -0.5621812192968576 0.06423952670536033
P 6.981301337263818 3.964963712401266 6.228115038586678 -0.18407273151562492 0.09659428888698203 -0.7485214066904206
P 2.264969269670598 8.576619173541703 10.211917280888217 2.208616696312635 1.5132600465706518 -1.12677156225584
