# total energy = -340867.17488754936 ev
CRYSTAL
PRIMVEC
9.32011497328866 0.00000000000000 0.00000000000000

0.00000000000000 9.32011497328866 0.00000000000000

0.00000000000000 0.00000000000000 13.64093035506550

PRIMCOORD
 96 1
Ni 2.262961217252701 7.492664180238631 4.650479248214115 0.10536200777728305 1.0686021530039598 -0.33426346557182435
Ni 4.652340475191782 8.841275509439338 9.517386480326993 -0.25035062880725273 0.004788679637894979 0.07588482425377253
Ni 2.8185239559193467 1.68193592423961 12.660652137325638 0.02786818716517781 2.0991864320032496 1.0091981000140295
Ni 2.675572031114888 7.53499614284535 10.063855582728696 -0.1119013515576976 0.09283147941044012 0.3026635792783562
Ni 6.001371209570231 5.386653700611898 5.602480537089231 1.2626116840173223 -1.3894539731555684 -0.23777999123109372
Ni 6.98665649335092 3.0029969933202247 5.44372728921048 -0.4198508618253414 0.515496413645809 0.28020987826053034
Ni 1.139803471375756 3.064929157900068 11.31395143171242 0.04046916375863999 0.9071849541043214 -1.2356528960402913
Ni 6.812668585393582 3.257091290226208 11.769953905263753 0.17493683065262777 -1.0020872000008614 -1.7428413040410369
Ni 4.101530995206208 1.6995229813595742 1.9541037882717378 0.07669137931546792 2.029264253090815 -0.45655593055585886
Ni 0.19648573370290326 8.503505219516375 5.540373154346242 0.10527947536580577 0.1492114008620656 1.3355487384966804
Ni 3.5366947420539416 1.850667287302586 8.19731241143133 -1.8484820194010034 1.1699460407607851 -1.5554017129357083
Ni 4.7343015670375515 8.770479915436557 4.909807721738313 0.213225184709865 0.38111076494266627 -1.7703706198095572
Ni 3.4177141531861803 7.523495120860169 0.4161207691941307 -0.3271399671531656 -1.6109845924073352 0.4830380360067874
Ni 0.6757083419170229 7.5301776433588525 8.648404116357062 -0.8323283140047472 -0.15671387988669785 -0.4604426672047747
Ni 4.815675491634482 4.506229031381669 12.364698407646523 -0.15970895795927978 2.460233336316505 -0.595502973377439
Ni 7.839959627753859 8.331381334571223 3.4169033031758795 0.3225448915833155 0.18597071986928618 0.223744339073634
Ni 8.624191389440286 0.5476760573020915 1.4610119168354567 0.6257414605470062 -0.5028843813087533 0.0767865101324355
Ni 8.652850743252628 9.168010783130168 12.473784762365607 2.038919516792392 -1.8567915677079634 -0.8646781910903625
Ni 2.0714608130958867 9.37734056739853 8.165569963556834 1.8677838050534092 -0.7364490489069189 -0.00935984394834517
Ni 0.14961580707302027 5.724153707198094 10.899963104844227 -0.13160757173737334 1.2855929754038442 -1.3976681335352446
Ni 0.9097643914420188 5.01356017460803 8.736824979951558 1.0081722298526767 -0.3379892511628437 -0.09724914886216154
Ni 5.40421279738668 6.581007805439244 3.6966512167870578 1.154401665268283 0.40901109089736004 0.5166899197332779
Ni 0.9601489334613763 7.532694074425302 1.490394511576527 -0.02125942359940855 0.04286826011843585 -0.5366082559237597
Ni 8.412997582159738 3.714839421328452 9.608303270734806 -0.24806208988339212 -0.62956391961689 1.1038038977160733
P 4.352829257593913 8.065040406475184 2.5458891541226665 2.1233648290216656 -0.11336379503583702 -0.3485145761741998
P 1.700799837122921 3.5282227574635616 13.435266472280698 -0.3407372462216261 0.9966973964438576 0.30974285472264074
P 6.6581037972232116 8.290493989798946 8.000487425540209 0.21774338429519274 0.46729105758517586 1.200235692883262
P 8.41907429717946 1.8461377113829769 10.81717625080406 -0.2707926987116885 1.2180308120831538 3.152760229919177
P 3.389800408578711 6.409983694071281 8.222016308411817 -0.3835435427538749 0.6179435617691421 -0.4098888655166231
P 1.436509334340286 0.30911652817965696 0.35435077461634773 -0.5957503135015546 -0.6211006193408851 -0.004935232518088275
P 1.2373291553732695 5.740333426943859 2.804466426372955 -0.8858723086694743 -1.233658491318082 0.23186388285697487
P -0.1562731652610386 3.6511923555773986 5.771368478085231 0.32916805332678795 -0.3141785218964912 0.4500744365965733
Ni 4.058462743509676 6.534966437038278 5.869146737200896 -1.0424175241887916 -0.7052109168282434 0.06686179481955581
Ni 2.913756891611873 1.0889529236033524 10.347600893689503 -0.5791037060838091 -1.3483610597700004 -0.12239196667637633
Ni 5.9233152459349885 4.485529055831355 9.433753359839294 -0.3535603661282233 -0.23710224843777875 0.48692065889064523
Ni 2.5808703419808343 8.802308108369614 12.310734941443771 -0.9605973082871908 -1.8898006756441321 -1.533926830891384
Ni 7.65910279499662 4.421108420530246 7.320146054426401 0.41086614182822784 -0.22707057523338958 -0.7335971812804205
Ni 0.668349179064917 2.583116489710517 7.916214013147824 -0.45108488013895864 0.6377485123102113 1.5565561382551256
Ni 8.627099265339295 1.3802904002927898 5.2421415885462395 -0.1658394963370499 0.5073347037706231 1.7706997210142021
Ni 5.319381110102144 2.6297263851302004 13.316453645484032 -1.0201851951531526 -2.3295086814047172 1.632992464136994
Ni 2.9694632193310184 3.8202126422072635 2.872794053907604 0.5778256107023338 -0.8816019634288945 -0.40529276150550847
Ni 7.75559394622237 5.946056326683644 9.004391503178109 0.398167720424953 1.7214834071905514 0.4667213011246349
Ni 4.372494700372464 0.19315099653410447 13.890013526333323 1.877627016396076 0.56825647895666 -0.8375062586612608
Ni 5.398965572607379 1.553476778354888 9.204095472611549 2.938759857606184 -0.6558177111070963 -0.6409083980954317
Ni 0.4441854996655864 2.980638037289067 3.765947204276537 0.46511950385515377 -0.11976584190743889 -0.7301002238707555
Ni 2.1137927757026054 4.770696616350461 4.8265707061407035 -0.32451847036991854 0.2339999553633712 0.1426993107751607
Ni 1.528060824583747 6.160689256421674 6.594994502111174 0.9053425015789441 0.7001497002552522 0.4614227717298569
Ni 1.314015062094556 6.174799910623913 12.877038180706627 0.1688003787375867 0.18111879109362358 0.12325534311793612
Ni 6.847814739288329 4.501494412930719 0.43835390367196597 -0.7744468683069308 -0.2612629048443823 0.8193730393956598
Ni 3.63386626167914 5.280637391793882 10.23053372444375 -1.7249453975972229 -2.139359147567393 -0.517223937859877
Ni 5.612442808077853 6.408101030828973 7.784837671249033 0.08597331883802613 -0.6821892591220896 -0.1381500008415814
Ni 7.392305181262596 3.52861420229612 3.013444842303521 0.511493463134003 0.8503412056424 -0.36008968260630886
Ni 5.236543927440648 6.783086540190209 10.106237873956742 1.5556017447616564 -0.13360249068021507 1.0184887812873362
Ni 2.7458922992495625 9.21068758999414 2.203296636667181 -2.5230158188603644 0.3707368779075099 -0.084925337189486
Ni 6.679586662438643 0.4439646129386425 10.915240637452095 -0.5056989679394129 -0.031994807739041675 0.181177669356017
Ni 9.385635469802754 2.0773604459294517 13.100353729635412 -1.163821415920286 -0.47998870765750234 0.5921116883077029
P 6.013990645362723 3.0351047897051098 7.877596116392884 0.08804819908918383 -0.6153135803454629 -2.4255720374888936
P 7.027245594441246 2.034618398260052 1.5597725160785425 -0.06453648912048886 0.03320811132085249 -1.3291731739876398
P 4.255974621880786 4.02886205807618 5.085762173973507 -0.35085222316844095 0.44344407576424916 -0.28429433274254906
P 7.499672906764446 5.49848576122793 3.863479412354593 -2.077713092620822 0.19813820846975555 1.7660763633095777
P 4.673515776610202 0.7030088229534829 11.640515215286127 -0.19562752623275986 0.05028640695937791 0.858080997488819
P 6.709886356501708 0.5624018390983522 4.537532501836796 -1.091230946147069 0.22618354464274595 0.05893379822173076
P 8.816968649360447 6.398519952546344 7.119106512504731 -0.5721131336985888 0.25676784518750617 -0.8200137583034522
P 3.6140796574047975 6.393552331218872 12.142597269710176 -0.1482966023572801 0.791812870389204 0.18387732767536719
Ni 6.031857305934515 0.27643274868400713 2.3447396348432767 -0.1288814310554619 -0.25642023204010034 0.5095954747803416
Ni 6.951407818190504 0.9867112613850111 13.134319956963445 -1.207533769206572 0.6099417745105883 1.9820729401169932
Ni 7.6614701042220945 7.716132579054417 10.639216109807757 0.4626849262717322 -0.8887923105297467 -0.18647799852300787
Ni 3.8011623270227344 4.42396969585395 7.384067131560245 0.23589820082734853 -0.671244844295444 0.012195256514611256
Ni 3.139806962299535 1.201493312964015 4.155572750375471 -0.7858679656596789 0.6593254671500387 0.12545646453431297
Ni 6.669101532995103 0.829445503869984 6.742888883932442 -0.4005814720727682 -0.16032525138704 0.5338345498333645
Ni 4.633784126105481 8.497558986107506 7.125148743098728 -0.9623328029210588 0.6917460495725893 1.3262775976074
Ni 5.818221628508004 7.470034940870706 12.405976265239852 -1.318848137912548 -0.7239460313439017 -1.3627247846908404
Ni 2.9145863818522955 5.1775755594501796 0.7157596723683336 0.20228282676574838 -0.9982238603907132 -1.0556152538259884
Ni 3.253903810875372 6.251765420797027 2.723739317761251 -0.1920575494933144 0.40620241780397137 0.9480300131451416
Ni 8.564887497307623 4.407948418064221 12.538183961402076 1.620145690081313 0.9000588845825014 0.6533633360293328
Ni 6.919663506292996 7.755454144496457 5.860839718647094 0.38733823390961675 -0.45000913057627656 -0.527783201432962
Ni 0.723154251657671 0.942794879217935 9.890602099838159 -0.5925017246572699 -0.9363003834130391 -0.42051060689652736
Ni 5.390950273654983 2.545901270272246 3.7290619169114225 -0.790363025316555 -0.7072012077853949 0.14356757231272696
Ni 5.297637281665009 6.094572360179476 1.3784571336603062 -0.1659603381856303 -0.1530955664078202 -0.700355131397839
Ni 9.264240971134212 6.5940373262944165 4.379066313501922 0.6644748725614621 -1.2047407798424672 0.03268052095215662
Ni 1.5999282318185357 2.2812006824269306 5.922386962474921 1.3564718618025928 -0.42124157152528097 -1.0895810692484718
Ni 4.640643730790321 2.0804920045899222 6.03933110620187 -0.3560052281242901 0.05670362333963138 0.41578106263134207
Ni 1.596666191547212 2.135303601263219 1.5180855054340396 0.021387721647156712 0.10821798916883943 0.6303421925438111
Ni -0.21306994644231222 4.013306786039497 1.2526803168901184 1.1817054952895585 -0.07472782783119387 0.2241076359503237
Ni 7.723877594670045 1.3381355198722287 8.957466587869366 0.7185089194887303 -0.5880640006008905 -2.4969607736445254
Ni 8.195251733991359 6.252371228275987 2.0448845049996605 0.1899325327305116 -0.2801543424322465 0.14916692077737537
Ni 6.72160174113329 7.927512788636183 0.6734528740722793 1.5956708448684003 0.5728682666970586 1.3698259145119958
Ni 4.373091187736363 2.749228900441374 10.577354778102377 -0.09598776565123468 2.931158133999526 2.6030689155592137
P 2.4532966070269007 3.352314905803673 9.574446088752985 -0.11609790613754843 -0.04286594612559069 -1.0283849573551258
P 7.069214072560589 5.449611077848442 11.1846357672536 -0.045170425889051236 0.45449750536493344 -0.2010985766496601
P 0.3238702703211004 0.4777779903796764 3.7223505020560506 1.204146597901894 -0.5867164854340604 -2.316431536505785
P 9.54994909832685 0.503441859211438 7.372636010438022 -1.816857450517187 0.7189110400231554 -0.022167280125658596
P 0.565363771664714 8.128538350385263 10.684381387392998 0.0318143162971194 -0.322975808473147 1.5093442564560133
P 4.695194364241913 3.9313922947690316 1.2390300763718882 -0.4977596584876782 0.39128050638681644 0.6700207420803557
P 8.542845425188537 6.6974160425501905 13.685263646605897 0.300959709213372 0.18244985120022125 -1.156361617208131
P 2.856084019614873 0.18132097448727308 6.1227862124919055 0.5384679348403179 0.15458089270409506 -1.1918934915661537
