# total energy = -340865.58403739415 ev
CRYSTAL
PRIMVEC
9.33379341590056 0.00000000000000 0.00000000000000
0.00000000000000 9.33379341590056 0.00000000000000
0.00000000000000 0.00000000000000 13.66095013846470
PRIMCOORD
 96 1
Ni 4.628189376164054 0.5492517297163915 9.906360778619417 0.602177300073821 -0.4155095541375103 0.19778031090970452
Ni 3.299178559039077 3.2435491513679775 11.369284460643392 -1.4640483607326915 0.049243824627476486 -0.09198250114658352
Ni 5.733450501897823 4.698556843350701 7.038025448337742 1.5027961709248505 0.39517084258015817 -1.6562380649284958
Ni 2.516717338489421 7.816249126759433 0.4578645601681135 -0.4738877369660871 0.5659010913506061 2.0375504043590067
Ni 8.63992837822781 5.366035065058029 9.12505041477544 -0.6774355464871882 -0.9941651169403072 -1.8229008284977897
Ni 5.178211143822201 2.935113953970077 5.038349852495553 0.5143188483979401 0.023578301540572295 1.029083268973731
Ni 3.1364252064281772 0.9091898647969029 0.3204972583934311 -0.4934720868559179 -0.9774521750610005 0.37987534987366833
Ni 2.130064953795578 8.583104245022835 10.557278050992712 0.21739911358189656 0.9169322632990724 1.3007856239838824
Ni 2.2992586237375283 5.303778664191213 1.0154037648964462 -0.3383625753418624 -1.3181004611132459 -0.1454485913855237
Ni 6.038637539250498 0.4350005002635622 7.515434971536608 2.0174898861637063 -0.4479782161891769 1.126977764729375
Ni 2.5446440478437715 8.281762730482322 6.41488181110977 0.12822759952154691 1.7281916724486626 0.367923833938747
Ni 3.4787980760227417 4.5898554873544555 3.9013211614918872 0.3638833453207862 -0.5874209677002529 -0.08056808866205478
Ni 9.24087532176742 4.925452023061568 13.653681818794693 -0.7773475868934935 0.6084888441141456 -0.28773266900013666
Ni 2.1304943082843146 4.9860470087328395 12.535096703220235 -2.0384081243736123 0.9370904834145022 -3.4082240115832785
Ni 6.454336688486699 4.168313383554142 12.019040609138454 0.8660940976012825 2.30236503111039 0.8448321028987127
Ni 3.2760494194066974 7.894690325092976 8.739947439758343 0.0437815159613246 1.3057645652557124 0.5981031300044474
Ni 2.760618689471552 2.5518964051861275 2.4528648589796904 -0.016017201363862737 -0.012758070996616737 -0.054301955876674225
Ni 8.00941197772477 4.360944208305174 6.354227089161804 1.4035179074478021 0.359794005742761 0.15815806853239214
Ni 2.6453556768322217 6.23685930614834 5.372606055494348 -0.48403588114368246 -1.2593985763966633 0.2562685369535844
Ni 2.194160111929377 6.626227824673105 2.7056743822237848 0.3500119866553327 1.0936166727704262 2.2668005037422185
Ni 5.39604321030343 2.170274935045091 0.9979225035496 -0.44352866505825544 -0.513877132874831 -0.5097235157177737
Ni 2.96935030755021 2.5620609060173067 8.633611266967442 -0.45735117276364456 -1.0628369683854082 0.9153116969765139
Ni 2.1973709368016685 5.866979747894929 7.930127004482926 1.255000704439284 -0.449548131779458 0.05701986902846953
Ni 4.34884761227468 6.896263796708773 7.054528528153728 1.8224971653014679 -1.1365381547243008 -2.1139934151090944
P 7.749437834794713 7.20636040930222 4.22770897679492 0.27287143561758814 0.07676876952062263 0.22612723748351377
P 5.19136245848807 6.803009868513814 9.044477378067386 -0.2686432564688535 0.679664435817707 1.3936726392226062
P 2.7154897991880342 7.118865431532272 12.236003699469652 0.5338538331070741 -0.510793865963817 -1.35590621910711
P 4.038181638293995 4.042316508696395 1.2755076475524472 0.775381207195742 -0.02298643359284428 0.06356641189773568
P 6.828005766792875 1.023833113565535 10.183554836685783 -1.162929500233636 0.2661418302032384 -0.38971984676791593
P 0.9162368786881243 0.7446089554709019 1.0264344417396853 0.6393947896643827 0.49206235099258483 -0.08381076396906856
P 2.24552397609281 4.446581761221673 9.785461088246434 0.2546626259190453 0.026361777822980405 0.23430385975703516
P 0.18897757807947746 5.856068543605077 7.2713273437240185 -0.7026351856812674 0.7928991614748474 -1.766029312121726
Ni 8.0046144080028 6.029425085329127 1.9872989860146937 -0.958704462139852 -0.24030789985927 0.33061969817164993
Ni 0.21901745822187124 5.772811107963095 4.5171163033071995 0.7604451547112 0.14335031409559829 0.21266648399291763
Ni 3.6884350720450403 3.888280918965495 6.844026289498693 -1.94786801210051 0.2427774444456851 -1.8186582511713516
Ni 4.404971710987151 8.644483269325713 12.613756312315441 -1.5416797353639256 0.25860129885181915 -0.2353410427722979
Ni 2.5161013081360157 3.069081888249153 0.07121590899156427 0.166547578147668 -0.34228556454535247 -0.408804888423825
Ni 6.03151585501341 4.694683319158838 0.8700318020447946 0.7230209484264709 1.2806757406078846 -1.6186351669740575
Ni 7.8155117570939945 2.5658877612430033 8.479979830483549 -1.8854298002699463 0.6952926292732671 0.10147527112836716
Ni 8.771749540063203 5.173992269280702 11.249628031529099 -0.3390922544190354 -0.5694304446601032 2.394579959982753
Ni 6.638921783470536 8.007610555630723 2.342046598678108 2.47532391210104 0.07833585689742638 1.88378917934273
Ni 5.645563504812071 3.7369334616858176 2.9225413344846793 -1.0186268495270974 -0.18139647023504243 -0.19678477976565464
Ni 5.9618297547328 7.513283532196308 0.09943196593615053 -0.2008126699781251 -1.8600141884103192 1.0248232081457962
Ni 7.5653940998184135 4.7655174760071555 3.944926776719713 -1.286624759102468 -0.3711647094735479 0.1683643196414326
Ni 7.578190730341413 2.9888206002350954 1.5168431387747157 -0.28467768422389683 1.422528387112034 -0.5514653755412503
Ni 0.5067633695386041 7.218485006712414 12.501175831851391 0.426454226074472 -0.3401278947724013 -0.5521521171956296
Ni 7.235808526953615 2.1227659274870545 12.784627264901436 -0.7297459258551303 -0.5561506968320615 1.1820399958108416
Ni 8.260248337079322 0.7977630411765022 1.9267674701374091 -0.5675000604066097 0.4886666950474745 -0.16321799955380276
Ni 5.336633616372801 2.797067152048003 10.727848455436591 1.2194084091569708 -1.3892050903695559 -1.6958975883016472
Ni 3.6316856091859315 6.106643556749094 10.553985088739967 -1.1313550678614643 0.597736490693648 0.188519711543385
Ni 2.8212790116954576 0.07483462062815575 2.8494007973283866 -1.162961381912836 0.10510644012305123 -0.02262982158437393
Ni 9.036110565812962 0.5680051870809507 12.600628332132654 1.0987624786374237 -0.2752903294717259 -0.014896457495858216
Ni 8.299795619009263 8.078631388343709 0.36037308984518807 -0.00022805685040605883 -0.15340487011812287 0.6398177361344142
Ni 8.374867317985547 2.326335957907639 10.630431655459534 0.7263636396464587 1.0937146318008713 0.5391937572627488
Ni 4.7057531979336575 0.3792674874875718 5.632477526698837 -0.4997131826696233 -0.1258786396733961 -0.12013325254918665
Ni 6.943128772533704 6.503469776067349 7.958705212604968 0.754122812037598 0.06158949067702296 -0.7766256211258044
P 7.189680920794123 2.3762810854995946 3.5097031987978724 1.0226616817181031 -0.7079946502209677 0.8368102610355007
P 8.435676980901187 9.25051713017753 7.406762550299386 -0.9712352476170113 -1.2501071237924084 0.09272040775387257
P 7.253318723059485 6.200102828395187 12.763234210810467 0.8016226573907742 -1.1694973832591409 -0.3055391010539383
P 5.250725383452532 5.675020956256701 5.017038935785041 -0.6066263369841101 -0.3473925467546146 1.1693490306067345
P 6.8154891500668775 4.402544924746464 9.830296897422421 -0.3448610385820125 -0.8874337396193233 -0.23789697642493224
P 9.242452732823867 8.260808364673327 10.545297193998314 -0.3984752243630428 0.7206923002932942 0.24855574169035904
P 1.9003696361146905 2.0601641762706007 6.633510983533132 1.0975023809780777 0.016295394725913872 0.2636738282787201
P 1.8715935515760997 7.980057198005707 4.30385499537237 -0.05376613797786224 1.0307873961490313 1.0415952853978125
Ni 5.637993798499781 7.144486693957972 11.351470916257437 0.2709469649013656 -1.9968066467827417 -0.6793049955957592
Ni 1.2819124964692101 1.45102216227206 10.966190599168906 0.7891309526816668 0.9759329102029967 0.5314408527902073
Ni 5.14121198744498 6.158996802995268 2.954535710930148 1.210728621994786 -1.18999036100617 -2.2363303601778193
Ni 5.266620833329023 2.5338261814862535 8.048635377029512 0.2472452504090516 0.2858472790519658 0.7212728553871127
Ni 4.602269432354886 8.377256769053298 1.863995843884107 -2.1528268430365243 -0.08717685222782405 -1.686117883207064
Ni 0.14428364256063628 3.0436939706542887 4.224839768754972 -1.316962747964377 -0.2077777884420486 0.3617598712198802
Ni 9.303645081262076 8.556082913612125 3.142482838236657 1.3204689613454226 -2.1684740626554784 -0.189825317728686
Ni 0.8139963743680418 7.9420593257525125 8.2793144765172 -0.9802973578192795 0.6765212622030349 -1.296216259445645
Ni 7.056217011349651 8.316325766825624 9.6655591803701 0.49284139525045445 -0.32523735081381405 -0.6805054436617635
Ni 0.6511991529289448 1.0248878322009098 8.608734841241768 1.077476572675454 -2.242178591428481 2.3279086839074488
Ni 0.14144803617632754 8.034361207037664 5.842979765353872 -0.9327178082681034 -0.6373137387656379 -0.15097260652754643
Ni 7.68401727802177 0.25874114884392374 4.524301457338275 -0.6710671810669991 0.8967298202092685 0.23212279294531638
Ni 4.466276064944161 4.7047451482644504 8.965449084139461 0.3153630291228956 -1.140817498825945 0.5033692913649719
Ni 9.184489876844415 1.7989579726337344 6.780968115793126 -2.0318551537464424 1.7471167914879393 -3.6996855514982285
Ni 5.4949440834046 0.7656155905220053 3.204066272611347 0.27829440640537234 0.889042735977656 0.4660636129359779
Ni 1.1220806211403664 6.554758969884915 9.956988206496733 0.7504726168795205 -2.174721843337403 2.122329445778616
Ni 1.3436742062946576 4.148077719824117 6.357478049345 -0.704194045527955 0.04042211257078845 -0.7777219395137767
Ni 6.474824364634026 7.9998075044875945 6.058454115664341 0.7322524943270678 -0.8415691158767249 -1.3231547357077018
Ni 0.6845935983594248 3.2174611992806077 8.809468331898719 0.15646422576973698 2.1213387997305726 0.47743251689455196
Ni 6.6787304116110136 9.042037524516173 11.98670461586064 1.2164349283509437 1.5332408605679528 0.4609234634959352
Ni 0.46683806898271 3.1359771843529733 1.379168755202654 1.258402273921665 -1.1038329511817957 0.8640145893644345
Ni 1.0387205137728175 0.798085990422378 4.737262217130989 0.9277190695019314 0.10055944418231712 0.5154303362945639
Ni 4.241929010786015 7.6493142347799665 4.222804068450766 -0.5563252747367129 1.87368782924267 1.435957001813114
Ni 4.342192617699261 5.278026728660245 12.754791794830853 1.157567464590774 0.2482965744917014 0.7289416847862801
P 0.5141772015038985 6.7267714453833545 1.3360036950154446 0.6946843062653068 0.6405836677661614 -1.2653997882854207
P 6.856044481666026 2.554267188667413 6.522598451919891 -0.6426251236762224 -0.5100593017906376 -0.12329802343041348
P 3.566031707582154 1.0579201264539337 11.739154685103571 -1.7709699439564535 1.1902413006747115 -0.17473062817909263
P 3.8623329737766263 0.6058658525736154 7.878474726108581 -0.38759303023290026 -0.6248677996928013 -1.217861633495141
P 3.672194271818914 1.6373153414176096 4.170797105933551 -0.2912890188928274 -0.30592528074876346 0.35225218883976106
P 6.546209215283115 0.207679699581253 0.5976306468037812 -0.5165950460266264 1.0654754344495199 -0.19976340277800436
P 1.445860574613986 4.293180869430647 3.1454201829672104 0.0248859646084023 0.7429331139693657 -0.38837927357962143
P 9.192376932126644 3.0441139913497923 12.449209938024405 0.9264312039284431 0.14904093672247234 0.700573160945916
