# total energy = -340891.4833077858 ev
CRYSTAL
PRIMVEC
9.07832590203598 0.00000000000000 0.00000000000000
0.00000000000000 9.07832590203598 0.00000000000000
0.00000000000000 0.00000000000000 13.28704760887742
PRIMCOORD
 96 1
Ni 6.566080887079745 1.905785754119471 11.509373770375094 0.25931298020686305 0.3549865570517886 0.23181811722070397
Ni 4.549630338328253 0.3482745460136691 6.041022282097391 -0.046707945579500205 0.3588164723208401 0.0012845231393784331
Ni 2.644561771967267 1.5899326339523432 4.657389160789502 0.8477922139683013 0.41550055527644564 0.6189938574105276
Ni 3.4764723368314625 4.409933056966683 5.026144410387244 -0.7281770387061136 0.8181983023612683 -0.612260395341436
Ni 4.848053072466383 4.275419499783528 2.644534536989097 1.144674667788506 1.7696316847610039 0.38845460690224715
Ni 7.480921960472532 6.312341673793036 2.6256670519453125 -0.41384579328184207 -0.7329019549856087 -0.5065397186731534
Ni 5.169434893202084 4.5903012390625815 11.577230626319022 0.3956212998540154 -0.7059287688308745 -0.20962744005627768
Ni 5.58570337788314 7.924271091780931 12.434510573348861 0.055097969415408336 0.41975058880205124 0.03520405870495872
Ni 1.874774192309546 6.359521734310066 0.3685836692352683 0.29811838310983496 -0.24303326921023302 -0.024824001022215315
Ni 2.5375827777142943 1.5045146640841982 0.3125023100195741 0.5122637656411242 -1.0568588964251024 -0.528188921511813
Ni 0.527617785097758 9.205967321127776 4.788279558043401 0.6500134457204935 -0.8704140651328751 0.5877030177170459
Ni 8.415208808278917 2.400627150821868 1.7155576020933152 2.8675166458894807 -0.0511667526818022 -1.1335410197691895
Ni 6.7714507791359875 0.7092378683568848 5.003144471322418 0.8910134865507816 1.5358253334656775 -0.3529052490427277
Ni 0.6619034762968883 7.479469428303448 2.3913763365700196 0.7204781273999592 0.13920980956466347 -0.1373601579504344
Ni 7.541465316945128 3.839224089407862 3.8824087786273096 0.3831920729517272 0.43010827788729145 -0.29929466280612327
Ni 7.554038798533753 3.9674826799379033 12.769490818684998 0.586301509383829 -0.34557220571642416 -0.48855716605280375
Ni 8.160180472692145 8.553961943730584 6.856263224656146 0.11417009298721628 1.5155490997151448 0.9944232556977004
Ni 6.777987173896862 0.7473586673018662 0.38758188217427003 0.5661857124705604 -0.003283298736962087 -0.24369275717110286
Ni 1.8975244774078106 6.446101729913479 9.360034684804607 0.866554582177469 0.3189898272422055 -1.5497260027071698
Ni 0.1917396933146079 4.8345899149241935 1.5115875879150271 -0.5993827680478193 -0.48746856097431523 -0.4525491233893109
Ni 6.668103115305723 2.156293083329971 7.15520796254254 -0.9198250114658352 -0.09057559349672788 -0.7554610712330474
Ni 3.0033735310350287 3.820468267774576 0.06395226790691343 0.6746114467748318 1.9294424584054708 1.989239118848129
Ni 6.235629818613332 5.780515176735359 4.891227775527168 -0.9021167955527948 -0.1529101898698915 -0.7422913666203087
Ni 5.416174717099025 2.99701870279529 9.530307768325377 -1.2585634820898777 -1.0515547106033696 -1.2644083709064287
P 0.2931573050252038 5.488819482205295 12.344132206123296 -0.23028548262626147 -0.7314819347096305 1.2986060998340603
P 3.948763171608844 5.880640034815471 12.713631878457694 -0.36443304717666913 1.0956938670144292 1.2131290039061624
P 2.4514113067834375 8.366067829333623 1.3042150171306621 -0.8328944709208623 0.3583732141358344 1.9702283820735809
P 6.3379153182949555 7.966385446358285 5.929451470524904 -0.17315531327217276 -1.3912509171549912 0.003897792392509416
P 4.651970307966217 1.2985183675300391 12.569999142750515 0.7020744280817909 -1.1325812269590818 1.2580402625965559
P 3.8747203442898313 6.292378434794199 8.35466999096935 0.2887665095812898 -0.8015182706024261 -0.28424702444438144
P 4.868787969180046 1.100765191035427 3.9337367263196787 -0.19280805450609376 0.008785459502113901 -0.40791940049507813
P 0.42990685391614125 5.707598061847386 3.5615934454375515 0.015008557593690283 -0.569234269488897 0.2689345624570272
Ni 1.4985048122346165 0.8380565916046284 2.6393390109868076 -0.724384661543217 0.5255962210839722 -0.9243439823821114
Ni 2.1123993768454903 6.5261180957778455 4.848044901972933 -0.09832438420421132 -0.05025092573575217 -0.1505388614242375
Ni 5.807613980014817 5.596261471087163 9.35970241807093 0.340473193926962 0.4106519689348928 -0.7044575836019867
Ni 8.492810339412184 2.253149744029646 10.06047383954727 1.329905167057658 0.789221455512944 0.4334126596701761
Ni 2.316107935233343 5.213982239162652 7.174355060028873 0.6535795658051969 0.195663778787334 -0.35961120030799354
Ni 0.6580569895466349 9.038508518684605 9.141621961702606 -0.6452741312632951 -0.5544344854719032 -0.6114404705433019
Ni 1.284501432098387 0.9918162000281351 11.282617157794313 0.5143774695500173 1.7320588687135525 -0.2412278405703781
Ni 4.169275711527778 6.910203914587654 1.5826999315829149 -0.018968313572386687 -0.4217830458510478 -0.007532818041935413
Ni 5.373234234850504 7.995726596173765 8.403327095135817 1.0272603568323793 -0.23247786229188994 -1.2861964133157977
Ni 5.336621345863552 3.204694489669951 4.964452645668466 1.1255443747169585 -1.8344461101332277 -0.2906159040852027
Ni 1.1274827046205 7.434005171411146 7.023148276892529 0.0456062278748892 0.4642592127373875 -0.02952860558673624
Ni 5.168027752663284 4.3667656165667434 7.082687570503248 -0.2656435504105812 1.0979937187921993 0.8071091344266422
Ni 8.08799870221477 7.1531126848886375 9.256953015927804 0.340926993634929 -0.07138950748658028 -0.4123671518537866
Ni 4.705695841570179 0.5841812034270667 10.478816721732299 -0.4459984667549867 -0.9646197991830225 -0.2445072826525983
Ni 8.268503059201521 7.252520355210265 4.734852701366706 -0.26159149182839464 0.2778354644910828 0.04458909946428449
Ni 7.038181077009935 6.309745272540799 7.140539203300012 0.5007323679627569 -0.703700393720988 0.38857184920640175
Ni 2.4625776478332635 4.9647912672303836 2.417964030092481 0.22671961965187404 0.17367287633853962 0.6585096561169627
Ni 2.3200388504159246 5.164459970522974 11.404765127055542 -0.9090392337042409 0.10953902197310812 0.9850839805746454
Ni 0.9846534007693439 3.4166643247694646 3.76748897257248 -0.1597783777446345 0.04409184811289181 0.4835167754154188
Ni 3.7980084891101282 2.2713245527952988 2.530371863327402 -0.8061524269403278 -0.010002362628350515 -0.7049684618001343
Ni 1.0888181139447182 3.316702876558374 8.076319435742736 -0.6756805114692944 0.3126114345196874 1.2665133330645737
Ni 3.4760547338328514 2.7166436808580174 6.9470001857609525 1.3588529604402595 0.09069952066910185 0.5983738671673308
Ni 4.4209359881474874 6.916177453133009 6.20437404983248 -0.8526459425161768 -0.48604931202928553 0.10943463518475992
Ni 0.7646737585899428 7.247345709357907 11.115266387431218 0.4186565844069241 -0.19050640295611063 1.309400619346403
P 0.238901597179526 5.742440677253267 8.02513764909988 -0.4084472479740901 -0.780641684263733 0.36554684906613816
P 8.654340994940284 1.5878809322635132 7.926680479516398 -0.09892319413047478 -0.6906525593980944 0.44667852354114684
P 1.7202520044972707 3.178657850539136 10.287828713815193 -0.6978796732741529 -0.8323643094490051 0.1640240403948659
P 4.170337875676419 6.2030567847216425 3.7383375597715873 -0.24485181047621057 -0.3840824459764805 0.32800282937409314
P 6.935468896003644 4.053018668044786 10.409087007122858 1.8346170884934532 0.10230522322883025 1.478499246050699
P 6.32508764357674 7.9435080646952265 10.248140995792811 -0.48182318976307986 -0.5012913257900206 1.5051818975482076
P 2.4994174949716346 8.652479938098647 5.812631570826393 -0.11317790427727606 -0.49045309752393595 -0.27603029296154397
P 6.930276093499172 4.098918684587813 1.628341215833324 -0.17310234854705026 0.6384316544201649 0.3021079638852023
Ni 5.266582060335574 3.1752080866375634 0.3771672265219439 0.36712910595159354 -0.6573056085065324 -0.12382355691658029
Ni 1.5954976478251428 1.2702484601892585 6.927508111884462 -1.3913789580924232 -1.3692260761444677 -0.4232136076499872
Ni 6.818086140089612 0.8346948874658067 9.174281239691833 0.17134114288156943 -0.9354609182308793 -0.08216242973236819
Ni 2.7060855876539947 1.2852730898132123 9.080514841181882 -0.3158440825243721 4.791837723907986 2.822757339395919
Ni 6.379866263003287 2.132217362627418 2.4645748795657534 -2.3022845555814415 -0.9340182722470817 1.5661684645339091
Ni 4.201412985768742 6.801726996535313 10.653155987493896 -0.5658100742986966 1.0537182939135916 -0.06602541496118952
Ni 8.336762992822372 7.071716413463641 0.19712132500106094 -0.09611040727202803 0.33599844598506007 1.6949624780818873
Ni 7.734080160891608 4.017068496859978 8.346218977243103 0.152041414111693 0.5270442663844085 -0.47249805570741205
Ni 3.082318654424697 8.253405802969112 12.613474338403776 1.4042301030234785 0.1162657991739804 -1.641852485630785
Ni -0.026688462941691256 4.909967256173553 10.230003408163993 0.31690157725460905 -0.7029714859747634 -0.20148809877859494
Ni 8.643020322347493 2.671424538769249 5.833558928052458 0.9415552040540752 -0.39295917964082 0.6070893926634576
Ni 3.587926945830423 2.731241629157303 11.414982783032437 -0.5256180754608432 -0.5306926617702732 -0.8443623623511457
Ni 0.9254173232489223 3.248978564174873 12.589331438088404 -1.1530016995969627 -0.020245380512597392 -0.5122856200179952
Ni 3.2042314950410558 8.606171396883067 8.180994350842502 -0.5796230689223889 -3.4765323090413736 -2.301760307646855
Ni 5.819561057105525 8.019212225682628 3.6361337650244754 -0.879083567882415 -0.4344177038959228 -0.5915056792925878
Ni 3.0831175471176926 8.342582199824761 3.6339277317926797 1.1743994485464484 0.12040733214617973 -0.45295664324037477
Ni 3.3956298432959295 4.329226738322001 9.581755549921697 0.8430912089482061 0.32132824556739503 -2.2185108154978956
Ni 7.366453347222723 6.247250075965998 11.615364134920483 -1.1989496270819866 -1.0446525841668977 -1.791508687339753
Ni 0.7472488195565793 8.833919362669246 13.199220645243031 -0.14240671923540638 -0.6268133534549463 1.2754972817307386
Ni 4.516303803373852 0.2477774765652296 1.3615900378094459 0.4718478237179229 0.17305786846236001 0.14698405419344365
Ni 6.020310081198871 5.7568752156835306 0.3825951576712865 0.02067578318179665 -0.23778281944457114 0.4985435878415543
Ni 8.066546617742624 8.54186053509691 11.315476158956791 -0.7431148909628685 2.7447109887144534 0.6114875217311534
Ni 0.11243779171090848 5.219038866776273 5.750859916838316 0.04347838289860899 -0.7688277223479404 0.4048875556472898
Ni 7.977252202648239 9.051154626881685 2.5067473354298704 -0.3731655419536606 -0.04840641632784566 0.26241861571538033
P 8.489605690314145 1.6474438295219784 3.9040006693207303 -0.5631595240497268 0.8490782797695764 -1.8561716747357775
P 1.747305416146444 2.8503765020002905 1.7735953405742433 -0.19042515609621397 1.5347192448856923 -0.553482405971279
P 4.798921171847146 1.3068613491762104 8.046437217694274 0.18485306132507517 -0.44247785519623795 1.2422827426519831
P 8.678117130882965 1.459359070277826 12.587883445082351 -1.976782895362647 0.789629232474324 0.1158834761338972
P 6.415680259297243 7.803965114876621 1.2955996857027876 -0.25685706246720275 0.3049454333339974 0.4382054530731292
P 1.736865341181159 3.370455645140507 5.974334714549573 -0.35126231412266595 0.24529301177868723 -1.444676383963983
P 7.122037574796316 4.1950490792029465 6.209488778732863 -0.9493415328677134 0.3556835831188132 -1.181510605669933
P 2.4769758729593003 8.494498908058743 10.477687377970836 0.6505387220963442 -0.45753989173568305 -1.2251260283670384
