# total energy = -340895.1711096315 ev
CRYSTAL
PRIMVEC
9.05037027413506 0.00000000000000 0.00000000000000

0.00000000000000 9.05037027413506 0.00000000000000

0.00000000000000 0.00000000000000 13.24613172164880

PRIMCOORD
 96 1
Ni 6.22349608678853 1.9919683701615816 11.22636151060698 0.40661199453756425 0.5424323188047045 0.6121238697635716
Ni 4.676724474873812 0.26408165576144177 6.145900023161912 -0.5999975188136828 -0.5979573484552024 -0.8728237030156324
Ni 2.871248032106162 1.5952815959403153 4.88208732907591 0.13997419853451376 -0.6767310642209958 -0.2750864409910359
Ni 3.422786639662873 4.225436817513287 4.7155967197223845 -0.3975097751259799 0.010405254493724016 0.827449645756207
Ni 5.001270748597309 4.486512845346574 2.6340731268126505 0.8723616757775493 0.24702850641255522 -0.2735319520197224
Ni 7.300734495112197 5.987209022807128 2.4677807205654974 -0.05896156613587265 -0.3698884138642856 1.0009142627386827
Ni 5.127224750030939 4.711758457740061 11.376055537991641 -0.5871818551062532 -0.8229892959920084 -0.39982093975765975
Ni 5.6788538612891895 7.875487302113993 12.517528043446518 0.05592072242701982 0.2094317791057038 -0.4007339384902325
Ni 1.8716436989637595 6.663253572572822 0.3975085478312522 -0.0068316782098527505 -0.5167523975400972 -0.9758287805249647
Ni 2.7546068615610304 1.6281887418203664 0.34863654899949303 -0.40634922779448085 -0.10884353856798029 0.661179489639642
Ni 0.8682870823554963 8.988601377728234 4.615667962703683 -1.1259094713658608 0.10027353751078215 0.02791780945619063
Ni 8.64560139926067 2.526646138121335 1.3426015964989197 -0.9037414756404113 -0.6587333420919944 0.7988533221757532
Ni 6.901251156513336 0.8731045943884862 4.720960874112677 -0.5119999704567764 -0.9367094459259996 -0.26046149198900953
Ni 0.7524233386065955 7.580390932871708 2.418385610338835 -0.20914741509606563 -0.4331992581077894 0.689230225129271
Ni 7.5105854278736786 3.7834348399307944 3.8306225648768883 0.678852738549689 -0.3036796792476964 -1.2182413854320633
Ni 7.462346954952702 3.8893603722135555 12.602449476675808 0.7527498429494713 -0.7763165745258179 -0.09412937228625724
Ni 8.125141762812897 8.631509972930846 6.868132231971679 -0.48585930750566647 1.1794164421450657 0.1260321345321249
Ni 6.731031794656349 0.782759274325887 0.5011624372053519 0.4278973862789018 -0.06211193883939625 -0.8641611422446278
Ni 1.9296656220212425 6.429201950019466 9.216433585911743 -0.3942100213287856 0.11220114218630355 -0.15774540647500573
Ni 9.17137360298886 4.920369489790439 1.4076529420550374 -0.03623944194800855 0.16225280742705606 -0.3456547381279015
Ni 6.279192064716427 1.8359309383359594 6.880054284575584 1.0286024726825704 1.1032840206568613 0.21614287257729226
Ni 3.3084533135070187 4.496015734008306 0.53284959318864 -0.03393984728055445 0.09942275947471266 -0.08347343523430786
Ni 6.037691987526304 5.801495427246443 5.108714932991917 -0.22196385013444356 -1.2818594765033409 -1.8317955598842581
Ni 5.636389524526483 2.997030076506864 8.960637544026314 -0.4446288401009697 0.6935424793513797 0.5127443048219685
P 0.2837616856613789 5.670065951869626 12.47311335191562 -0.5380904968962411 -0.3210850192083373 0.3347594313716364
P 4.029767814783169 6.303211747105221 12.454277721551053 -0.22969927110548827 -0.38281952010365683 1.549120765023003
P 2.417091407406809 8.487292324526386 1.3657026663170801 0.14966134391529065 1.544890014771107 -0.03313843442518164
P 6.311148921730305 7.7743041637919434 5.878805499176193 0.4912717367704894 0.6718979044984106 0.6012645584515645
P 4.730728033582906 1.145831163721057 12.608661650749534 0.5034307407305266 -0.7153004398537617 -0.35591806772712253
P 3.9686687658733155 5.898243884193017 8.353063569660929 -0.11776989452333267 0.5582841982352965 -0.7137482648752933
P 4.594040293146598 0.7917064702601605 3.731740030647993 0.4303275929869493 1.2838402543787955 0.8092022695102451
P 0.2316568946106003 5.77754814781888 3.7042413859719896 -0.3900684883565863 -0.7492644555040322 -1.100634755959472
Ni 1.5474141881956531 1.2410410577414472 2.6120182797842957 -0.16313521003200937 -1.1200049329559678 -0.2582619132345294
Ni 1.945141754984633 6.460090863355169 4.911095575493606 -0.31003081827670476 -0.1781615082375125 -0.4928411381401383
Ni 6.015256119914465 5.764669471089697 9.319580654557216 0.2045052883383639 -0.8404224038667912 -0.8406450614005587
Ni 8.620957241331247 2.2324910073750694 10.347374175618373 0.4053338991560891 1.2476946576961738 -0.5420353404766021
Ni 2.385297457055703 5.1400310237988895 7.003904979985415 -0.38493142424033705 -0.5280745074211357 -0.08957106349161348
Ni 0.5535613652861364 0.13795207714682522 9.281696710129463 0.09353159080125827 -0.24606382850644073 -0.38596886436591593
Ni 1.4981168219666547 1.0407382654924666 11.523816406311404 -0.607667890874747 0.44500524960378196 -0.15767778646186392
Ni 4.045642164033336 6.882209177709258 1.5317959644208445 0.8309275770024788 -0.3383558904736431 0.04025190554151132
Ni 5.577254405940054 7.596156677680027 7.942260933110423 -0.33103570266314597 0.8582038962199283 -0.11737960106344945
Ni 5.4178230853066704 2.960502782565201 4.773230381900259 -0.38231455544278026 -0.4809351307311718 0.542279081056292
Ni 0.9968349198752696 7.281502458534884 7.039391481359365 -0.6067934586895937 0.10012415641711143 0.4437526081436035
Ni 4.928397168117065 4.580672896429097 7.000169892222847 1.0890794470217051 -0.6997997731150012 -0.4182218108623507
Ni 8.16797716475192 7.184165727528297 9.100039490471815 1.1061515720126431 0.08008497837804918 0.25812204522255544
Ni 4.592184967265023 0.23850078452107742 10.386900762229082 0.9062516436567748 -0.15568903816660928 -0.3885358537621438
Ni 8.068911813045911 7.261555442715403 4.6651418111506855 0.34272985117162263 0.6694180754993503 -0.07776121534087899
Ni 7.433711583785352 6.082554672379828 7.143082477251096 0.19843054289919373 0.23778924720247432 -1.1252273576971716
Ni 2.1217687789106727 5.247956687885691 2.782615042076705 0.934190793269204 -0.055553311785272064 -1.090863021284689
Ni 2.408982275748798 5.217800854532465 11.416192119550733 -0.8407964993767584 -0.31129657236300584 0.5351895211993623
Ni 0.9819289602315829 3.282623557087418 3.8897794043516867 0.31375917497088546 -0.07162244943299277 -0.653117538567114
Ni 3.6162473520754075 2.6682844310318967 2.704793624233252 -0.5205879692361034 -0.6572991807486294 0.12632678295440825
Ni 1.2692963133623274 3.195640449537041 8.139311022326046 -0.7315220439189466 0.4137221232197843 0.8596655683671195
Ni 3.5215171276731807 2.582613627153854 7.283994930475304 0.6939417716723274 0.3758443743374043 -0.5887085761634248
Ni 4.062982673248457 6.750779702332442 6.04500468661076 0.02605787342931641 0.5432422163005096 0.1804932416944827
Ni 0.7923825329106665 7.450590524122617 11.294221186021892 0.05161026797712402 0.0034771599153230444 0.06061864212332141
P 0.35234720076264514 5.3290661052061035 8.018863266094128 0.3821698023347999 1.2482633857154501 0.22981214253426874
P 8.650651505806618 1.7465494826947643 7.973972525093127 -0.741250326950304 -1.8141845316707141 0.9051892638305316
P 1.7740173561122434 3.159737631136006 10.6247752611355 -0.8957684847372637 0.004940117614094718 -0.1940324138314981
P 4.0671729946297726 6.002413644665897 3.6980817040451575 -0.39530659682707403 2.0537714942035596 0.9506299126618338
P 6.975364637704684 4.138571364774911 10.378013298737825 0.40718303654968585 -1.035523625282436 -0.2548929967622965
P 6.379651173426154 7.88176825900089 10.018592328662791 -0.509390043637755 -0.669975233554401 1.574295464516418
P 2.4830143036087597 8.378877940451268 5.863347466953111 0.5206815573911743 0.4872785564506963 0.17933753082348466
P 6.791361562103109 3.8656393520398438 1.5747662168751613 1.0880713174721648 0.7823535247485172 -0.1905835360509492
Ni 5.095295044127521 2.866469436664835 0.6479449605114637 -0.3039933538333732 0.42458014898021074 -1.4325230364309005
Ni 1.6097893392972245 0.9796120654721515 7.080401423638319 -0.928848040900052 0.3251270504881949 -0.4768445056015659
Ni 6.868724126179753 0.7666251794522986 9.131763752972734 0.27506561505542954 0.02276454739002531 -0.6849938184504203
Ni 2.834032910032793 1.5835885177013092 9.47992515753914 -0.37763154814481414 -0.4515631053269578 -0.8127041120159164
Ni 5.973307654250538 1.8827032512919835 2.564769012321154 2.280883978418478 0.7315117595063014 0.854352126574006
Ni 4.02779483408959 6.799244434507269 10.321504597570096 0.6960148521512722 1.1080212782315306 0.37617218999046825
Ni 8.158673384233577 7.456428012871966 0.26638859511370383 0.052197765049477846 -1.0432384774281904 -0.3535269417871266
Ni 7.780340760684681 3.881034031671848 7.95741487289633 0.1195570683307425 -1.4038963738331434 1.0751037015679032
Ni 3.2752294046715766 8.5521201259397 12.315722889751969 -0.4512201201652422 -1.0560417998404459 1.0712426759506002
Ni 0.04058276480768362 4.982970900145862 10.310749137679046 0.6225098409835859 -1.2518035376582248 -0.5649837217426592
Ni 8.516488818643285 2.202878196231085 5.8921710858196645 1.0402765665863891 0.48655864756553624 -0.8613938639121358
Ni 3.6879986866565533 2.7788980550544453 11.609942443808196 0.1775650123040942 0.23332709766606266 -0.008144740594321458
Ni 0.910693496749217 3.412767879902362 12.74726897469551 0.6776075532886783 0.08970476085600035 -0.8222593598045193
Ni 3.172335746390415 8.46941784347218 8.03497111489427 0.300449859456489 -0.5018163450555552 0.8059079150296894
Ni 5.644435303593415 7.876700051714634 3.7564040993917542 -0.3171658866595893 -0.20116285422869223 -0.7935491363540204
Ni 3.142822489318125 8.219718130922505 3.562626624023829 -0.24998578926866621 -0.20467112449226682 -0.04400700170856937
Ni 3.351216312484808 4.000987637693354 9.391096679514357 0.6896377449803348 0.862903615688443 -0.37284595383071273
Ni 7.343253134095828 6.143680872400143 11.403820263550173 -0.09821202699606311 0.9651790141206023 0.4167876495189854
Ni 0.43646767623330296 0.29972653861308685 0.4102940057478497 0.5490775920353641 -0.10744665822045367 0.3340464644650118
Ni 4.603208318112631 0.2966892343893946 1.4780295254097862 -0.9944800770775647 -1.2496193855227122 0.15586053074746703
Ni 5.955007805799092 5.533441564024397 0.17937109615674116 -0.3453081534217602 0.7908080832737735 1.8541441027827874
Ni 7.930785063755114 8.887617347549574 11.222401068627576 -0.08560513686532999 -0.09932994265059022 0.5487541472576744
Ni 9.162685247640992 4.69693395142776 5.599948209101282 0.10750527937253097 0.7923767133124741 1.433873379811208
Ni 7.798079486186579 8.872865244198506 2.5228449826566433 0.2099071760802256 0.24265480282489174 0.5036842515022293
P 8.553685839976346 1.6594396699622302 3.477546809316844 -0.35360073244785556 -0.48907935710486095 0.7671444211082465
P 1.791602225321523 3.198554668726638 1.6709861322047412 -0.22540475749519243 1.1027494883096298 -0.796113554647087
P 4.778694995399262 1.0778809846046036 8.243809311235516 -0.1335029889878733 -0.5002001496083708 0.5637387935919645
P 8.240868845972471 1.6351937283195854 12.418393908927342 0.5633868095691845 0.5814827478389469 0.43216670307821703
P 6.377705343843038 7.586427529764446 1.4576571421930657 -1.52590910279323 0.8495989281597368 -0.7972057592700011
P 1.8270163237342403 3.1552757986500692 5.9556992540788585 -0.06356795455963246 0.10924411644050863 0.062001895624093216
P 7.062637357099989 4.064521236174642 5.92826667710498 -1.5933172570345593 -0.5349185269261627 0.48744207861175404
P 2.4757197052646114 8.467861179805686 10.2511017681419 -0.7255290595603053 0.22358261668478915 -0.4509738084823911
