# total energy = -340856.70056928875 ev
CRYSTAL
PRIMVEC
9.42000942260511 0.00000000000000 0.00000000000000

0.00000000000000 9.42000942260511 0.00000000000000

0.00000000000000 0.00000000000000 13.78713597912960

PRIMCOORD
 96 1
Ni 1.3338262352517498 4.307148591751817 0.3489237432966524 -0.7830322959830966 0.29773143208406144 -0.08695008092899863
Ni 6.0987401852581575 4.700867305891315 3.5729361007546436 0.8009459430387238 -1.579952919912511 1.2134863872455812
Ni 4.7002267452500694 6.328239875003123 0.2566500409243333 1.6190727687321085 0.10787217579364648 1.222907937669797
Ni 3.5276993314695275 4.823807848963249 7.773242003549584 0.18389841072128973 -0.48281563558333623 -0.7746651549653238
Ni 8.487127056197595 0.8984145593747317 9.710100504478085 0.7886941222545643 1.1076834352761376 0.974729891033831
Ni 4.175786560249394 8.879470448960301 9.58758857183522 0.6295438650122319 0.6608727570325005 1.1864792625291178
Ni 1.0599677211005518 2.205648108005374 8.843193050644132 0.3983803506563913 -0.6910276833493261 -1.3356466975271255
Ni 5.2024922280523445 6.784639331890353 9.826077776579307 -0.3741456464787427 0.02713619409515972 -0.5833637669117437
Ni 1.7065571683810357 2.4560413786662503 4.09170449807747 0.08774506602646824 1.1458941420179038 2.436623924427681
Ni 1.3791459006198503 4.610812015739779 8.322632025526762 -0.5029653710583338 0.1693199986864826 -0.1162719698215675
Ni 2.865256008318225 6.8946179419865015 1.4820067515906328 -0.8712278192834221 0.9276018271977766 -0.42632978468146576
Ni 4.198460522947589 5.2505625361740265 2.7487549836926903 -0.4942673290637036 2.227091615188371 -0.5441822116162758
Ni 0.5868213714485314 2.676479019339482 2.2431529335502827 0.03297156983001418 2.447793310780939 -0.46029457166268467
Ni 4.715148040187312 7.568949317038562 4.506422297238495 -0.6815832501069746 0.7179124235553119 -0.27692812218546503
Ni 7.221774869493076 3.2365739400329985 10.955534081242707 1.0154273687531932 -0.8420501692782015 -0.24775561438656685
Ni 9.001120450740316 7.002524150008034 2.315508025982704 -0.024883136394924888 0.4905549132091229 -0.5110342641093972
Ni 6.825795353090359 4.800022325152305 0.4471358196136919 -2.4792471584148466 -2.3539182205973335 1.4631780423125962
Ni 7.523271691312119 6.796348403611939 13.705281933929328 1.0436747936346606 1.0026710975287894 -0.5927272104045147
Ni 6.589061096103094 1.2967396581255368 4.331656630286049 0.6804707337690862 0.7677954244286841 -0.5577476090055362
Ni 9.224864514723505 8.624866434084181 7.643657527826617 -0.4662173649050229 0.15677995723794289 0.24646980569560778
Ni 3.790376294427224 1.9959304380635703 2.978186849369759 -0.27262383838315635 1.708528646802096 0.9016252006283568
Ni 0.6291322858046651 8.938091167643671 12.176274987288268 -2.900528582039127 -0.23428560492459008 -2.5558570337601014
Ni 8.990249759858006 3.5676213314341942 6.968486829934336 0.7367796927734601 -1.576787377700336 1.3632048096510523
Ni 8.852029961490487 6.217036663681064 11.616158400573063 0.7729360880893591 -0.4384903313033997 0.7679363208819225
P 8.692351381641252 8.615936265144468 0.10376328787418393 0.5595440387843267 -0.2718437656840222 0.8947356725973752
P 6.224770491423158 9.50705031721089 10.495870591087957 -0.29081413613893786 -1.1535876540074197 1.9725457173528478
P 2.849034752079632 3.9764685807183953 1.8825917106037133 -0.8257300919619391 -1.548501129161133 0.26907880134437534
P 3.8589257030498945 2.6757725186322263 12.864556454305331 -0.9325216330968973 -2.95076819492097 4.154985755270115
P 6.677204124340325 8.727488016815439 5.9050167493276815 0.1613611488507221 0.1296638177474412 0.4147006850829697
P 3.4780464617635922 7.5269078149521285 12.720935222530606 0.4060841470585523 0.05106030901092496 0.15652618935592397
P 2.7716682146304095 6.288543955264779 5.082130883562364 0.4915846400252179 0.7662064826750095 1.5074784068918683
P 7.022843110348709 5.001488066833362 12.233063514137488 -0.6439631257613555 0.9811193394999427 -2.0202599927096756
Ni 4.538070702920725 9.081426031131722 7.383287525178345 -0.28400174120279476 -1.1081207799238721 -0.028234312255344923
Ni 2.282034964473868 3.130796654142664 6.7101713313427656 -0.3988176953041261 -0.38052995273853174 -0.40745531637446597
Ni 1.3935396750290079 6.5295925765710185 12.78777584144266 0.6620827181802017 -0.4173625481858489 0.9758629761970097
Ni 4.805825050961232 1.3126123740152165 11.252688278714487 -1.099622512644874 -1.9949791066556997 -0.49127816452839257
Ni 9.433856843939193 0.7817543365898294 1.4618083673706617 -0.8791069649211827 -2.4184505959527636 -0.8986918290316458
Ni 2.801294144288002 4.131390055805441 11.928327151075443 -0.5607385733130601 1.9760668431322292 -0.31939631865200474
Ni 2.4630027656350775 1.7752007770980067 0.9231326641192537 0.3843338998656542 0.6711620547736505 -0.748670273563459
Ni 3.20493212835737 4.324726329348341 4.70101331603748 0.42012751252549585 -1.8267837084919636 0.2988748016598853
Ni 1.8336142555739139 0.4351074095724266 3.0381885414355776 3.221074440914543 1.219087278372126 -1.3822615691721871
Ni 7.3542390420988175 8.886789796287472 2.9595192166821755 1.459140896128745 -0.14037580484830664 -0.2292459856181536
Ni 4.568374873257282 0.5870813637088015 13.580562893076996 -0.4627962550386159 0.19140346084908327 0.20908776550272382
Ni 7.110873098472779 6.657874264989807 3.876956543100005 0.3859691214762321 0.8562231183444738 0.7963102440389253
Ni 1.4558530374089669 2.238523940916343 12.399198568450098 0.22851836342350967 -0.2546752243245356 0.3587491094180144
Ni 7.924695973165419 5.0049263702753395 5.657647301693861 -2.4969651445199 2.4061733212473073 -0.23734830301031382
Ni 7.678428666634917 3.3055095690423024 2.596876171651559 -0.25545683968556654 0.531452165644117 -2.28535075594058
Ni 1.8708986528981588 7.3033992512046915 3.549111954905036 -0.4023861293816748 1.107307025773325 -0.061357062951242713
Ni 4.487230912026599 2.3534292159444217 7.2163385820509784 0.08631347578626425 -0.7613465834795469 -1.8706413291068622
Ni 5.251937857550818 5.699218745309733 5.628597876613389 0.10155368977478638 -1.3183758262618197 1.2456552586686418
Ni 4.620637085575349 5.664383550437308 11.86646406514624 0.849091649506015 0.8932953406064229 -0.6117780563883787
Ni 2.5451075678276283 7.2703161780862615 10.800690792233931 0.16893201921944453 -0.7560385410030721 -0.6756344887227074
Ni 2.767664710622627 9.425002035074918 11.54911148345449 1.0498163877560243 1.4437212191395652 -0.6934195806202703
Ni 5.097977223425639 0.20458376480241183 2.9365221476605288 0.9125960978175638 -1.8075649694716676 -0.8980207711065501
Ni 7.805815454157848 8.02748711606642 10.453420260592257 0.6561483549736377 0.5058424354958128 -0.18108510964221072
Ni 7.348737756591653 5.854922081179476 10.064650819407323 -0.7367380409022474 -2.240488605320567 -1.5287231752032575
P 5.008082073434415 2.7704059333667796 4.950188579479048 -1.8003270569623318 0.6020464309229115 -0.6618454053584151
P 0.7726866355124373 4.433339038077128 11.7211472316741 -1.1202201342905675 0.5025141424535281 0.33116091538710063
P 5.484338910200247 7.2343694221010875 2.5208397395338635 0.3433489728128603 0.27836665440420444 -1.0933788457280071
P 3.5483291521213967 4.958749484049102 10.00655196924638 -0.4336371169761564 1.3792590349004377 0.15200207623332532
P 2.903520086623197 1.936264098333463 9.799014089486697 0.42074457728420445 -1.6282806604836217 0.3044533241889273
P 3.5155663593235884 9.26598285588579 1.639538511290753 -1.4764271940130185 -0.12417734071157323 -0.34989063058612
P 8.730445899776484 3.5844548882857414 4.272771209337694 1.9250507570956785 -0.23593213938907753 2.243892488795794
P 9.741514351925506 8.830222639659858 3.6158696777341053 -4.227552570894248 -2.6538708287024293 1.1104440287404103
Ni 6.492449479388226 8.742870892214755 0.6161515128100191 -0.4067688318304027 0.6636613755212312 1.1635920735182994
Ni 8.77028311965628 2.823685506703295 13.809884544643731 -0.4385936896504834 0.2900415196389715 0.3137067244663952
Ni 5.158246443759272 3.417202620854725 1.390515852001953 -0.7521003822909306 -0.5617760134386389 0.26012493458519714
Ni 1.0815678027237183 5.1817587872967446 2.97654588372704 0.616019605273552 -1.273590551626329 -1.8086458612406724
Ni 4.740751625818261 0.5437314223125302 5.33250531420438 -1.0627976305070406 0.2636280626424492 -0.8163915881698327
Ni 7.9049233733716875 1.133905375117226 6.826576271872113 -0.2934366613634495 -0.3231416446270499 -0.1409005670035251
Ni 0.8379503448458966 1.3212976227097475 6.3287918875557265 -0.400105303767298 -0.48044687824084353 -0.019699535311456396
Ni 6.750962798177828 2.9929819161806384 6.018677641110047 0.5645245227180535 0.25849125563651615 0.11447708270467383
Ni 8.836910846355215 1.2892036505814752 4.174123928584986 0.8531143975121631 0.8602592360870603 0.11879267936089218
Ni 4.995044780383189 3.38849985212128 11.433865204085043 0.22794577874949132 5.012837667467264 -2.963669219253354
Ni 9.1067564364892 7.512664760693852 5.457127328959584 -0.4305785326554907 0.32949175521479385 -0.6851745670026587
Ni 4.58894817385257 3.2539444374220605 9.228571288434239 0.564167396488951 -0.7107218193441437 0.6200166422480871
Ni 2.080088802311878 8.895606925114024 13.70350343614893 1.3256034543585107 -0.17909276180253025 2.958175286018318
Ni 0.6727770734960978 5.06998095539945 5.194358991910415 2.0452639709531812 -0.025820046386897468 0.8362603020693018
Ni 7.593987702103706 0.213172929400756 12.328126481302052 -1.1585282858421466 0.436169653590023 0.07590025087274024
Ni 7.03507028258895 7.206721694423812 7.829825174193228 0.10395458590679517 -0.7730422746499203 -0.5497818171912402
Ni 9.133019422780254 3.8004839645456965 9.60902757129713 -1.2582896596032005 1.0263278177157809 1.2668072101559087
Ni 2.0944354766738855 9.336745966724529 8.52384154295132 0.0704140309471884 0.5657581380148385 0.16343474355029916
Ni 6.342925669704614 4.375453080129305 7.8278950142610055 -8.51035146385631e-05 1.007944944333219 0.2501475116575111
Ni 6.133631900187163 2.758112821060529 13.058789512745975 1.9725788845836283 -1.7843823607076172 2.4064887956051972
Ni 5.861742168006851 7.878179966599699 12.020521725368548 -1.0905084661587476 -0.1694804355237468 0.5067644330894499
Ni 1.79397485589215 6.828253975551609 8.622364479579552 -0.46342951774724056 0.525002039143399 0.07601543629436586
Ni 6.664129151251378 9.468710878830477 8.60798483518454 -0.5539464900918911 -0.1294200771677513 -3.5482421759818505
Ni 1.8974724995004058 7.888165176595581 6.57370648073207 0.43510444555030225 -0.4776636590687516 -1.5099698058551543
P 6.5904929375364665 1.665598967379061 1.9213060653594436 -1.2188173125401913 -1.8730368259222325 -0.616123477841268
P 8.761042090405374 5.5620257279700915 8.028731499312132 -0.31198357112770136 0.17364510842439773 -0.0045379970796696045
P 2.7530448559871474 0.4826954132112895 6.288230268950757 0.6698567056986658 0.20557126770903306 0.38152754076511064
P 0.4205092209586363 8.477009966069692 9.753944054368493 0.8679740882328149 -0.7748569592611558 0.33081510201190767
P 8.621418710632772 5.032253817631993 1.2910829424627754 3.103534145903513 0.263805725870894 1.0932338355097109
P 8.87070984019033 1.8299027718584637 11.871165591852792 -0.09084761621119192 0.1906925508249877 -0.7094879469370426
P 7.346637094488745 2.704861507752304 8.824428391859419 -0.07534566392085089 -0.5844068634642774 -1.3803558675090422
P 4.865020390219836 6.331725278492252 7.746357296636145 2.080694029626017 1.7837228727467473 -0.6127635602300995
