# total energy = -340888.8173517728 ev
CRYSTAL
PRIMVEC
9.10152519492426 0.00000000000000 0.00000000000000

0.00000000000000 9.10152519492426 0.00000000000000

0.00000000000000 0.00000000000000 13.32100211904122

PRIMCOORD
 96 1
Ni 6.126473242071292 2.4055604111253595 11.138156183464053 1.7456607757677032 0.7838653334073532 1.2798720137596669
Ni 4.906249963490441 0.258001844588263 6.114006883024597 0.52312847626977 0.9740313223049095 -1.2807176495894137
Ni 3.026821418768125 1.7084928002118658 4.79973026348096 0.5969764725991719 -1.130824392168975 -0.11627505514536104
Ni 3.414136823040644 4.331716186150462 4.8413715615100426 0.1944756720165038 0.7048555903713539 -0.4502402727504762
Ni 3.791950235019414 2.777494237834242 2.705202643590187 -0.561600149982407 0.5794729164977699 -1.0164336985305205
Ni 5.25279963645673 4.803894211253365 2.5383698666333983 0.5799616832087303 -0.6654482922183249 -1.129240592621623
Ni 4.680832489219086 4.967403111212378 11.134958817666359 1.6812749532924658 -1.1142760008919905 -0.5073827833997391
Ni 5.799200599448068 7.776843702448018 12.541283712174396 -1.0161647611398499 0.3182724894602067 -0.06906574444941009
Ni 1.823017291622067 6.693316230629452 13.577298492066662 -0.03388945365859325 -0.21521084768132615 -0.5569022302861054
Ni 2.7586085730741554 1.4521938509858257 0.07848609228536348 0.5487479766100872 0.8922175341612119 0.4850339833908937
Ni 7.8245721005212205 8.805425266721217 7.056707365799145 0.8827754149117054 1.605332022107248 -0.6398581024540464
Ni 8.90937378586577 2.2882690560587404 1.5394419815673506 -0.5500157875789172 1.205312593185537 0.78205116301675
Ni 6.862377060951671 0.8681007417434287 4.483636114090672 -0.03407688707905099 -0.178678299972931 1.1559615535562349
Ni 1.031102686749605 7.618413453542562 2.4550344817291556 -0.3878149164357192 -0.9712375616098563 0.35836627215729894
Ni 7.900023744309711 4.013608779389122 3.748729822370632 0.4520228185721957 -0.49430461005954224 0.08449776273376414
Ni 7.739208895805629 3.885932584085752 12.460026205470022 0.5169747979635484 0.08513128255270501 0.9172410527887429
Ni 8.17741092739075 7.239207508210398 8.903011819761046 -0.14788265474831305 0.20802898522090627 1.0973599418629423
Ni 6.813865931712509 1.1961406429397963 13.745142448471569 0.8133972814281991 -0.869098174534929 -2.0635249740458983
Ni 2.184866628425323 6.708388356336778 9.01394940009561 -0.14295462131907638 -0.03944046538380949 0.8309712857562205
Ni 0.41668784635143535 4.691317446232879 1.336203103868227 0.01647974282257807 0.9042682946781587 -0.0846877672573832
Ni 6.401885394187057 2.354255113654223 6.727039201747076 -0.15305699986040092 -1.1255659719835132 0.2803338054329043
Ni 3.2436379517391023 4.590681882255878 0.29330302017306836 0.1314445637969478 -0.24755969632567684 -0.3784540440461095
Ni 6.15833768174602 5.70272443248088 4.529141009561035 0.8327633446596369 -0.30051079460141145 1.1882589801373602
Ni 5.395129287308889 2.958669198178473 8.957307878408166 0.19529713947653463 1.3989256600914295 0.2101357471512639
P 0.16557949693873356 5.875753527784014 12.287585068693879 -0.050922754991796174 -0.9489044453302946 0.6479395939106002
P 3.9367919068227946 6.352473213954523 12.515161424739253 -0.055235266324221 1.0286646933790735 0.5653873849389811
P 2.3864563097608187 8.656815563491005 1.0802836882424256 1.895106147017446 -0.9181116283191543 0.9642017378089974
P 6.712411230468807 7.779301114248127 5.508261245365697 -1.2680048300084354 1.1897574190597573 -0.2182444923013274
P 4.730954588416096 1.2982415524716753 12.37842102050356 0.09860206334563018 -0.627418591139113 1.3002019835662704
P 4.1755795215917715 6.0886017957740775 8.169104875506385 0.9265628444103011 0.6043488538038431 0.16715358716278308
P 4.7750423764150645 1.0846287563660233 3.536726175917791 1.2155882640799323 -0.6899812443626827 0.596042905041309
P 0.6694726967033217 5.652911785140179 3.404182484945171 -0.4941138342049749 -0.0958602389344349 0.5577722915958846
Ni 0.6852501906125312 9.286741223110447 4.562909488304587 0.3045898497667916 -0.9580413746345565 2.7409720904973116
Ni 2.0813367794393067 6.730104595429581 4.847672547396023 0.7116173345752196 0.4547055076106814 -1.9220664776563734
Ni 6.3328958332803325 5.697554766175468 8.665538465228869 -1.3201102924544232 -0.46281939496706737 0.4264634820458526
Ni 8.717422619701807 2.953581445599732 10.377899413644608 -0.7871231782230187 -3.4464468025099033 0.1827702106541175
Ni 2.515497733842026 5.69213025716486 6.8736101633357185 0.4344434149275357 -0.9304398108672041 0.32151336499500754
Ni 0.6038789148433377 -0.06879478826775383 8.807739784575912 0.7345353768239736 0.15695402092196198 0.655273151457536
Ni 1.1904248851232495 0.9631415981888505 11.213033521013333 -0.4453088968871299 0.8487172968857318 0.7805331837103267
Ni 4.381938402124514 6.932795561312533 1.5455163394762093 0.3734599332656278 -0.1726935431444058 -1.52204190652834
Ni 5.914316689995332 8.019754308126066 8.102446215199688 -0.8713124085774285 0.03765946222398676 0.6458004360804104
Ni 5.4180560292513755 3.059759838414753 4.477268687070837 0.5847251660356445 0.14651251387366382 0.86257374315285
Ni 0.9837656542593834 7.681741865783854 6.717448014506508 -0.25344469435154415 0.43631132137420986 0.7247939811664937
Ni 5.1074937868688846 4.755738041496441 6.522695398890423 -0.0015123228794683631 0.7071510712737498 1.0100591624627444
Ni 0.8323690640173451 7.4616214791705096 10.933026008831366 -0.8315502981881421 -0.4612826466075668 0.22767298470407885
Ni 4.830825624277507 0.7027342204940378 10.146913626264713 -0.7324039323032677 -1.5499172927823694 0.305740418431467
Ni 8.690199957871727 7.2518313236428025 4.688952869989664 0.0636736268995613 -0.20615773634012233 -0.9419352131013133
Ni 7.769271233493614 6.32412196300143 6.588807057533467 -0.7294489634400018 -1.304296208240302 1.565154678557414
Ni 2.731577043272971 5.266897898969199 2.5360253137455917 -1.2636959182204366 -0.07416347068729162 0.04616544281246888
Ni 2.237291413494286 5.363046411029706 11.248666902267411 -0.43654760575473206 -0.013544057233021836 0.5683930045345243
Ni 1.4132484247167125 3.256006924466311 3.7612517007209583 -0.8731214367617092 1.0932294646343366 -1.7542778280127531
Ni 1.6476855104469805 0.8037684312741665 2.710757304410948 1.0159675575273794 2.518243080062069 -1.5496390994203182
Ni 1.3111020075589053 3.6715097522385833 7.862015775134713 -0.27595470252860216 -0.6829958141837851 0.9148684387915081
Ni 3.691159945114259 3.157282680778283 7.1054760682010585 -0.761283077231463 -1.6797227783139974 0.11385770395312005
Ni 4.455742669854413 7.028925870322669 5.8848459514444125 0.054531555388977054 0.042526817618617076 -0.05025349683891346
Ni 0.5381158446149018 0.3567725060547371 0.5809767470188532 -1.335925662220125 -0.6737709531514073 -1.6006011922904821
P 0.47696542735051983 5.817795015402216 7.938118177973971 0.1200358077393739 -0.03499502801794618 -1.1470223420850763
P 8.78239840800169 1.7278426427564173 8.047670506175288 0.22631955599997797 0.8087243014325621 -0.7652778002131531
P 1.717394091843367 3.281946271245225 10.484721284290249 0.0414963194715737 0.44399403473044824 -0.8000550557933382
P 4.130272129217936 6.247805674320309 3.8213690948767765 0.08722981695294654 -0.03292708974532394 -0.24755326856777365
P 6.966571321276234 4.265202240094216 10.137123115622579 -0.5900658615222677 -0.8424985696695297 0.4016060566825406
P 6.57364027596421 8.084812010152618 10.40801909094126 -0.9507846930721433 -0.7101091254608093 -1.1816394179383134
P 2.7119086473469247 8.796296436960077 5.627843454321526 -0.09017167319008985 -1.05324289693907 0.5674694642789904
P 7.34331985480829 4.337076984484771 1.6313300696884865 -1.4416985322825817 -0.23925220490124602 -1.3662790777010019
Ni 4.987972558131798 3.0380982084730634 0.5016023458753767 0.44405162744126103 -0.6091269919187767 -0.5065276344882954
Ni 1.8164641934884467 1.2160092724199256 6.982602747738122 -0.8699494667916309 0.468853002755657 -0.3961625170694661
Ni 7.326136175257908 0.8813443710409716 9.406585555991622 -0.5977328911492221 -0.18165923697812586 -0.36841465753223646
Ni 2.5616788726336783 1.588889657748109 9.281607962905777 0.5591241776380887 0.12042892941273453 -0.774427327922905
Ni 6.361729465068262 2.1358458137757683 2.3777452400056966 0.4796544642465352 1.2413525175282298 1.0889683753651374
Ni 4.43855899030403 7.178746076402565 10.29717434616359 -0.14103066482348614 0.8499755947728651 -0.2438763339368187
Ni 8.077994967788616 7.544418053783765 0.029567214717887584 1.107072798275332 -1.2683390734194027 1.1642232793443952
Ni 7.984094532448948 4.004115888620558 7.989244175398952 -0.11622517574403209 -0.5978866431182671 0.08408561489701002
Ni 2.9936918670925996 8.541098772281492 12.257719323949903 1.6463992244612033 -1.0245334448195194 -0.270115984359638
Ni 0.0698014169532794 5.05684379921111 9.909493060578612 0.9304282409029783 1.9754528636973139 0.6059925600548531
Ni 8.725850632023658 2.678205699584708 5.8421652592391355 0.009838069136344347 -0.8279263282823096 0.9206233389974144
Ni 3.666849771343564 2.777712674438696 11.172164942472504 -0.04169866529036689 -0.01427810718556896 0.9290411307474644
Ni 1.210666677135988 3.1520675068469437 12.695074913692762 -0.8920573544342636 0.29323123022086267 -0.4893120419409573
Ni 3.449960426171102 8.435639399956132 7.823930442995637 -0.32712968274052046 0.3680246211826694 0.64771513660462
Ni 5.822737143577989 7.798924002548246 3.4951513190225625 0.2867865030367835 1.181905012894874 -0.30191178871399615
Ni 3.5289707663071552 8.342467086631311 3.221045235770928 -1.416391935196993 0.8768209971004836 0.9877957230788535
Ni 3.367928379673435 4.259850543285092 9.261186870846881 -0.3802327332130871 0.46922709826562414 -0.7836115655253344
Ni 7.21570737018122 6.025127759129815 11.330924666589683 0.233887598155223 1.1931859851253321 -0.4370052621174409
Ni 8.140258501583196 8.995674447675475 2.692640718529044 -0.10898366369027038 0.36196530236246693 -0.6011398599482422
Ni 4.834548148078411 0.39530017231783193 1.3000045179001232 -1.9498022530087449 -0.10551370286379894 0.050381280666029364
Ni 5.8977428126323845 5.274324743520635 -0.07315350867912991 -0.3415414872904763 0.11612001762473549 1.3478787208169432
Ni 8.165806482779129 8.852816908362552 11.535921048802141 -0.18665823285461403 0.8982033194310015 -0.13099616340561956
Ni 0.44832110728645047 4.979198687852895 5.733319209392221 0.02545494973799487 -0.037676688615167375 -0.7603718782711034
Ni 7.629207862412664 6.378367053107509 2.66809026449345 0.6051536090933255 -0.54373098301147 -1.3623622591450988
P 8.830363445729716 1.8796560828519553 3.851407768599277 -1.8060037956321346 -0.44991168576646384 -1.906298930409472
P 2.050764756340931 3.058203477608018 1.447273566470499 -0.37574512975537866 0.20236330229469665 0.12277197572361437
P 5.193812651728961 1.0937939922279063 8.073379584367007 -0.43572819517723027 -0.6725813037186803 -0.726458256242794
P 8.403055939791743 1.7029954789997732 12.403411078205618 0.8513573056117403 1.0661385219548154 -0.3372965959711933
P 6.54550746161557 8.200210247980635 1.3627386005467967 -0.0031591144542719787 -0.6413223457043986 0.38239297408919953
P 1.8425582661955155 3.204637916318876 5.817441876225016 0.6170727291284146 0.259692732143785 1.703047311972551
P 7.038955751077182 4.213441866363801 5.9575780595074495 1.1913255348778256 0.6755414147882689 -1.211416649200746
P 2.4459529798989803 8.622184260159859 10.164870025303351 1.2897951864106498 0.3405392712782071 -1.598005406538848
