# total energy = -381163.9929336283 ev
CRYSTAL
PRIMVEC
9.35697228830352 0.00000000000000 0.00000000000000

0.00000000000000 9.35697228830352 0.00000000000000

0.00000000000000 0.00000000000000 13.69487476119393

PRIMCOORD
 96 1
Ni 3.297677731296169 2.3656110111818935 3.2922478802974706 -0.8662347369442049 0.005100297341042829 -0.7552947208585121
Ni 8.982412654179223 6.000336240020892 7.361214284567936 -0.2522164783713979 0.6708892607282381 0.7252421244475058
Ni 5.095956800804682 5.798824485569812 8.820417264949064 -0.983547746435777 0.6354679438061508 -0.31974084647561707
Ni 8.632218610620246 4.750188605121604 11.574127414288808 0.23763626656437783 1.020075666158482 -1.3331236739949557
Ni 2.297529681065528 5.300416001515612 2.7431105711709947 -1.207022119677476 0.34944043042257883 0.3077811030105796
Ni 5.121379694417405 4.53073953486059 0.6947346044823985 -1.9150175412293922 -1.0550508966820864 -2.007151223241859
Ni 7.332310597276917 7.036265352148865 3.6185423453265937 -0.23465712933139588 -0.08052360857736456 1.44517466375664
Ni 2.8779707408660418 6.433077492800126 0.6954541556486915 -0.2898898245524556 -0.5369095892142625 0.012229966407288614
Ni 7.149812210444921 0.2611212818891402 3.4996844695794587 -1.3996275712544606 -1.1014536523163418 0.8773678707428889
Ni 7.142176921086076 4.809240457013357 9.050572582862518 1.6038695786291086 1.2386495167747698 -0.2765560835580269
Ni 5.0867214691904925 6.595711027537971 13.139465595244008 0.8923034090067987 1.428406443159366 0.6574930419269903
Ni 4.1390660333019085 2.991807665301956 5.371622560364641 0.7740966840563636 0.2370210015778821 0.3632387697582518
Ni 6.543976327948445 4.701532349403475 4.664652778963585 -0.14563988146072337 0.7762546109396309 -2.0136658844319255
Ni 6.738105431291524 3.4798299101547863 10.719266007935275 -0.050877246465841415 -1.1658636431612952 2.0020846073522294
Ni 2.3768768057750917 1.7634243478642773 1.0505587382462986 0.4541519491000566 -0.970267484387103 0.021038822948170218
Ni 7.242418164837674 1.8930745554085833 1.0009461999638636 0.31914743586599226 0.7768631910579072 0.5699094411790507
Ni 5.558247371960427 9.039022336312815 0.913501551466133 0.45219328271178894 1.7826211550421365 -0.7120096849176318
Ni 1.6400433117298072 2.182204998041309 6.948697191617389 0.8178977404017139 -2.3904597671667926 -0.15344575065838734
Ni 0.13924578259025605 1.348844978229061 9.347176439234104 0.6845379618599243 -1.0502092523190685 0.06544100321262925
Ni 7.534898403537148 7.490256288915766 1.404477792459389 -0.5949607277207238 0.8541767773384064 -0.8156379978332597
Ni 9.081072569619982 4.70975712801429 5.452518263982158 -1.41705759380545 -1.2343436903105645 -0.5264796521301901
Ni 0.06690141591520153 0.1817095940710275 5.2241426421913175 -0.44126815115885293 -0.3860560247630835 -0.25167783225910856
Ni 3.5070212715234175 5.524187992957735 6.57892181222354 3.401449926084239 1.1170435363347988 -0.16704945748475103
Ni 7.781894400112425 0.02077996398054233 13.30322851653285 0.01640132417615885 -0.8798669830156589 0.10592867891403047
P 9.344939187168295 2.2787502377527806 5.675566961469087 -1.559993703181765 0.8242252252816386 -1.0745092625170138
Ni 7.389884047552618 6.86448069854711 10.263144488586256 -2.0312427169734244 -0.6740877130608778 2.006068274590326
P 1.746694081475044 9.416389027295917 8.045506508015444 0.6714255928476823 0.15925747224415798 0.6814577802727038
Ni 7.326649629063558 7.23351968422461 8.009926621021563 -2.655530732903356 -2.1426722711010258 -0.025320223932343493
P 5.454880899476163 0.9953666374091098 5.184783474104254 -1.5062327074102253 -1.601980589136512 0.10760400973392435
P 8.888234728447882 3.148770874854188 10.25370891776584 0.09345291504452292 0.38368366787616504 -1.2281730427234785
P 4.7049476442759985 7.340133026080832 1.578567068327177 -0.5608316472474987 -1.3788378882026189 1.5119801514169637
Ni 1.659047322376638 8.264377317391192 3.6302095540294657 1.2198120723532928 -0.12629592971647283 0.3000657366441929
Ni 8.858451485765036 0.14577320643428807 2.0718292176419597 -0.1896895634817701 -1.4981656141313748 0.17610693970132896
Ni 3.100713465360283 6.216089306241779 10.679811398731225 -1.2091594777354528 -0.1891043804022614 0.10872243960908372
Ni 4.892218086957273 3.453368392621927 9.152887331665488 0.5174609935713476 -0.8989839063507679 0.7056408052768105
Ni 2.6897178160981516 3.9502236192820486 0.541265288369618 -0.09577513541979635 0.5296680771605007 0.3972128127108514
Ni 8.877193501188769 8.58974731356167 10.9023117776441 -0.6027280303709684 0.21672599877427193 0.08347600633746914
Ni 1.2085652502047946 2.804125515841528 11.604516053076456 0.3697904548338406 -0.3955994454771445 -0.8864559490870862
Ni 4.4565574588349515 8.0197579917683 8.059981744091587 -0.3332802757229486 -0.005861343876783454 0.7397999676570227
Ni 6.607023606992436 5.2022332916597795 2.029128674763175 1.846531580542852 0.6082407326590815 1.4578620294163216
Ni 8.09224645581606 2.3278088432778095 3.386002870882953 1.1332931654244418 0.7131322285578493 -0.15244327753580195
Ni 1.1383879583036476 5.887481797671594 12.63612411541777 1.7804120632059595 0.3818203894151811 -1.099236847170681
Ni 1.717640682627969 4.535099883930715 9.376551717926699 -1.0234733789861212 0.23177260869474922 0.6751338949372049
Ni 2.5162582644630227 0.7106657854411842 5.157913992581142 0.9143560179314639 0.9315369005861248 -0.1710909745439763
Ni 6.039111533039339 6.5839960982766055 5.790206714124351 -0.11889243816355008 0.5278829602356199 0.7455929201897159
Ni 0.3502586066675265 3.7941680360384042 13.338383596986423 -0.8929934930952879 -0.7359543686586875 2.692648206580943
Ni 4.406114021416407 0.1433703359595928 3.3222669186811054 -0.1392792293500182 -0.6622318421635564 0.040234936260646836
Ni 4.42976844727322 4.435139349346722 2.8728290846127513 0.7077403681183166 -0.7520237634167242 0.7469895434269264
Ni 8.816186042096039 4.947040587390449 3.233606799487647 -1.3573144123085463 3.6101425130310725 0.848381767923184
Ni 2.7789084756183824 8.523462522117974 1.7059023609359705 0.6655112842457765 1.2276084284692599 -0.796121525066887
Ni 1.233239586037238 0.4166276108615047 11.921374947285162 0.769882645975016 0.783626992144302 0.14407536518708092
Ni 3.3718691642940617 8.26547208314485 12.66625263037677 -0.3171260345605893 1.1367361296677199 -0.08700227432317274
Ni 1.261778351410371 1.0910978205345279 3.148369460744514 -0.030077021891038527 0.9431158636729757 -0.07795867606366574
Ni 3.0338672555813773 3.506646992633278 7.879373465654795 0.9174955920017102 2.4533337809831943 -0.9171335806766011
Ni 2.600461657772146 2.2746612408780074 9.712322924454151 0.10444746638281367 -1.2128459254481048 0.07256630140350083
Ni 1.7941432877724728 3.7507891126712423 4.894712655760053 0.5649037604343433 -1.5264798876950356 -0.8699672074034437
P 5.339163223617298 4.125638778118155 6.94691655979755 -3.042690532253579 0.2512466582589608 0.2857727170602885
Ni 7.128628025263028 5.164777331729074 13.220004798218664 -0.6728846938917121 0.003684390830122687 0.11029595474379068
P 5.210196075047497 1.1104480391547376 9.499997317169717 -0.664109004581611 0.17304321317434068 -0.5938880634818352
Ni 6.809489772613371 8.948605913427377 9.404613277714903 -0.2739356152160443 1.6288807559614658 -0.18850377070378502
P 2.208909796852759 5.860758284915637 4.900820887247129 -0.4770098275348365 1.162191593626347 -0.2070033721698693
P 3.5075265480251057 5.177025608408888 12.648038348188134 -0.9583339661743108 -0.19963176229614651 -0.059973295229838644
P 0.739179286989233 7.023268517688773 2.09591874270856 0.41237589360453497 0.781141506718287 0.019347294178360227
Ni 7.11019478992366 2.3809003038440903 8.795985274697987 -0.7787820053471749 -0.8136780458934115 0.47730601861901667
Ni 7.306700564219125 4.250245577617832 6.8933291797018335 0.580315209893407 1.3783437221750197 -0.5093213951833486
Ni 0.09872822133820976 6.433470485634772 9.875552498324543 2.4119441622928135 -0.021921739773755795 -0.4175247847953261
Ni 3.3434801104769845 9.205960078287262 10.240150664970537 -0.35742833372406185 0.15912968841704206 -0.7736032893597129
Ni 8.022480870694066 0.9537374678533493 7.373745141809805 0.19381669827626619 0.8817348894623331 -2.204023420514998
Ni 8.180950552779109 1.8877410812240962 11.919251850280848 0.23149235845016908 -0.06055513587523765 0.26959096509410346
Ni 0.8949560324597232 8.364309781058425 0.1624585593567048 -0.27461901443631415 -1.1124386905729355 0.1066850974640808
Ni 2.3717304710356735 6.963028330320828 8.416431859299246 -0.5653084520719296 -0.16896724333275417 0.4568050704521875
Ni 6.745544224233046 2.62580969560684 5.371075177487813 0.8379572301557503 -1.47019561128101 0.8793314222271631
Ni 0.1834649620657815 7.092351043836262 4.7252111033881485 -0.9811080266460328 -1.6636860365661088 0.8423476459139622
Ni 5.661875839667786 2.149025174430447 3.2105577697356344 0.9056060396529758 1.1731977149288633 1.339626765220796
Ni 3.611267299399508 3.1727995796011412 11.761514819123251 0.05436520501444184 -0.886433580489583 0.0663156925080987
Ni 9.086958105167424 8.529011206664292 8.023210714529837 2.250475798440266 -0.6642984948845979 0.6787074712210763
Ni 0.7897677574777064 3.4052174134054867 2.6203910729748463 3.652933382944354 -2.551309009378103 -0.8681766911619241
Ni 4.227274210735524 1.6429907579896554 7.378634159812251 0.9180527500567608 -1.7814793281282095 0.2489324083034874
Ni 1.4360987444928206 5.026565494572829 6.865596985336952 0.522004647077972 -0.8008353856027886 1.327633597414662
Ni 4.306059917109878 8.303480104438512 5.577443200538453 -0.09854986995145609 0.8947043051388076 0.17372301285018465
Ni 5.887799934728212 2.8009722161921036 12.754119278323133 -0.3040625165084119 -0.45730052203136723 0.6147001151311801
Ni 0.29658420672985314 1.3021162587951505 0.4121212930242257 -0.27606705973675033 1.5666425759568503 -1.484370360119495
Ni 6.240305150433802 8.868051739297114 6.93026395627802 -0.5885476251055283 1.9322907264875433 -1.2426709792293373
Ni 4.763943354334229 2.1495772357934024 1.2388182128947665 -0.42924438722509944 -0.02077451354319003 -1.3718023215120763
Ni 5.730490517202601 0.43486247838909875 11.51146002831831 -0.3069886890162713 0.13223466379841098 1.1392527254419864
Ni 5.016272825093994 7.4493008213622565 10.664843050217323 1.2401854938033223 0.5695944810417931 0.23858320385867943
Ni 5.2037678351093515 4.978770080302021 11.345313886196507 0.2375732745369263 0.5679482036876218 -0.6563198475544955
Ni 9.031985893178193 5.94168673793604 0.6426855106251558 -0.006870501867588167 -0.7583335076848359 0.7036032060214914
P 1.5093357663208575 7.662929854881601 11.443615429599957 -0.21607525256415047 0.22171779556190846 -0.5074591451636292
Ni 4.054376077435604 6.6589641599715375 3.901286654396315 0.6437664363695171 0.3007560778429981 -0.7084013987410832
P 3.837359819960497 1.247733536057888 13.140683873031412 0.36903377917347413 -0.29063081648353817 -0.6921605114021886
Ni 9.055499964451204 3.158230773802463 7.670430403839997 0.8976302205363509 0.7712664136964201 1.1034745394011125
P 6.881734955382538 7.736428871932736 12.307679418164795 -0.3345848534669851 -0.4121156979646129 -0.9335793849374503
P 7.911815959852083 7.961304986100772 5.922129730229029 0.2746400974822367 -0.43405543546049763 -0.3727731916112484
P 8.47478755245534 3.8631757064078656 1.515502011035905 -2.1704283581683717 -1.092480245173138 -2.154270003240954
Ni 1.9808148842295241 8.093172796069155 6.280181759086483 -0.3651061619842938 -0.7910181424020506 0.1864854547221756
