# total energy = -381175.38165765395 ev
CRYSTAL
PRIMVEC
9.15754773743946 0.00000000000000 0.00000000000000

0.00000000000000 9.15754773743946 0.00000000000000

0.00000000000000 0.00000000000000 13.40299677285407

PRIMCOORD
 96 1
Ni 7.697175159971532 2.9084920595838786 9.342921077682465 1.3559586696116002 -0.8565421922467894 -0.5522876143322295
Ni 2.3495336698403575 4.832447020315964 2.750924548501537 0.6132667251187631 1.143938303843114 -0.5962395944331473
Ni 8.532233609526434 1.5594204638527593 11.18904970447382 0.4939986487833492 -1.1241611212161864 0.17799644341455798
Ni 2.461393113641221 6.8605416122313025 6.746826849288888 -0.14446437309538346 -1.4334422058110603 1.381821139200659
Ni 5.28537016652529 6.29213263337583 7.695263064034927 -0.8295978024474615 0.48397083223370196 -1.3295714378673231
Ni 3.1779620549407523 1.5310961691596714 4.4866259719349655 0.33218292889371176 -1.541698761527319 -0.014451142428323498
Ni 1.5974883891806504 9.081466683730332 7.696644022211364 -1.2127996455912016 -0.2748352442121783 -0.36554376374234465
Ni 0.14350609675927734 3.576104751472078 3.0296665607923754 1.1065464934582168 0.9460266095618676 -0.5033952595069008
Ni 2.406768342272236 1.8488539129538721 6.667655271607319 0.48193246164743453 -0.06542763347619054 -0.18194437231871247
Ni 9.143921158287997 1.8515828621354244 6.631909700348023 -1.6612062075670486 0.36052677014372747 1.402437787009746
Ni 5.293163239523615 5.080094579768012 5.2455705489483 -0.1481238242248417 -0.6503363762775509 0.2997345785570193
Ni 2.712621274200606 5.714923251287232 10.95334450283272 0.45742599186563804 1.6127398845355452 0.305264507236313
Ni 5.750188967052857 7.552321072207139 3.3526789053932022 0.08149677112391127 0.7265886111730713 -3.104773674737569
Ni 6.785559612571747 4.063606797377847 11.09878009486902 0.35479758096943415 0.09395402305065755 1.1186980412190863
Ni 7.277951788890096 5.788641509379491 6.411939912729274 -0.5870075343119181 -0.8893157871333845 -1.0138183723948604
Ni 5.240479868243519 5.498118312115275 12.471381093375577 0.23878169302273067 -0.14757746480306844 -0.6714854995513403
Ni 7.071861180397388 5.104563546926088 8.835657044079417 -0.3906385019274433 0.5737552972877021 -0.32038079405246117
Ni 4.344908344219839 3.4836135208221624 11.663528801953131 -0.18287922542815602 0.025787907597381397 -0.7987090832884051
Ni 8.60558556571513 3.9146867584838936 5.410856956893494 1.3851995687545884 1.958900615765588 -2.436742966504049
Ni 1.2766445518489227 5.755692653153908 5.188528185015792 -0.1803140358041411 -0.6910973602449969 -0.1711897049053697
Ni 8.313148441004794 1.8072786468993558 4.064539035722418 0.5485782838014424 -1.201441797376221 -0.09199021445606738
Ni 3.3225780464678283 8.749752837410341 6.0259868277938 1.2518953260410828 0.6062990355516784 -0.6216896590751358
Ni 6.785788551261475 3.565619359482558 3.044919372056781 0.0586409495716603 0.5840836757969038 1.2378115942545067
Ni 8.492279229395189 0.5054847221064862 8.767704377949256 0.5985672141250594 -0.16683965546679008 0.4769203531448238
P 3.450802027810415 1.8977094293417238 10.27878489534343 -0.25072266743469074 -0.9483100062794055 0.7489536091318327
Ni 3.605299013186131 6.63218900554949 4.39816680948853 0.11709266595064995 -0.897118828117571 0.4381080082633164
P 4.64291325786435 6.697775361382629 10.735920513443741 -0.7055976107437009 -0.3620164673153765 -0.09378304469043204
Ni 5.609226837013832 6.9017505763822555 0.8927665671971388 0.021722479278756136 1.1227896947899567 0.036985318975097596
P 5.4774955149446205 8.566574412985563 7.228115499155452 -0.35772272503602914 0.09037273345730241 -1.1492342621347302
P 3.6262514820699927 8.674230542443029 3.752919596077191 1.2248563196454196 0.3984775383558879 -0.030776104840592157
P 8.161389562358218 3.7215174496394066 7.3703212241570775 -0.7917056553873785 0.16559112777166968 1.8005337736564992
Ni 2.411493636828212 4.366236272554854 13.060509939406147 -1.4320077873573789 -0.08076143561978348 -0.7954805490487785
Ni 8.304146571724706 7.816030970130468 4.3362315678791665 -0.766675451891628 0.859110724304914 -0.29184591983756186
Ni 7.905665045932585 7.553493238298543 13.09058607295303 1.302038779664693 -1.5476688630678248 -0.3654694588609835
Ni 5.960492047436552 7.358007069914013 5.405066639552906 -1.0984981692324434 0.22955297533561114 2.521692986283883
Ni 3.556791483606665 1.1180907728912353 2.144613395929536 -0.012271875388817575 -0.9094899480884143 0.41183570483034876
Ni 7.038326241126101 6.486007073384679 10.918684100962734 -0.2628001674245151 -2.013652000474855 -0.538404428592234
Ni 0.3239335938882904 4.82985543434825 0.9401761068206713 -0.32206255263025824 -0.2752301656577518 -0.23596093574448396
Ni 3.1497018630807876 2.9871737084694305 8.45085781014017 1.3625463501314468 0.3867823614061468 -0.3915957236343901
Ni 1.2814431067856114 3.934027498992074 7.126413607140418 0.48302492338066494 -1.0755924682788638 -1.0945782653527472
Ni 4.859947135726033 1.5609131441097828 6.12717956016288 0.10920400723119257 -0.08570463855767176 -0.0004825960633733624
Ni 1.02976622639436 7.412128176165598 9.303288127471596 -0.6234742617793844 -1.3680883629955989 -0.27704562159993573
Ni 1.8261248798377248 3.387248647542057 4.835479084322716 -0.42509308406088725 0.8410104151597774 1.0778061881007308
Ni 0.05047273929208675 4.670340112893706 9.65055973139071 0.8450491040055254 0.5706764012520622 0.32099965858338264
Ni 6.703004321056005 -0.012148402631700828 0.5294115624472882 -0.6050052564409194 1.5524251468058876 1.3258016864122457
Ni 1.4696215521940392 6.869396960749963 0.6583269386328515 0.6173470658357239 -0.8313674927533745 -0.4784758705574018
Ni 5.912369134855829 8.315364567521355 11.685147940301478 -0.8790246896200217 0.9550020735876004 1.4853085556630483
Ni 1.3722951364170781 0.5124783412002822 10.076011150587494 1.0088977951647915 -0.6035780370760895 0.9464474991493701
Ni 0.8780741978451858 0.5890143766857082 2.8090942065422633 0.06172395937235821 0.8683199016080078 -0.8104723944719202
Ni 6.544999994953664 1.453943830721499 7.904578045033758 -0.1104443073961969 -0.38914237699789106 -0.9289850806985485
Ni 3.271817760181444 7.726735723589147 8.9673288420893 -0.406777573581151 -1.161811841689425 -0.5263351561325257
Ni 2.3188375703216924 1.8592752021102688 12.195882684440798 -0.631861457401815 0.1602758862063433 -1.2084112867155188
Ni 0.07739776071356028 5.778201905127916 7.3593843650714135 1.1456743126976139 2.2914226731662732 1.2564690614546943
Ni 8.027423798677265 2.561933828621956 1.345795025203739 -0.3827094768883538 -0.7029270058900733 -0.5310379609248339
Ni 5.550884101323672 7.990436463964889 9.293128744176249 0.7357864756222554 0.9851372024100841 1.1080387617330272
Ni 4.341144592160719 3.451342323118172 3.8144125281380012 -0.307951824260489 -1.76509265924007 0.14907461817388518
P 7.556203872384917 5.350855789334949 12.964437191894133 0.5657627660005289 -0.4819455742735571 -0.4168557837527595
Ni 3.65082118225155 7.108408952825488 12.940525919384234 -0.6424520884334678 1.2280671132732335 -0.31403865388451724
P 2.301126873284372 2.7403320132052245 2.9129801736572967 -0.5901064849522161 -0.8079426860715312 -1.5180350993617922
Ni 6.247068341689866 3.7029734157714773 0.20870325681987892 -0.17494942905811806 -0.0224470161496065 0.28806151309446515
P 9.051072783282105 8.00029914271835 6.3504066874590706 0.6080329875236496 -0.08455612677552533 1.3975987137498898
P 7.545599432276739 0.3463860690672472 2.715393263855827 1.0950068682497334 -1.0113092328197615 -1.6850465045197562
P 6.711310216719319 0.5188913717769295 10.18405281279846 0.8696777011874829 1.054278794402752 -0.26033705059600326
Ni 2.1038458255723778 3.654053796550502 10.465783848622381 -0.9265944689791848 -0.9138245709080263 1.3034019785608069
Ni 9.015220984470778 7.795875207886858 1.8222448269242228 -1.832727070559592 2.9347893029942105 -0.6943544337297138
Ni 5.548164309689709 3.7684315659383687 7.314766045953039 0.7265811549739035 -0.9621124593801366 0.025356733597233744
Ni 3.967251081645331 2.53012966584501 0.35410862894913575 0.08408741466922293 -0.004378588683669878 -0.01595343800546285
Ni 1.0286398480409007 0.6482756143990548 5.178140778785476 -0.02289207410682509 -1.2836998721461892 -0.1998456780791655
Ni 4.220493902674319 0.8335190658051758 8.34505425255998 -1.0791071663003418 -0.5037991798135388 0.24429439531084376
Ni 0.36371947514389685 6.265768053866809 3.1478410494106828 -0.07503584598991593 -3.572820122431531 -0.14684470040210193
Ni 8.57190410568242 8.058037480267629 10.800040745907863 0.15795829381676021 1.9320171611111823 -0.04899211362798659
Ni 7.111559149196139 0.12395015388275307 5.940274929624095 1.0338747768251033 1.1752373710667114 0.06377287148158693
Ni 1.0123943586178363 2.081244998122478 0.8751556874285394 0.882428573095248 0.7354627737342495 -0.1709030269028863
Ni 7.332210258355517 5.772048033148041 1.8288254406217503 0.9991162902979955 -0.4217246818092866 0.2827663261337969
Ni 5.089774107569691 5.24148719847832 2.8169614556760596 -0.28765322191245296 1.486233381470163 -1.7009482633516768
Ni 0.9307365067658265 2.376704113537219 8.898356940912471 -0.8562539715824092 0.25890520324548316 -0.4825760087687044
Ni 2.25817797509149 5.234206948144985 8.666605052565584 0.44389761836190006 1.531559616210788 0.2175225265336383
Ni 3.473778314711468 7.433932296975247 1.9794753402552852 -0.11412664134379052 -0.1213306152913975 0.12434420530674067
Ni 6.181005793382094 1.7244028412179955 12.010733555774843 -0.28325149330033156 -0.28019445164156265 0.42044015866990814
Ni 0.3112476432131094 5.787973008405487 11.80092315145144 -0.03746611526625805 0.21897571404039706 0.29071977665291865
Ni 1.630144203883383 7.904877496839922 4.0393411277762485 0.352673849758212 -0.45101366058139103 0.2702694792183668
Ni 5.520829030136244 2.5157706312253003 9.710109431853114 -1.2167385756342917 -0.29042230001715785 0.3980751607111467
Ni 1.584695295198677 7.928128510168648 11.887988535154815 -0.8849413122147728 -0.1348196509167678 -0.35776900489293223
Ni 9.18227296759115 3.4174593970384994 12.34129171958909 -0.009530565198254555 0.4101881419245968 0.14533417729484646
Ni 5.821443844843649 0.9327420096878395 3.6814275378038417 -1.4440120109071066 -0.2008286108177251 2.671390839864064
Ni 3.532459879662425 8.85829724898395 10.957204409141525 0.6230723983552753 0.8980074013701115 0.728591500535713
Ni 4.644186156979235 4.725898954116779 9.268613989280226 -0.48949484737572474 0.9889843440703161 1.8058945237477801
Ni 2.30369098660932 0.1334675930921053 0.3918056735996682 0.14027116094964232 -1.1494358366225752 0.22199496048269507
P 0.1441544511285857 0.1711609747236022 12.923075296698444 0.1865610451551174 0.3575790003693132 -0.2542635907084137
Ni 6.792061471360008 2.6599836906584557 5.381289982992565 -2.055442968368711 0.11685098225348908 1.4122925683166387
P 7.370937527109824 5.653805778677573 4.05017084355512 -0.21262920299707896 -0.27822241551685634 0.40938030131132075
Ni 7.551048173092254 7.573429219400015 8.229909080684145 0.8769343827498963 -0.6277291804009963 -0.9330947319915479
P 4.53926813425091 0.14823505433428888 0.13762420394279806 0.07150109336378008 -0.15981565874047315 -0.12402975939011543
P 3.9860423692981652 4.768948585333141 0.8806300693773037 1.7035664177008143 0.8181617926963779 1.0646567952029664
P 3.6218283865844576 4.585330598624086 6.908172764506491 -0.6172989862066078 1.1526252900941505 -0.3583721856945699
Ni 5.803495051569012 1.9174531019438246 1.7494798695359886 -0.25309502432160924 -0.06679983123336881 -1.6100528246216852
