# total energy = -340886.6404667783 ev
CRYSTAL
PRIMVEC
9.09017228992105 0.00000000000000 0.00000000000000

0.00000000000000 9.09017228992105 0.00000000000000

0.00000000000000 0.00000000000000 13.30438599499641

PRIMCOORD
 96 1
Ni 5.22386744872216 3.1643798507229706 10.45197909885279 -1.9176058707818586 -2.1679564995891116 -2.387556477477069
Ni 4.7486605156945405 0.5118875959607081 6.555177711045803 0.146364932552206 -0.6747464296907992 0.11846563503877663
Ni 3.6107800279925226 2.597516711223719 3.407759212663943 -0.5380257050965767 1.7643601519494194 -1.2350895673376536
Ni 4.599327166501247 4.842698347287224 2.779232889925545 0.7961819459911771 -0.4717462651430521 0.718082373474273
Ni 4.86041509293963 4.8134552632627035 12.008658364902367 -0.981976288183599 0.42674116118727146 1.2716377987753325
Ni 5.948845043777055 5.776777173867156 5.202520088285983 1.257308012416222 0.7687714151887083 0.8578485697630387
Ni 4.018746957125403 3.0331086737263595 7.820850566836698 -2.2159962766061576 1.2342241340135647 -1.4861284804611825
Ni 5.713718649192584 8.31518049515881 12.792725715441561 -0.7306506970575868 0.541439615874132 0.5025192846598506
Ni 2.3185575062052295 5.5504682463339075 11.456539484740315 -0.037688258579393154 -1.1192734541065819 2.075572135018419
Ni 8.041020901071295 7.086989146473388 9.518875647751821 0.43140617076310867 1.0403269602083505 1.4208520278508756
Ni 7.643598571711011 -0.020893760842511704 7.6116520704689306 0.9163799903400283 0.21080063442877245 0.08069535826853845
Ni 8.69280442942882 2.438956837229405 1.9052146492227684 0.8710100468456612 1.0944317124725538 -0.6931748115993158
Ni 1.37952453576662 1.4813890056387915 3.383997502486729 -0.18366418322329658 -0.670767133328077 -0.6335064492044057
Ni 1.8955008911908746 6.615800069566017 0.9029631670785545 -0.8742378097543396 -0.24458338730617232 -1.0837942873633657
Ni 7.678413931305015 4.182315516011701 4.1690620449182125 0.4574509315663025 0.3283697257952087 0.1881150199057986
Ni 7.11557773809823 3.936989948198907 13.228617653627387 -0.19524006098635407 -0.34219197639028165 -0.4969073377897119
Ni 4.51502490935378 0.528871673732363 10.666099923476471 0.1860375685514796 -0.8825226754709511 0.21982854895899562
Ni 0.4840407623888349 0.3347983149177202 0.9711976358139166 0.6922224749883755 -0.15585333165861548 0.22808024744482652
Ni 3.2933239436318367 4.599127182712457 9.468372468944414 0.04626494450481064 -0.19748566248742117 0.211869442012919
Ni 9.021814122678276 5.166662994955822 1.5104866469078277 -0.14422937426644192 -0.7267197374342967 0.3059833876802085
Ni 6.3102884714994625 2.407132144295042 7.451693218970304 1.059293474008524 0.3970012109206776 -0.5790918790092672
Ni 2.6557574446228807 4.131265108836784 0.5392681036978103 0.4920752065083913 1.9240752805562864 -1.0763146911568688
Ni 0.4291215779180415 -0.023147214535293364 5.340766154425278 -0.5327096922003018 0.8692249299207804 -0.7166860073473786
Ni 6.784404583860952 1.1811678878029706 1.0109853196110337 -0.20005959386218447 -0.6583949849159694 -0.32745107063568124
P 0.01552692316514868 6.093133347389494 12.65895019599896 -0.045093549904528796 -1.49263774233461 0.766877540600105
P 3.685901211200057 6.2453846418646854 13.174082983441407 1.3072151816593098 0.011802906172199028 0.10073145098380716
P 2.3536183004491136 8.463922983157948 1.7874578312622946 0.331875424955622 1.4985646493420062 -0.626811039462101
P 6.33723174195289 7.903050267150197 6.466783058365903 -0.8347662340222785 0.03205779976649318 -2.3715079086546385
P 4.641950984030305 1.2558527427440522 0.11222272111430422 0.1872418732722259 -1.4267025730943816 0.1619170213541921
P 3.9995121527126316 6.554086890379672 8.841975064539415 -2.2362174887490394 -0.6910359108794422 -0.7634232635029174
P 5.0795973254541575 1.3855058690859032 4.57424738135246 0.14929059083943322 0.24815207849403714 0.08571929384569107
P 9.278429684385522 5.729608270229221 3.7362571292175364 -0.38726727146236534 -0.9769675221150982 1.1265131663881307
Ni 2.9653505300152077 1.8176617464902316 5.4369701740574525 -0.46089055337547075 -1.0096557563767388 0.5667847795071399
Ni 1.857431249942913 6.905649300901378 5.360510008482243 -0.03220563819826711 -0.12839189301355305 -1.7054664629370047
Ni 6.739080985183221 1.1016288808976076 9.545271689837742 -0.8186245912654095 -0.3402405090908657 1.1650439754734774
Ni 8.374648401807368 2.587181185412131 10.813964300839375 -0.11983371903089685 -0.3404310278351169 -0.03369379270801939
Ni 3.01224672848661 4.54832221018742 5.192409089728172 0.2932248024629595 0.21908292904222265 0.8110789177076677
Ni 1.6847270679777708 6.874906338460928 9.662643084496183 0.2441696968075214 0.5830786315711571 -1.217253310487181
Ni 1.442764863885547 1.2267369211305803 12.04372915833569 -1.1430427886120378 1.2445643395973083 0.33645275991365925
Ni 4.383599199429468 7.161955796753221 2.0590930845249384 -0.916671039217886 0.8398181946238892 -0.24447051587739188
Ni 5.569339443857969 7.998397083542238 8.632471138385132 -0.29235114160875453 0.8291337183268495 -0.9185829115286179
Ni 7.080007894210152 0.7879361278350725 5.291620138329981 -0.4408338918349118 0.11783057255793901 0.5933134219252879
Ni 8.002405849490268 7.264420217991764 4.832591893815523 0.10340282716838321 0.34120338722476723 1.1003259664698017
Ni 5.056662820948761 5.038927894951918 7.374394939516617 0.11819232677273193 0.09024417829923813 -0.0010053013360627847
Ni 0.39468346047107367 7.562505145356412 7.434850038868023 1.0948469456331016 0.41015420336286784 -0.5274978089820593
Ni 6.2089421414437025 1.5653276558975484 11.984657583195824 1.3581885873833832 0.5379079485717897 -0.127715949992451
Ni 0.7441187706938243 7.533671119081691 2.9752733620081098 -0.25817141040325214 1.5387530486354337 -0.25099854680389677
Ni 7.270156116661168 6.31758787979032 7.506640582974972 -0.8125205352502006 -1.6304622415159726 -1.1529698179177625
Ni 2.323048051280801 5.463438937521114 2.938473617818969 -0.48037051647695334 -0.06646070272639523 0.35537222252598155
Ni 1.0920660197245282 0.9727120585053948 7.970218458684418 2.459203866610726 -0.763688344238846 -2.2258433446035664
Ni 1.074285642866598 3.685673956894613 4.363971699576889 -0.7853249486720153 -0.48939020347706036 0.07321961871678356
Ni 1.0182538213163512 7.75750751977171 11.849910324343144 0.6380999821123591 -0.43076648029658066 0.9210889657799234
Ni 2.2486813523673406 5.64176084591683 7.3068349615598125 -0.4813084549101905 -1.147691600237959 1.600633073969682
Ni 6.604773690665879 2.432557355988105 3.0164236626206686 -1.4246294926154366 -0.42819332025276574 1.0772891392549964
Ni 3.9972850605192813 7.113187022804961 6.524537467551414 0.7263669820805684 0.9646254556099776 0.18578354355914453
Ni 8.27442925310661 7.458849911557343 0.9626165132403551 0.5440451718177791 -0.5183354257565009 -0.5512221491821926
P 0.06179408171908214 5.64289711744405 8.37574922166294 2.436157012093591 -0.4562587110304142 0.1300407414708857
P 8.492929722704806 1.80916243546663 8.564578460125158 -2.6006970728929275 0.9409358253025213 2.341050363495729
P 1.7186061398333468 3.354355359901849 10.993267947834608 -0.16478097316554846 0.7997262116990098 -0.14051207331585477
P 4.107312505042998 6.319205930445081 4.4164038129289045 -1.8764309392054461 0.513349028285503 -1.489314848608964
P 6.690021325723992 4.363646271411493 10.999481080545443 3.411436090762673 0.03285818418060148 1.058415699389261
P 6.417588864357851 8.029140045982688 10.563430064345807 -0.6778767477896648 1.331674857363571 1.5906962744719444
P 2.270561396895479 8.778052064486936 6.293120772249009 1.0156176303871283 0.5480424659026304 1.378531926926426
P 6.644770448424004 4.401234133531914 2.0437797804069073 0.5398797275861799 -0.6657930771522534 0.10675965945575808
Ni 2.6314957749736907 1.80089946892069 0.9959674460900794 0.18278358039055617 -2.0267515139712904 0.5996211093108705
Ni 1.025925926668137 3.3458196881893767 8.809977658332915 0.8135484622940828 0.8845389345700314 -0.37154574696205045
Ni -0.004745978914890302 0.19801849355714876 9.97926105497839 0.8896022080255518 -0.2490825607281065 0.21582534133687348
Ni 2.8362246336619865 1.8995278374833404 9.739329595359616 -0.7357054858726748 0.10222269081735297 0.033386802990561855
Ni 4.990540908236805 3.1849418202795348 0.9722739122044989 -0.3022563165376085 0.17494300130021484 0.1357629886666436
Ni 4.028755236737152 7.263774815764303 11.234436579892222 0.603440997277593 -0.7417483496326451 -1.8362510245524506
Ni 7.03027556200681 6.4426777396788575 11.91773664434593 0.19635746242024893 -1.6295464145699228 -0.5186287886272035
Ni 7.784487150914009 4.052789652080898 8.967395806696679 -1.5176404350265347 -0.11706644069840483 -1.0632208340873883
Ni 3.1511081992850474 8.601466378984812 12.903631270601513 -0.17781415220042282 0.6927287252008327 1.5811327991532254
Ni 0.11920215534309711 5.09720498903995 10.602810508427568 -0.2759462178881699 -0.033702020238135504 0.5113237703253581
Ni 8.703812627984524 2.692536281415921 6.717557275406018 0.5994041082040581 0.6333722376193867 -2.1505511596284705
Ni 3.464946395103066 2.5427847843006117 12.177810107564808 0.6724509487884031 1.0294506796154788 -1.123532229382936
Ni 0.25423939068952484 3.6428683359212006 12.703480222642078 1.8992062852287488 0.44804866441579605 0.7954280985442881
Ni 3.0878951416827736 8.794632538612122 8.491843447124785 0.6398539886889884 -0.8310908420532203 0.10410448122109814
Ni 5.510762374086751 8.11569666584016 4.173878927176402 -0.2984348859089892 0.3865213944352763 0.9560996775271534
Ni 2.8400606863378792 8.821893965093171 3.742762965473784 1.0043983646325414 -0.7256285612526472 1.8311859513247173
Ni 5.082206204880654 3.509824575342127 5.229501537462725 1.2158060365176933 -0.9829134552858878 0.2855904258461533
Ni 5.859561372254258 5.727008480974943 9.621385519851456 -0.09976111665073788 0.41664675306574694 0.1340485770786982
Ni 7.765952289762004 -0.06913348676769816 3.078195927926428 0.8156629375339244 0.4726158122321989 -0.06946735076320294
Ni 4.717763020326388 0.8168074238158868 2.5622650233632625 0.6056279776265827 -1.470967713560344 -1.8942353143767183
Ni 6.172081493100703 6.09201525620671 0.7668505643587663 -1.194475393360717 -0.27216335380696993 -1.0337454503360908
Ni 8.029812718726802 8.603611659628202 12.002086170388928 -0.7474921940949578 1.4849406308006685 0.40429028838292314
Ni 0.05532642418614889 5.366701324779758 6.009990087199791 -0.3008362962616303 -0.8264258324773832 0.27555078222196416
Ni 6.794958273805766 6.385100588851592 3.0106759467273814 0.6977128086789856 -0.3016742187818933 -0.0767901096768613
P 8.513000822961612 1.9160992214363093 4.127273614215968 -0.030567588374211873 0.24107845947670736 0.5157350120191763
P 1.8070171548232394 3.3376021725045253 2.222590740067938 -1.1143675321645325 0.3135365174371181 0.9010256193711449
P 4.773440325160142 1.3697071497714437 8.624514510642932 0.18865700845219766 -1.6578722580978091 1.267993774264842
P 8.443451915323562 1.5916073437790805 12.889182441861392 -0.8497765913881816 0.5773769532006895 -0.13760981206739525
P 6.436250987920904 8.152575494527595 1.672388068209389 -1.952655406186824 0.07703076493275766 0.3229392988082567
P 1.9158356064419944 3.1184290301622153 6.715242008542156 -0.300649891282437 1.344739146746697 0.5279289829822069
P 7.111278086639232 4.245228597930788 6.39431438741151 -1.1495782757377104 0.16033887823379483 0.17552612749719448
P 2.242563666464791 8.975027006273486 10.675838224973353 1.5549872511061091 -0.5314812191098395 -2.0681221064982767
