# total energy = -381174.62716380396 ev
CRYSTAL
PRIMVEC
9.17051412801073 0.00000000000000 0.00000000000000

0.00000000000000 9.17051412801073 0.00000000000000

0.00000000000000 0.00000000000000 13.42197439611807

PRIMCOORD
 96 1
Ni 1.856616415562145 7.901965984608179 1.1587513033911412 -0.06855615180284323 -0.5249287627033025 0.3020277454665702
Ni 8.058424124273317 -0.07337328265991316 6.973843021210275 -0.6868390991892752 0.8002828555334282 0.671546948916895
Ni 5.61262969458151 2.482008789549826 9.840011979395259 0.5535456551090466 0.7266518603108388 -0.7264536282571037
Ni 6.960080830823108 0.4146787222364474 0.5593096499722665 -0.3215832990009946 -0.06864794018570113 0.4610551039777931
Ni 6.3038755297341496 1.7696340900991683 3.215770961793816 1.8540862529616586 -1.0068815360657113 3.687803969569294
Ni 7.7199587928882325 2.064942982514432 12.490677526357283 0.5830205246397121 -0.24864187364626208 0.018578020112503486
Ni 1.2750499280676175 7.731293548214773 7.784141386399068 -1.2250216415786903 2.311814092338431 -1.3490105204285412
Ni 3.7683934729439845 1.1528895108306842 3.265257806590428 0.03802635864510225 -0.5200300398501043 1.5118338556470867
Ni 4.569126074960355 8.669629713074787 1.6580564460392802 1.1204865005780766 -0.8803848031923418 0.41966625661836116
Ni 3.041052494615564 8.99999748058177 5.495788175475154 0.5296963592952748 0.12430152499426335 0.4143713267680089
Ni 3.042602311484646 8.704285085549705 12.509601799085317 0.33279922232147197 0.6247179043784982 0.849291424221647
Ni 2.0175589365822018 6.675996647566166 5.7604565464526845 0.7199888464683665 0.07772110613156293 -0.4990734922030953
Ni 1.197870882090136 4.197903667502127 2.718983125243683 0.6012771568570549 1.1592132277243132 -0.5730934953339872
Ni 5.692092198549532 8.284844115383587 12.313601320024942 -0.7865639632854389 0.8105042761511203 -0.12529345659388744
Ni 7.649575097798264 2.113234909334467 8.560911435285785 1.2257754890255794 -0.6807067610392922 0.4075764153333626
Ni 4.1590665406348934 6.768802249430723 13.515256873250404 -0.1467523977986118 -0.1584833130822948 -0.8298016909281516
Ni 0.267635949313832 5.625550948833205 1.2301483402801243 1.1318191519820766 0.5408698594135911 -1.401608092019599
Ni 7.447521162434451 7.531752333691957 10.868739149778829 -0.3457704377701593 -1.9869649781019716 -0.2812964264564897
Ni 0.18087555029009666 8.09467516618741 5.368655505537532 0.5908114814390406 -2.032078839721474 -0.7269812186257996
Ni 4.539459462111359 6.433638303092201 5.181177185154305 -0.12898864605728752 1.1296733092836673 -0.6391618477179702
Ni 0.33845432676826437 1.6985075833737229 10.454671183775996 -1.0320516075734356 0.036387794600414754 1.0816330180459888
Ni 5.778065767470503 3.5435324692168164 12.08431370918117 -0.23879480564885322 -0.6346598460825585 0.03988629467197647
Ni 7.814497621902237 4.132572925636207 0.3927520232188431 -0.3222492147197676 0.24051770187723095 -0.8213185931578049
Ni 2.521597898566555 1.9848660541071874 12.270664056340156 2.48320177218722 -1.4478712367521966 -2.0297921005698267
P 3.8981745873300726 5.44956878482324 6.9623807957388815 -0.46301017082163487 0.19989555748049445 0.18857396182008812
Ni 8.738509443865764 5.598360374769133 11.85875758049142 0.6893181568573871 0.9136255675233426 0.5605328850601572
P 4.768795676679426 1.443521441096647 12.920449080564945 -0.008925584624403984 -0.6555253766776581 -1.1603254869518855
Ni 8.116115827962046 0.6060453405634071 4.276992931549607 0.34963763403504944 0.8512207800338759 -0.2167491387027235
P 6.557486094908491 3.886372135788602 2.8953752112302644 0.07470623056463907 0.23320522737621774 -0.8855640334004362
P -0.03412715086746668 9.345120605144096 2.0410391206744958 -1.1506637954924055 -1.1220268484820033 0.6321800170834984
P 4.939037098913976 8.529476747334073 3.9387990473794603 -0.7837280364985406 0.09699640942140714 0.04607751108435291
Ni 4.994619584378509 4.538459876083371 8.777568497172238 1.6701392483906206 2.190437711410763 -1.6944536567662691
Ni 0.8323772947391003 1.0671727163022242 5.666945732060125 1.1565868458450597 1.3681431274929339 0.5999545813908894
Ni 4.403424057164833 5.894127792885309 10.784569420965244 0.5414506716177255 -0.03370536267224518 1.4905356083899426
Ni 5.966327249750888 2.9406812186859614 7.284347455353758 -0.0822192511122326 0.18842612338831422 -0.2934240629579592
Ni 3.1030726809208997 3.4968820644060457 7.504226118814818 -0.23378449691845543 0.2636943971040104 0.775279134400239
Ni 6.610638394158191 5.5813765828073585 4.440163887476095 1.6179787643369812 0.11394049347491345 0.46723886419100175
Ni -0.0693868602161856 7.121683628852477 3.0238366886491277 0.8989221998748971 1.1160310359098844 -0.2584927982984129
Ni 5.350894053987012 6.504242090518607 2.8417946489759114 -2.80154445276373 0.8979698632639567 -0.12151650604995846
Ni 2.4280311440384836 2.0364043428896785 9.686141758786066 1.3971030050603939 1.6169202411654797 -0.991765249249563
Ni 4.735818508269847 7.991140062921515 7.078306180494815 0.006113826207221729 -0.3885553941461695 0.2440015466607733
Ni 1.2757468871330033 5.366960794546962 7.738089816153688 -0.2507532635623101 -0.4793929830550325 -0.8034370848916936
Ni 3.0795136304080493 1.0253826839211189 1.054696231980413 -0.9244445125157176 -0.907119905194341 -1.4815496028412483
Ni 9.248555092532063 6.598203177149462 9.373718853109969 -1.1383852352353685 -0.5172056830274319 0.2201162554027435
Ni 3.013485929476744 5.671641952288864 1.6428498996942398 -0.6289733372207426 -0.6380796703973849 0.7983195611594703
Ni 8.251564320011404 2.2755896895133327 1.6072545495324535 -0.34677393933400924 -0.5462447505722593 0.35919031072049107
Ni 8.329981385381348 7.7132092945708095 13.255581847155804 0.028665743365808693 -0.9505031572759823 0.882490536681435
Ni 5.274567865813226 4.587907287669704 1.0376344906494832 0.6229225030409723 -0.16725334596544097 1.054924655516867
Ni 5.823496493916848 0.9663612556997463 5.6329478854403146 -0.4220591823305699 0.9873334387304543 0.4318746257590949
Ni 7.636039419107346 4.606688500379053 8.384800884079565 0.33890816343268726 0.30350150179861923 2.4340255675728857
Ni 8.724900401062701 3.034037051391613 3.9156196561469647 -0.9191369842598752 -0.3164963713963904 0.9300091510876886
Ni 3.761286324579851 3.789577360326112 10.270481409719707 -1.348429965334723 -1.3318733465276222 1.9812404169133688
Ni 6.068422582315918 3.3973086231960297 5.016583882503588 0.21463234947003682 -0.18606662201720212 -0.4959861115270232
Ni 5.194582642546163 7.751587895737131 9.668908528842994 -0.5506120264020194 0.021330643156976168 0.34617281541490064
Ni 2.024977882422956 9.110648902725817 9.692302510103517 -0.6310590161051777 -1.065663639200926 -1.1163223418980581
Ni 3.283264110865236 3.1996473640469523 1.2184559349068724 -1.1289174049542492 0.8503864570580387 0.4682842747363807
P 8.028528248573867 2.1063203417647167 6.023044127799476 -0.5637850734488677 -1.3184565589010842 0.44160470856266526
Ni 4.367714075577818 0.685718766353849 10.497849631979463 -0.9748229649682696 -0.4413861647939559 1.1070499154571967
P 1.966066500369802 2.8321298442520915 4.177589144848928 0.7677956815390002 -1.499628057609514 0.5671190229181072
Ni 4.29592729184306 1.4529945820774857 7.816179494173181 -1.4666040372750098 0.2336914229840169 -0.3697135788493181
P 2.3268712039033135 0.802169621563028 7.535955180266515 -1.0719039636836831 -0.4945768898843224 -0.3457334138846368
P 1.9392519173804772 3.860749719621648 11.381525865085177 -1.184621640495089 0.1450510988367889 1.0842779118680035
P 3.1274570776953916 7.664128703545207 10.7232984656552 1.38264723464638 -0.3627875411534462 -0.23447740922042198
Ni 2.931290612331287 4.649331390563854 4.972586507398293 0.5288180704553795 1.312269970474398 -0.5567803599962605
Ni 5.309094851091888 2.015422206815953 1.5136492788455063 -1.3133963707693574 0.7839776906155014 -4.2430761204511445
Ni 1.6440163890773596 9.161141752910229 3.4111817768028185 -0.14197014591862 -1.6997881816053049 1.0025296868549185
Ni 8.080561745113343 3.746787741917019 10.830217488593824 -1.0624235349970736 -1.199489558745857 -0.7037687850650782
Ni -0.04150482939513824 5.369922870574853 4.605629306009947 0.9314602817119185 0.8262545970068416 0.17544385219603334
Ni 7.0537484610053784 7.146599915440027 8.436153928478888 0.7150896093945363 -0.14479450274129257 -1.0529024828805156
Ni 6.753744265412777 0.6503325039116783 10.565147449102293 -0.03862234035788832 0.5354589728106649 0.32931383487603283
Ni 5.969087574470377 0.2883713985604674 8.42279890891413 2.221364482896606 -0.029397993546142916 -0.4125910949391346
Ni 7.070108658013913 8.369423766173785 2.7725774432690633 -0.623955572291177 -0.09607106939366035 -1.1205685187689218
Ni 1.9431585563522462 5.835775812187268 10.3737634067987 0.3254618081197943 -0.3104565929602137 0.8043945637089567
Ni 0.7863431484703548 2.394301993479409 7.959458688142711 -0.28944528081586923 -1.3439986690362467 -0.8678933555935506
Ni 1.3464882322696825 1.944625838595164 2.3368863222626297 0.03800553270949584 -0.2639260534988422 -0.07251153690616544
Ni 3.053331812885983 6.674575217893339 8.591982970882377 2.2148462221621146 3.676677520638829e-05 -0.43418630461140706
Ni 0.7638267854013777 0.6054446718952126 13.526933688749827 -0.6709242277312316 -0.33951802910254436 -1.2047590346749122
Ni 6.65163059181971 8.118344262868478 5.18419703542051 0.25775489169112387 -2.0553743199143053 0.1981484928824007
Ni 1.8221903059376836 6.130424427593218 12.680907000945982 0.005347380354842403 -0.1728508946578765 1.4812343855936747
Ni 6.340548415293079 5.820717828169323 12.654035560769744 0.40910596460401155 0.09997580376470523 -0.4089977211609215
Ni 6.1478208926858136 5.456474181878972 6.846092258627825 -0.811925581978679 0.7142905105320085 -0.5323101427690381
Ni 3.89636799606848 2.5669552609007544 5.392949114223243 -0.5516972890463981 -1.5646222030927117 1.0129169436265135
Ni 8.030353180863495 4.166696408298066 6.2143740640703635 0.24733446768874823 0.17898708946260142 -0.1652437717345799
Ni 0.9547880670087314 7.921765124373553 11.449481208063116 -0.936024246933517 0.055348909083949835 0.12732051432624525
Ni 4.130307808673702 3.4448760794086244 3.2387761132599655 1.4148004223401571 1.4454628844210204 0.14511434797455655
Ni 1.2113515376969441 3.577747657018858 6.018359829238962 -1.24276842403915 -0.25951198359154665 -0.20541520174714303
Ni 1.2120668377903667 2.8867494257447106 0.20923811604569967 -2.738687408228193 2.919207903616185 0.7279446109803334
Ni 7.302764598656583 5.862636247746683 2.0208392294465254 1.1776590931343267 -0.7716667344586323 -0.4124309152121865
P 1.9284673928950309 6.140108490396476 3.4749489460286282 -0.3259534030442322 0.79819074889109 0.41568773158658734
Ni 8.62779382812359 8.934602545117723 9.378027160595737 0.5006953440772345 0.10011232934256953 -1.049301910013451
P 6.112083399556744 7.224732694875406 0.8611809622189803 0.5894801642221268 1.40141808749598 -0.0654991101440743
Ni 0.8792661329143453 3.9872477899892074 9.527480861653746 -0.9671402516120311 -0.19610138054538487 0.5574388195158658
P 6.597194420607456 5.278667085579378 10.503177700624057 -0.0017357517441841074 0.34595041499144935 -0.8458368900141433
P 8.40362061294779 0.07017552442175398 11.721664815278592 0.9247669288521427 1.223897812386892 1.0136291392021897
P 7.966232946847983 6.6302999762132915 6.171289155109883 -0.1838241058399286 -0.4654414059709468 0.4960663299456553
Ni 3.4978174568359055 4.428753016883203 12.848024029054518 0.25477035514150315 0.6105403273265356 -1.6370584066762515
