# total energy = -381169.26134625747 ev
CRYSTAL
PRIMVEC
9.17995265187222 0.00000000000000 0.00000000000000
0.00000000000000 9.17995265187222 0.00000000000000
0.00000000000000 0.00000000000000 13.43578862984698
PRIMCOORD
 96 1
Ni 3.08386731719533 0.13165245168289516 1.470036271221316 1.0726133310458819 -0.7791255047295227 -0.14196166127818777
Ni 0.21898776504887732 8.005808968175677 5.858393187619144 0.4784928398382663 1.0151694871061163 -0.7308674410540832
Ni 2.054647771346664 5.824762431917757 7.813367789543414 0.6401388669192589 -0.4885114004165329 0.9171436079789302
Ni 2.3850801588098514 1.0357005922592513 5.013940380177175 -0.488757712099384 -1.9598583516931667 -0.5201105153790526
Ni 6.702916680694768 5.9044260590439 7.83732379338628 -0.6252845755152456 -2.1231532272314917 0.6776072961783621
Ni 2.3161387161136844 1.1370197271510751 7.198881970248141 0.2382929263117702 0.7606724402306577 1.7893368764994153
Ni 3.853927626192399 8.160674765550421 11.669331529183218 0.8188220519881962 -1.4637187453074147 -0.47902402975138786
Ni 5.113600697666175 7.646707589295694 9.063420270877966 -0.07146304103699305 1.2788623415482296 -1.5255864293464887
Ni 4.3662791308206925 1.0580354165042278 12.527918709370764 0.11878290916887929 0.34482581446870286 1.4025488586663133
Ni 4.272175438533288 6.727335354139749 7.1416853586818645 -0.40040560861653623 -0.4474069170667392 -1.6890260579927945
Ni 6.479366479291698 2.863071101519137 12.258302588714212 1.2357786229848782 -0.3012587285110295 -0.31316190770651875
Ni 4.183405298603602 3.489988412385535 12.396234127854388 -0.34431622182213606 -1.4697772927966688 -0.20508918586629193
Ni 6.161758485363336 5.416768626433275 5.423704998484038 2.5815151006478376 -1.9344972472205588 0.4894146289570926
Ni 8.408652820350897 9.137761361589297 2.2138281463601848 0.06044020756392817 -0.8711650843662867 0.056351382206535204
Ni 5.250923605960712 1.3770754830105654 1.5549370612047384 -0.29640422863220567 2.121668158045533 -0.07346001686236381
Ni 3.020745964335297 7.163897171564373 9.55402814019732 -1.334357546402057 -0.5465010895574394 1.3946853967578368
Ni 3.7760999895508403 2.929763455871687 8.729943811191335 -0.5160348026477823 -0.29115480730780824 0.2518177002710824
Ni 6.274671900165314 3.835044464058442 9.28669599170359 0.07957127196642425 0.045898048083695145 1.1089350482950515
Ni 3.7663325201728477 7.429197796586908 2.906604271899132 -0.06794062970603137 -0.9641418311053396 -0.577599867844773
Ni 8.557441489221667 8.758353927949804 12.84379444627692 0.08470653631046057 3.315072429829258 3.877142320359232
Ni 7.615082653198717 1.7667277435540425 0.7056748766883992 -1.5534319908038472 -0.15739907887918053 -0.6289131734067684
Ni 1.7659566275505167 2.33872139907408 11.360899815696813 0.5364244220477279 -0.8819418632668166 0.31633387767659715
Ni 6.625722460770391 6.098600412693612 10.166121663891177 -0.0962801000806729 -0.7953496798978689 1.8728414220819745
Ni 6.7375985409485795 7.6880357351037025 6.697337105612115 0.22445704886994247 2.564651749233596 -1.1302014138729954
P 4.339537929412711 0.8314393068872302 8.866935323203403 0.19597076850479153 -0.8853835419585139 -0.16827895901647794
Ni 8.109156872552967 0.8503288949878831 11.020019724381093 -1.6379243542209727 2.8447323010051138 -0.9205708884929241
P 4.3383261756928855 1.897973523344602 5.6165354070990325 0.7744396692180792 0.38742230898299085 1.0912679700325916
Ni 8.497716718758117 2.282218791910976 2.703549232275483 1.5406045000218758 1.1658119639877536 0.6674131292541796
P 0.491765461319884 8.785645926503161 10.861813342319644 2.654297631827203 -0.4059540492385912 -0.5515751616462372
P 2.990911118960791 2.2104223840112796 0.9910878594743199 -0.019296386335766767 0.6085533788034939 -0.5440225461099598
P 0.1752214238773398 6.751056351200587 2.927551087337762 -1.2819530646584116 0.7310782715133086 0.2879458134522073
Ni 2.727556643851917 7.49256700816236 5.247871271780089 0.7753182151682906 0.3209621204772279 0.5725396797130462
Ni 6.625254283196822 6.245250152649839 2.946414971571631 0.6445647639010964 0.22239810945838473 -0.7472037163202615
Ni 2.5784099568366536 0.3370410352124513 10.128676637958067 -0.10655474253380358 0.007222743000684335 -0.2616763382327171
Ni 2.1794492245363304 0.16228962489916526 12.597515600669928 -1.259579582059218 -0.04269985286137162 -0.5924557019106829
Ni 5.155654059715595 7.171415552598749 4.886932066425037 -0.9398973567356781 2.567710333554262 -0.8209072166519992
Ni 8.01661377217746 2.3677575885877924 8.750338911489349 0.779466175898393 0.4432985513253205 0.012483220068675275
Ni 2.8203200630855747 3.582448893189236 6.277025639966553 1.6149363779662318 -0.384421317373138 -0.26227489104866447
Ni 4.868082870115044 5.796001640976733 12.218345009802945 0.07430976645716879 0.44372535445009387 0.41657244818438577
Ni 0.3373485636186193 4.67160434840718 3.486251253754162 0.0022414877360090427 0.8090747427934454 -0.8867577965982213
Ni 1.0406761264724766 1.8589495455947476 8.997745973249117 0.7348536793953409 0.9810746023049361 0.6104626800110647
Ni 7.39069707612516 7.851273649088156 4.3472968252005675 1.275811727647364 0.6169115209602021 0.5164050415030074
Ni 5.137395134346398 4.309519484989747 7.3014238748026985 -1.006145429230635 -1.6775419686125947 -3.3714636641347933
Ni 7.289276961756684 5.119163748834468 12.661268534256656 0.7727332280499337 -0.7669878409257243 -1.1408730346542288
Ni 1.988028856613497 4.057630770457106 9.903506174952348 -1.5796053067651052 0.5001073327842483 -1.970660070294361
Ni 0.5251217364438245 6.8293062656536 9.778889238806384 0.7619471931780233 1.4184146220539766 -1.9101357876570588
Ni 8.988045517523812 9.133612023094134 8.273516576723502 0.15630353182215662 -0.9476525752010647 -0.019867171237572236
Ni 5.2841550337317 1.8296563174131937 10.614984617562522 -0.24987626027399548 -0.16166016814837963 -1.6734623992265825
Ni 8.60248751576096 4.8512560173238235 9.068203026090309 -0.13688938896160296 -1.0597431599514329 0.5397542577519091
Ni 2.0382890961290117 5.974138617743594 2.0595985196883477 -1.2100639918275935 0.1008558923768134 0.418776140703924
Ni 7.365929564488108 3.764827007975488 6.7757219653657454 1.335463634982042 -0.2905814513028415 0.14320093300192757
Ni 9.170653131120638 2.9091820025394894 12.769829733614927 -1.208531614343467 1.958485896825672 -1.216211756596544
Ni 6.65192204498542 0.8244753949791993 3.844892717017756 0.029737893384064913 -0.34006901651000787 -0.8568376120000212
Ni 3.838597105646114 2.126324839864863 3.546765500126084 0.6713152925220632 1.7532658418084708 -1.5383570987485957
Ni 6.707286338048081 0.5331119670327384 8.906032740572641 -0.2597243567126688 -2.1236869882477745 1.2403361604485734
Ni 2.188932115389212 8.091714962949409 7.6437543986012395 -0.8668047505150621 0.2787384359213264 -0.5967183338417789
P 0.6484883630697875 5.988340004141859 0.0503345971301404 0.7035386713321432 -0.6137056124283947 -0.19166417070963765
Ni 3.6399521151664387 4.32795282945498 1.4159975632885253 -2.349360426023322 -0.3262084564778317 -0.3028818659367493
P 6.324252823201532 0.2789760001469657 13.250548958184305 -0.2829594159812095 -0.383203642915953 -0.22835201304897448
Ni 1.224275174930978 3.6465341410536762 1.6094329307681907 0.7463251703700501 -0.8826502021877508 -0.8810095812605343
P 6.7477332084234884 3.26824666160978 2.3975759100479372 -1.5474022396699996 -0.5300061772262098 0.35255789300563795
P 5.229194658575648 6.022755645775405 1.2584218439585322 -1.0019830703228294 2.168078884099589 -0.04694525840128689
P 0.5111590288085555 2.222126823350509 6.601500238307262 -1.0306801811472055 -3.0486446929544853 -0.5510660832203026
Ni 2.0316795303845057 4.335406950822395 12.791286954408273 0.02916659426162719 0.42729240570505117 0.47701599818242363
Ni 1.8353662478202533 6.729511002863982 11.749422024097028 1.5220285367919013 1.6230062994585595 0.12665794104158187
Ni 7.616679964920306 0.9525669431172418 6.310924450278688 0.365038541971152 0.42256029033670445 0.40995699975039723
Ni 6.524283986497069 7.186938852145915 13.133711113721526 -2.248114497296941 1.9742429025496129 -0.1613920020886575
Ni 8.172085446412117 6.7838379613028525 1.1129342859790465 0.4528941654335555 1.0773878696163897 0.5519304881031268
Ni 5.193080725743861 4.539422213469482 3.307891204143424 -0.9671528500175214 -0.26830695617535727 -0.4152925530306977
Ni 4.452166765689579 0.0506650754173657 4.260945602734323 0.1484467547818992 -0.17694871887633395 -0.38124394808642087
Ni 8.17915400977777 4.524513970734652 1.3564775057640062 0.01080917480036203 -1.1976021119151568 0.178832309052292
Ni 8.909052026924542 6.614063921193276 7.525721324332995 0.3168288150351447 -0.2552915177522958 -0.2022812841038516
Ni 1.1475950323422848 2.8188604506503294 4.527713184154041 -0.30218381142846024 1.6958680206152923 0.8026151032110306
Ni 2.80288733343444 4.371052706080613 3.605346448517738 -0.33712536050065167 -0.025868383126329643 1.1445183447162999
Ni 1.4977092378002235 5.519905391904838 5.586023081235714 -0.6558261957475285 0.7582766863049716 -1.3640846411528444
Ni 0.6640456284409186 1.286221493880876 0.6174307480325475 1.6236878989066166 -0.4723409613042575 1.0267978153736639
Ni 0.7070316736565074 4.1244700040484235 7.139469318166969 -1.836076446647799 0.5514026406241148 1.3980322017428826
Ni 5.760447685242744 8.440241036638183 1.8990007600207273 0.8232556622795176 -1.487914625827328 0.35044213221421583
Ni 3.0418598549080254 6.942311479979808 0.288457973004605 2.3802373181078362 0.014014569111537154 -0.1992386406227859
Ni 6.0328076936785076 8.441728188930696 10.877036457422584 1.4714909330536659 0.8405208771178686 2.6903396130524246
Ni 5.624538489621338 4.025519296881714 0.7028704012231957 3.088986329996325 -0.803113640114004 -0.13930905414668912
Ni 4.3996390779256025 0.008591517472615565 6.7942232414789085 0.5726247832276847 -0.19641171269695207 0.0008600340074501317
Ni 1.1400674713554861 8.090218630704472 0.8851916003044257 -1.1110330684746608 -0.748506237181769 1.1982939957758587
Ni 5.882127954608617 2.0394457701343 7.693681405843801 -2.126476892288086 1.4403584733149195 -2.446889310909431
Ni 1.6988419953865117 1.4470083605684083 2.7700295297270645 -0.6195893249026813 -0.040770754159458814 -0.2414471556700358
Ni 0.3205630206133008 5.205308422371197 11.34985541493679 -1.7638657288115043 -2.8152386624213706 0.3143669837582134
Ni 1.3641042102369723 8.31416357006173 3.590109563486167 0.22404027304749805 0.6098697836220722 -0.45897713840284177
Ni 4.355015329197763 5.327869967169669 8.93813136221464 -0.8634772288037259 0.3709456514842063 3.2744122331057346
P 8.156993604628829 3.526230864551243 10.844870822127895 -0.8413433730191637 -0.6188532180676052 -0.3353901229770998
Ni 6.221951433400456 2.8847541491420854 4.632525290942787 0.19194750627801135 0.31430861971645224 1.0855598639042205
P 3.9498948488216574 5.4299418581601735 5.131476819019337 -1.2623466032813937 -0.5318182907342841 0.4339065685874592
Ni 8.311427944239698 7.201792015166208 11.617227037225936 -0.9715111269862172 -3.230611433870701 -2.4262096710728924
P 8.306378970407089 4.782149335484044 5.104108626860871 -0.8188603614252994 0.12733131295952266 1.735864872723204
P 7.290975252954925 7.682445144078141 8.95839243520728 1.96727906963727 0.25663106249932577 -0.5819051800883462
P 3.4648078028894513 4.881962958178508 10.952411210776734 0.4936518069668917 1.0825740418030194 0.17676179967650849
Ni 9.007552916422528 0.9859544300794203 4.4188159985370925 0.39826156569033994 -2.1459763957735944 1.2198526957832412
