# total energy = -381164.81294228643 ev
CRYSTAL
PRIMVEC
9.27290718974741 0.00000000000000 0.00000000000000
0.00000000000000 9.27290718974741 0.00000000000000
0.00000000000000 0.00000000000000 13.57183699202262
PRIMCOORD
 96 1
Ni 1.0364699251440805 7.059241672786023 0.7650704783217698 -0.34102289578284495 -0.565781020832974 0.535231173070575
Ni 7.851092306992133 7.200746236080695 3.0783501728925624 -0.7061223728989193 -1.0925450369728023 -1.695875219704144
Ni 1.6275899380107552 4.9646959488100135 2.047990166277634 -0.39556087892972525 -0.35596820423876757 -1.1119180421827752
Ni 4.678765856464586 0.5713093740054206 8.892444417757094 -2.385317303733905 0.7630622806190729 -0.15825782733505003
Ni 8.930523611018533 7.368075845822003 5.121495245177964 -1.366806925180014 0.3695600839905893 1.1998765097716304
Ni 1.4869292092678403 1.3054862348257141 5.967115758854615 0.8166484413756451 -1.2217211164505477 -0.21418831995408275
Ni 6.850870175944964 0.8159073372569193 8.604829438180301 2.217603730302594 1.4285691939894751 0.11008743827741041
Ni 0.9612388293374177 3.1841030426234984 7.071605239905342 -0.3907009797342626 1.3127330261537458 -2.2930499243570512
Ni 1.349949824668306 1.7637533067800188 12.059336944687608 -0.0038137173191353673 0.3671090513469355 0.33902669128842255
Ni 7.370403345519707 6.183146677011625 0.29616738185245933 0.0640963162592767 -0.5408840004809781 0.789613291634724
Ni 3.486121628895285 8.856266170463897 5.9436506672807505 -0.4060234690239459 0.8623523711706632 3.1478599644040814
Ni 2.923673444974032 3.544179300637614 12.118320052564723 1.530291548131642 -2.4566957554768916 -0.9789673261539463
Ni 5.556622704599796 3.733179694416907 3.4891835428402325 -0.6516725785904712 0.7067445798639506 1.4852368218848484
Ni 5.361808198029825 3.0068885138473203 9.589452684799273 -0.532677810521102 -0.23471806447631835 0.055772883995245874
Ni 6.895815956959988 8.651603836487705 4.437950312044536 -1.404655106376039 1.3548119576016666 2.104020620167099
Ni 0.6939648989115552 8.1947833380507 6.906721823073413 0.1281808054440115 1.8414654788738545 0.2800684675866596
Ni 8.314617117307385 7.610933284399163 8.877596638809031 -1.6027308370389752 0.08931729560959456 -1.5766454528058331
Ni 5.252860811781522 7.200848238059479 5.7211806423903315 -0.09230106082826683 0.0844010892548998 0.024442963533712742
Ni 4.115334744384143 5.088887994432919 5.622948100367914 -0.3458519417403721 -0.8292895271784234 0.6102256242995943
Ni 6.186985660576762 8.214015347505034 1.5071932932893244 -0.8038844568417576 0.1007939287906264 -0.3587629933750853
Ni 1.6333113217298123 2.3708876303157562 1.230433178836565 -0.6021377050851372 0.1518390682928998 -0.23794145650962242
Ni 9.22064505740126 0.636410746028132 9.297752989617546 -0.22763210416381444 0.1930890760816223 -0.1304955696201172
Ni 1.6500767378790107 3.369885737617519 4.346380353818134 1.0622921516255317 2.2157800468302935 0.7465863944512368
Ni 3.0267418080815203 2.244831730353255 10.15299599905638 -0.36901860966482253 -0.41930295974167137 0.6025377687370332
P 3.2986141731691014 2.8990538764584777 2.80975021674251 -0.5503096646702523 -0.46892576497512145 0.9935148849508181
Ni 7.8594657421595695 3.34999535175467 7.80778319409123 0.07340473814439616 0.18311448136741365 -0.6564792559504953
P 6.1479096297953895 1.339805264232895 10.698977354439053 0.6778687773698648 -0.8742601783518428 0.5616909099240003
Ni 4.955237583504602 5.380048006417807 12.422085654545862 -1.5991096953466202 -1.5146548700356497 1.3120205734677535
P 1.8276714558488376 5.204919881753118 6.108453409820369 -0.14051438730869995 -0.10970357257543044 -0.5092470903019874
P 6.042448856640061 1.7829667704200294 4.4460251596013505 0.19006417321236943 -1.2379925999170613 -0.5417676886375121
P 6.493853977294363 5.633439467531189 4.694756057575028 0.4121830608674385 -0.18128694124037167 -0.21372243606125774
Ni 0.5833752808048327 5.3757361045874 10.41113240676464 -0.19254245954953292 -0.4267735570871037 -1.5608971888326408
Ni 5.412141538106069 7.902176752548511 7.830053935222607 -2.853886713810872 -0.8943340662835824 2.932653744708446
Ni 4.218143466091091 0.30412909994189613 11.185826308139307 -0.39712848052716127 0.20435102214868678 0.47031596045442875
Ni 1.365426306721963 7.5613046852672445 9.029777100119507 2.1845681400038637 0.09417950879790232 0.10521802600025106
Ni 5.595420548166303 4.684552150533779 7.994069407944156 -1.3290309919828207 -0.06696309628411047 -0.19177421392494068
Ni 0.7606167010117808 7.8984119522406715 3.1608540097865125 -0.4218326681420606 1.796706943711241 -0.16006582707806624
Ni 5.186207155099863 1.9466057631107945 1.9474903984540652 -0.6363426331016202 -1.0208374840251708 0.08484074789547968
Ni 4.54845369211465 9.121480588209044 3.924228473388322 0.31524218727431513 2.296753341350567 -0.3674260683667221
Ni 7.361417898479567 8.094014655919427 12.502118261681096 1.7757573380427676 -0.08098075071944118 -0.4391410775135211
Ni 8.653449145012978 5.221017648586639 5.676393428087781 -1.009964288756093 -2.0257750089906335 -1.030123023092155
Ni 8.681026770913261 2.7115649665466184 4.603743401069072 -0.6843081052373053 0.22509751066741876 -0.6475654984006332
Ni 0.7456882477714079 8.792987851989269 12.69588307516031 -0.3223263478146062 0.16504322568799965 1.029984697742078
Ni 6.743897918922203 3.6073092525976485 1.5842539336790826 1.6939198957499857 -0.9560143169021987 -2.726637161931878
Ni 0.252390914430584 5.981349671348542 7.595220343212871 0.2954341514094525 -0.7130813207152559 0.7371537882834271
Ni 6.591200956682795 3.6464965582649675 5.726976209366686 0.25702187017984124 0.1795262497955231 0.09627007277834387
Ni 3.0782435344601975 7.14535916160107 4.494530809675931 -0.26569960045949725 -2.315397695924632 1.9947824172638613
Ni 7.7610987429832985 0.5624518930841185 2.599780070706692 -0.2650660806405564 0.3115757941663215 -1.4385116499141677
Ni 7.787684167817233 3.8158662075819523 12.379266151143124 -1.8216810971580757 0.14670020440443768 -0.1584401185491852
Ni 3.210299005356621 2.8671828945421085 7.927093054093255 0.04319633288181593 -0.5249123076430703 -0.3461087949461846
Ni -0.07768563433248844 4.260149735535709 0.6355734025113882 -0.0835269141800626 -1.234220534469139 0.2748792100762363
Ni 1.0738582868219388 0.01270388281216911 1.453163772418241 -1.3496052165897467 0.8188958426489252 -1.538903201060053
Ni 3.2611238095124597 0.402833632938869 1.9326704382274895 0.6312407930986806 1.3063926857580146 1.917334876508659
Ni 9.288671104342919 5.96683757163975 12.635515522243884 -0.8694738127067929 0.7872368209827474 -1.740535795836312
Ni 5.17780590121094 7.863434546424977 12.43800538156187 -1.537195988560959 -0.8667355878400235 0.6466910662154798
Ni 2.9423490799986363 5.4298342449714845 10.608236394112952 1.2385371595666217 -0.6437294124839946 -0.25090778686230336
P 8.784744237522101 2.4416399119630925 2.170340612538133 0.24245579944020823 1.2260665379034368 -0.38166483767392334
Ni 6.848524130432935 6.324335961462784 7.264366724829608 2.8933024966043335 -0.5741340207833596 -1.5255843724639595
P 4.029115253590312 6.60234699109172 0.5329445752033861 -0.6830395229375269 0.6629702629914775 -0.6301724997351663
Ni 2.148217310630635 0.7399881917388237 8.484122151068938 0.35162201145492994 -0.6199549357722162 -0.6454397103068819
P 5.255225403107875 3.1743015797530876 13.257472587878347 1.2335641318320627 0.4461421914217026 0.19528582662262498
P 2.2464173974779853 9.040073736232376 4.309004046919586 -0.38457866888660863 0.9746350173271796 -0.45723830133486415
P 5.029411567894778 2.85572158128967 6.956692592479616 0.09495058263597196 -0.9842823106089564 -0.04278752747917147
Ni 3.6022369723799432 1.911146166122667 5.220189577977059 1.442639298929296 1.1476517481389588 -0.5415573723989189
Ni 0.829512546645251 3.1106430720848097 9.179461294821927 -0.0076379761612320055 -0.13993588909741062 2.270943579376315
Ni 3.9672649628186565 1.4364753213984884 13.351728907309628 -0.6329004401892907 2.440479293618029 -0.2121288663218927
Ni 5.259787673431661 7.1277870025287635 3.486672439580718 0.8143053950647653 -2.415891062755704 -2.044679302094304
Ni 8.43293941269664 1.586603688353976 -0.17981836110731458 0.8050435101468651 2.4691342383505606 5.625547234530976
Ni 6.634060333586331 6.176052903032567 11.276635887978411 2.2408573015138953 0.14587179496587135 -0.37223480260927505
Ni 3.8411626983203444 7.51225100637938 9.731604497013864 0.26579601682804543 0.4983497266631933 -0.34793067864627175
Ni 2.7564736559329943 7.296980466609667 2.3581475831656546 1.8375278343823451 -0.3662667579512982 -2.7943566767660393
Ni 8.972344422319907 0.30509811874034254 4.589330521466915 -0.07871586594466444 -0.3253306818585688 0.6205115796066345
Ni 8.58201066823564 1.3681989059634512 6.519937737850824 -1.574077949188973 -0.4418157961322068 2.192108928465599
Ni 2.4066717790545598 5.005060913686926 8.248012607033688 -0.27822370106843697 -0.1829288477191688 0.5936042136928292
Ni 3.5170189555596263 3.751169134311511 0.8787952663400213 1.1928969931300037 1.11856562940628 -0.058278166915602864
Ni 2.91904626430011 7.111123588358349 7.4088117269854035 0.5715505763268995 -0.19088898310650995 -1.131220342055813
Ni 2.149459880190365 5.21682629454934 13.047624844217069 -0.18590387118709273 2.704656029675097 1.7181687409950215
Ni 3.1479479775982084 8.787006826869671 13.513980673088932 -1.3547371384996734 -3.3724190860695273 -0.7438908498969448
Ni 6.157571999058368 0.7318790344255084 13.220841822715636 0.2838844988986401 0.8935185123608225 -0.47806783648570567
Ni 8.389514388456211 0.7218429670038948 11.644418859135005 -1.6110892363059999 -1.0945713233742116 -5.705455578121845
Ni 3.528007350546795 5.125386157023208 3.2591273526004447 0.8074081537242999 -0.27018180460056695 0.06362657571170977
Ni 5.573128479348454 5.570967891979668 1.610135544859408 -0.9204294778190535 0.4466690104594501 0.4817056903486091
Ni 1.2131837169335014 1.3592598234591218 3.412720077671718 0.9443952446060316 0.7099723427726289 -1.0974193343459682
Ni 8.259804963071815 4.938657625498648 2.7169191431420536 0.2905014899945255 -0.45518039036457086 1.0010836984370113
Ni 5.578747861088727 0.5106701249091442 6.5862362421881695 -0.3636182645848577 2.616270244740836 -2.0004146758489743
Ni 2.2554584819610985 7.447674480902047 11.640035555919448 1.1681372696868204 -0.22703843644387353 -0.1482132986148544
Ni 7.554600373388997 5.23535356305935 9.289338753658596 0.27702530988496166 -0.3277151229303453 0.393213204633155
Ni 9.387427565620001 7.5695019351986 10.767895455049713 -2.220252737889666 1.1899826476966862 2.659009435480576
P 7.2234277669993565 8.544854129236837 7.153986674424751 3.064418410848974 0.14056400959971277 -1.4618626659352822
Ni 6.387790465173494 8.303888363720757 10.176014136505025 -0.5150017333975776 0.3336636272042963 0.4905546560988068
P 0.52566163391822 3.834551115513719 11.846680437446912 1.0255834833505884 -0.5330020266297402 0.061975670371848104
Ni 0.9308329667526714 5.951481637379201 3.9632210480052352 1.1429898238869154 -2.8041050144020545 1.354156840516171
P 5.102908630062116 5.769649200836264 9.884966326696798 -0.28436786629296185 -0.43058573174434234 -0.18840118368764971
P 1.7353967566781114 0.16336636922019748 10.61937871935901 0.27682707783122645 -0.34581363230326895 -0.3531965550309014
P 8.262475560334519 8.27707111620777 0.84354245518161 0.9700520259421874 -0.10980178871619155 0.8354167231220838
Ni 7.810439881993191 2.8032183809374795 10.053012732161744 0.20676323113460518 -0.4370371437966409 0.8917020279773741
