# total energy = -381178.56122119044 ev
CRYSTAL
PRIMVEC
9.09293817931566 0.00000000000000 0.00000000000000

0.00000000000000 9.09293817931566 0.00000000000000

0.00000000000000 0.00000000000000 13.30843415371485

PRIMCOORD
 96 1
Ni 4.471106841486358 6.917971053687344 7.540106250005026 1.5677792606644547 1.5513260002044378 -0.734256155020658
Ni 8.651121451511 1.838137462592874 6.5875818710899 0.5417093245957509 -1.3686406359546428 -0.8640207600120217
Ni 1.7824614018288067 0.6774311722638595 2.4943866352568813 0.8637240547072093 0.2754394534550805 1.7543390202679916
Ni 1.2795491743685712 0.02186487926070158 7.122434862660203 -0.8053690118070839 1.8398685667003798 0.8838393373998455
Ni 8.346207953944209 8.38027010054264 6.08859506506227 -0.34252827668377783 0.3050950715379842 -0.44043177130048666
Ni 3.320068163080315 0.7183475756978215 8.03529948220434 0.6039433908353082 0.4893680919898733 1.008249362947515
Ni 2.2426822843131657 5.769360189787918 13.110311997450843 -1.5606727315266606 1.906745016807955 -0.8690374965003227
Ni 6.438418584532333 4.64308158217406 11.739010529902487 2.0288708743071378 0.0948881048291527 -0.060257659239476874
Ni 8.344934942592426 0.7649916209209857 11.191169185368706 1.991345880778487 1.1219036926405774 -2.8467161642043615
Ni 4.6761525985057455 3.5241227898329575 10.524016670476673 1.0355385376807713 1.3469852624683964 -1.3842513459087062
Ni 5.47341232931297 6.335750219011006 10.107875624635456 1.1572902996699874 0.026450737992360897 0.16424746925958164
Ni 3.1505939804050445 8.57651389335827 12.882856694170956 -0.09912579705958412 -0.08661146664265729 -0.25025087000459484
Ni 1.9428062745241454 2.6200119419199748 6.478346585581018 -0.1611544321565547 -1.2881409386366782 2.8247329750650514
Ni 1.3167301987788715 4.829750511036633 1.8438305512168134 -0.3082050779218756 0.7760772048215021 -0.10236924369754627
Ni 4.9552057797548805 4.881980348212658 6.707716861651517 2.577488238876632 -1.0089343048296817 -0.9570813247141323
Ni 7.951474412570876 4.845535851798746 1.0289350667182755 0.624287501709299 0.552106608669675 -0.8257324059547844
Ni 8.646429495385856 3.7147653327007397 8.01722726747813 -1.205064481730473 0.4111008835468533 -0.12439614159059866
Ni 0.2959278560108462 6.484919870625332 7.816895289635632 -1.0069126464139626 -0.7313618641919986 -0.4914162327681537
Ni 5.773415640237169 3.0317219989631616 4.541716234700666 0.013107998136867749 0.3093358490922092 -0.6841908629331507
Ni 8.095761156357291 0.9358088305723878 8.602851588932843 -0.815466505252402 -0.707073423958279 0.7554014216397055
Ni 5.98098923408367 4.6547569148575585 2.2807726025461688 0.47093302521313735 -0.48294341941045216 -1.089657173902046
Ni 3.9939094433321456 4.959897735880026 3.2709071925559106 0.08154562208397569 0.15783179554122495 -1.1195776156105623
Ni 6.055369468780726 7.697672320778186 5.756483679964629 -1.714242923578054 0.4218581220633573 -1.2525491575749979
Ni 0.38097865371731393 3.050771704548776 10.70028691518282 1.7300451807176336 -1.2995625502100585 -0.66642222609582
P 0.657083904393248 4.7877138576131015 6.31304242437666 -0.15989510582815689 0.3018680799602543 -0.1238847491718189
Ni 7.471476389442741 7.640968757994466 1.4964266626089626 -0.5440017201743534 -2.3346637432430954 -0.3092877694630931
P 0.862469737302327 1.888748756764489 8.642364042704553 1.4324024516926364 0.7915076804439594 -0.09266127238116299
Ni 3.442031743519386 8.984232150519793 5.928348396099784 0.4295482916187634 -0.11852811284559588 0.29787849918488696
P 4.207138844755855 6.227380581221336 4.983689408751033 -1.0681699505625475 1.2099907153874967 0.9434537066283687
P 0.4224951910742595 1.3084556249922799 0.19191828210103376 0.5464272988967106 -0.16173010215436665 -0.7082044522389287
P 8.607684485600508 8.01818930034255 9.831712179154872 -0.512889315040265 -0.7968961984493824 0.24787748467641185
Ni 2.8127731393946536 1.9055070419168936 0.8022417516618117 -0.5603485369634931 -0.9924033970541939 0.9617291078987887
Ni 0.7701600470092261 8.013206370194142 11.918248709645937 -0.4181855583077766 -1.4816465334304287 0.4472138272193265
Ni 3.7621850055546693 4.332239488883249 0.826579000826441 -0.42834424400833326 -0.2700025987102253 1.3984916578778042
Ni 8.076165874478054 2.9147140698578187 12.831952607388429 -0.32695587616681754 -1.3414558480097347 0.11475167652229915
Ni 7.336909996621015 3.1785183937002346 10.014423861301044 -1.048830626803987 -0.9741632198970835 0.6529301051466562
Ni 0.8381861364732369 0.7828346936038747 4.883144244305717 0.24146052540647447 -1.0217980481662274 -0.74622489734676
Ni 2.742775700923024 5.444851410341889 6.920212462960306 -1.6153402982728697 -0.6734670487577433 0.13407685921347232
Ni 6.208412712079764 1.5251494358804853 11.465083037931926 -1.1325989675708947 0.5636408345615196 0.879411640645795
Ni 4.307515789843971 2.2213593441707946 6.148017416375872 -0.1387639802764965 -1.3286869783798407 0.7593372663590019
Ni 7.452926795459612 6.876916437592331 11.72321336832068 0.47391190533580313 0.6707159683751674 0.4404497690226156
Ni 2.4072735591605245 7.452226639216131 8.301535257728663 0.48521910281850633 -0.6092609463934797 0.18055880482509548
Ni 3.5046093443977644 5.543882600572406 9.313708402119243 -1.0365579800842213 -0.6244546234147826 0.5649171301707819
Ni 1.4995891865243216 8.956980614653402 9.666554414255968 -0.6898701727061152 1.1015693519585996 0.3207772581599314
Ni 4.133567881561005 0.4053631861607238 10.789161293413754 -0.1471696878416885 0.4568716620240648 0.39149545061109997
Ni 7.790074759041202 5.635903135429888 9.705561300662255 -0.5166258992645619 -0.6528360027709531 -0.6880945688629311
Ni 1.5237218445788427 4.258613968059037 8.907827827773403 1.4156020923058459 -0.21190672300875765 0.24400026110919265
Ni 7.8646186666263445 3.671937593651457 5.647447529802917 -0.03562803361625477 1.6032591987386193 -0.833305847426668
Ni 7.54391982829744 0.10773949717053764 -0.3277376818104438 -0.6744916333675158 -0.5253622506962952 2.214989175497882
Ni 5.629283476400615 0.47205079511771686 7.236447577913564 -0.004956315564010819 -1.7654194464518693 -0.15292690204043985
Ni 8.656113474597637 0.40611244427063053 1.97469248100485 0.2858267102266755 0.6671051110954574 -0.3805878025596606
Ni 8.258670237632652 4.921143633156451 3.681725232359026 1.0341182602944772 -0.1433055769005919 -1.4333432183393509
Ni 1.515074460324943 3.480385756960973 12.947868474612708 -0.4361668253765456 -0.6230150627547787 0.16682937105414491
Ni 1.5614575382209919 8.235092248809977 1.0415897088488246 -2.2402245530259033 -1.0621869935062354 -1.9983631926365841
Ni 0.9193597053197018 6.316291331205175 10.024804359581013 1.21282432818155 0.14690434999544377 1.3657275760729062
Ni 7.597813673169011 6.077092498205086 6.08296562700592 2.2183907449802636 -1.1010471609065424 1.1230581179599948
P 5.23546832178821 6.195109743453628 0.7005345097110817 -0.007116042219490972 0.1781342545440029 1.1105142198567133
Ni 4.103415698400194 8.848110865261246 1.8525870507294375 -0.14351717869076572 1.0874853630617078 0.35623585607785746
P 4.7808941539428345 0.8976093970806606 0.026446810833298907 0.5060067289878188 0.7327988537488412 0.12353636469346467
Ni 1.7280219806636148 1.0099617418137674 11.733354722325279 -0.4494972239368646 1.007967312930722 0.8809278201800054
P 4.529456226089169 8.152737507287823 9.24756546016205 -0.4959287759265265 -0.11526872536803374 -0.8064344769571208
P 6.758399080741302 0.955231346625311 5.478110650494874 0.5841605517814262 0.45692128431507767 0.46769266389896874
P 7.430076241695101 2.9316905855276714 1.9259697901029882 -1.5404216945871083 -0.3031379478116134 0.02234880000884538
Ni 3.2651195373744097 3.934987203621031 5.174026428894388 0.22366026400025998 0.12685848708816216 -0.4210019447106491
Ni 3.8463674276604563 3.5270961806331944 8.158828866606106 0.1981081265627685 -1.2622820685920455 0.24043902612049556
Ni 3.263000882767513 7.300638266033417 10.907632276279823 -0.8170150806864445 -0.34116430645671564 0.05716385080550155
Ni 0.47292826365662466 2.5710464695674515 2.166014266358191 0.4140357978054611 0.9832050183843776 -0.5755563550521829
Ni 2.8267489854495893 2.078718422203471 9.886050668705742 -1.4725183458769155 1.0895288758542978 -0.8832150735522855
Ni 7.976470899756965 1.9077984623501036 3.868496002129741 0.20901551750389163 1.032360654173422 0.26324882492615953
Ni 2.937573716560556 6.8504923591046 2.094148229080908 0.862539804591121 -1.9036182982535148 -0.7525266711950717
Ni 6.152482049045339 5.418518261236428 4.509257173111659 -0.5742831447667143 -0.34651348658377096 0.3609630863501977
Ni 5.065594049830951 0.6762081720723246 4.167762785057551 -0.7148366128434657 -0.3191870308546761 -0.29107921687486643
Ni 4.546623693461791 2.4354980394172068 2.356112142226175 0.09194624859200938 0.28084596918263244 0.4234064403870837
Ni 1.848485226295227 5.59941317432484 4.09761349451753 -0.7058392944408618 0.6854321915394195 0.5402520233239341
Ni 1.5581658945828092 7.227049116962112 6.027802407957856 -0.10607188936011408 -0.36269755254280117 -1.8928273782855984
Ni 6.302779224999817 0.8161503099738674 1.7156301244478267 -0.5014353075670526 1.2132477888722137 -0.8736706243969599
Ni 2.934082028281379 1.5525737375731896 4.217615728181031 0.25081676981039386 1.2977463229369264 0.2514626309245089
Ni 5.424956061501161 7.273805005325469 3.14791065433425 -0.7141442147621314 -0.41828403155885385 -0.47907390915271675
Ni 8.961126994484925 4.8720235808540675 11.924357345546852 -0.1612747597845029 2.3843541684896876 0.28870968820142534
Ni 7.022621679742162 7.427384731979902 8.015683286567183 0.3179125350176267 -0.13815231483442658 -0.097647926962477
Ni 2.7362196924613396 8.00062174368794 4.05091398237118 0.8829985866661051 -0.10351595570747979 -0.09177732711431291
Ni 7.068431902529908 8.891902455762592 3.5711587406937064 1.0640662128068192 -1.3371320238234004 1.316746518188513
Ni 0.9654609021307127 3.3403272294501245 4.635567178023248 -0.7907026680441608 0.11652882302737995 -1.8921010416425348
Ni 6.507579472687077 8.742687339457131 9.863053718635776 -0.261144376988647 -0.09172924748519687 1.6327785483539752
Ni 0.6394035953046229 7.593894616793164 3.0549380888443984 -0.7533831056580961 -0.6690897456256542 0.8665090736515141
Ni 5.63919477906807 3.1311532784756673 13.344766135284074 0.539617989284361 -0.7976744713763035 0.7826517727152263
Ni 5.352276206252559 8.092642278545421 12.355989120951625 1.1760750364766583 -1.0946553984475857 0.03954613772373834
Ni 4.370229784795755 5.371007659000228 12.175074203399113 -0.18580745481854452 0.8872776736574333 -1.1122661695508134
P 9.086464055006221 6.555226468996682 0.28923454418193395 0.5729909083178519 0.5620295242103417 -0.7360605552192484
Ni 6.408130007298116 2.6706596078444975 7.0663396174438695 -0.06992217891243441 0.8447469993840742 1.2215097717706898
P 7.931997338888592 7.021430504834422 4.090812886017538 -0.5062193592192572 -0.5811942700642507 0.628482513627253
Ni 3.625299913485052 2.3830590646619596 12.077470604470237 0.7107817260478018 0.423231091151484 0.7037351036136654
P 6.144298404641019 4.297095282635802 8.67307998803544 -0.7217909326741118 0.5727613088055491 -0.2306626634600221
P 2.4792441652274184 4.404973901761213 11.227021731504038 -0.06474500558686914 0.3670946531692323 -1.0457242199645216
P 2.542021810746791 3.3549941388103135 2.806948203166422 0.17688675529014697 -0.6473441264184465 0.4103562920713449
Ni 5.440568636436961 1.6497226895907124 9.142295605013972 -0.3325891631931949 1.1897756738922027 0.1811434736839719
