# total energy = -340860.90207702696 ev
CRYSTAL
PRIMVEC
9.36902643439873 0.00000000000000 0.00000000000000

0.00000000000000 9.36902643439873 0.00000000000000

0.00000000000000 0.00000000000000 13.71251722244120

PRIMCOORD
 96 1
Ni 3.617484145038834 0.9256663647726647 2.991220945619559 -0.9094974042875821 2.1834666794095687 0.545208595998261
Ni 5.215615189023969 2.9328893873707345 1.826247161409893 -0.5070971338385203 -0.5671994984470554 -1.3124430057171526
Ni 8.88844217289605 8.420187603394286 6.557339403523928 -0.08679555762900536 -0.06591948551094454 0.5745916771460685
Ni 7.333305590973855 8.242925624263583 9.582416262874284 0.12261848086488561 1.007751340265174 1.0061559707535963
Ni 6.4016964527676485 2.8762629919232734 3.748220476063556 1.5061126368925932 -0.11642855000408982 0.5009246864792212
Ni 4.828234055243992 6.522650583347848 5.830192401838079 -0.07191092720768906 0.5924695858677538 1.004748034662476
Ni 8.133167480208817 9.186255414472566 3.775042124787413 3.001936490264669 -0.5414123621806224 -3.5749734213291076
Ni 2.318374947033378 3.1183867406904375 3.945502190765426 -1.3856320283063168 -0.5623151737715606 -0.6566301797060626
Ni 3.2760393476054657 5.709990604076283 9.524495067980952 1.1806942804162246 0.8220590708682552 0.028081588727564537
Ni 8.311544373478872 0.5190000270897999 11.212862015750522 -0.40014669852819473 -0.9375653661683918 -1.1847555949697919
Ni 2.080270510583712 0.2297631922625588 10.926380611581969 0.8183024320393003 -1.9698422023787558 -0.661489564680893
Ni 8.830326102253991 5.680834193978252 11.63025776244504 1.1425031140584838 -0.11673451128028282 1.2315262754664273
Ni 9.12120626430848 2.7447593376379382 3.8568515262446743 -1.3714755343002767 0.7080013350891872 1.610458544700536
Ni 6.6385548087086255 0.9374554106680221 1.8768455252837444 -0.40373441587945313 0.22747269576781473 -0.7376695515775811
Ni 3.154982157735074 6.6805655230015475 1.390791679463137 0.4530263201360456 -0.7921777099277906 -0.17457970442352513
Ni 1.8276440832433172 5.0346149683672 7.733613170451857 -2.7269132984114006 -0.24045625251167618 0.5545676686156578
Ni 0.6745146221846576 7.838127470441113 4.594227630933426 1.4891076176941644 -0.3425712141065713 0.6067700616508259
Ni 8.697229713483868 1.5134912596581378 6.70060774423603 -0.42188820397034443 0.3934734002730772 0.07337234224456396
Ni 1.4423616113727102 7.95242959229072 0.24163937010326067 -0.07410536375584656 -0.6885596814248076 0.9534789520748547
Ni 8.382430427078392 6.719446982483176 3.585823394189131 -0.47793799577606083 -1.0086039180734565 -2.127262364303859
Ni 3.3356732005212653 8.70078994350869 4.817439999950309 1.3059118894668542 -1.8737796176255277 -0.3291210021389364
Ni 4.864407866101478 8.457841720419989 13.326139606274905 -0.45383570341121837 -0.38164658284147823 -0.13926251717946983
Ni 6.720458837332337 0.4730440157877909 8.155355208484574 -0.36821848236103033 0.2629575189379858 -1.3329848344242463
Ni 7.248009974800181 9.513028316593108 13.379220762139752 -2.6182672205662065 -1.7113139228567171 0.43586472075509447
P 5.053062581311616 5.090079604543403 10.930699732743664 -0.12210708844610585 0.5924387326298184 0.3816697227699298
P 5.929891022267441 1.961124602095068 0.08259171516008436 -1.6031095605346326 0.0591651975062465 -0.33443752925584336
P 3.386996727037015 6.366834305603518 4.210140646829048 -0.3196148624207141 0.3513067942073563 -0.25277260798518403
P 2.5767633255981583 9.328233640251987 12.882018711828255 -0.08803920022811935 -0.3791392430385922 0.36954491448193777
P 3.7332572040302763 4.376853102254615 7.697301634906568 1.7325160108556292 -1.6194669188467337 -0.6912680814949063
P 9.067671647566787 8.309942269967701 1.7828189134255088 0.1518956325624481 0.1832522924968586 0.4796254107808127
P 0.8234512238573342 1.036589078806604 3.5112131526031187 2.2319227180284273 -1.2797830535902863 -0.2219275975798694
P 6.629532436303612 4.9620143829399375 2.4980232171833507 0.3936112114025221 0.45800988939356607 -0.07843561570008427
Ni 0.09545632528399388 3.157118295749968 11.651525452330175 0.6701917204405812 0.601273300202313 -0.31967682600690106
Ni 2.36266233473691 4.53741947637417 11.214946624120321 -0.04818350168376218 -0.27475219758006875 1.4044360483866973
Ni 3.0193936079475727 3.6261786015205093 1.3543424192300457 0.6436836468477238 1.1179925305116294 -1.041239958940923
Ni 5.141468714243821 7.456798727703337 10.862219645118813 0.3029757112021363 -1.6464509036347452 0.5550232680958377
Ni 0.8708397592930156 7.250155481841455 8.961363179025549 -0.8003900705352538 0.43700603344838934 0.6755072191162237
Ni 8.841194172856087 1.2610522128453656 1.8028667560758196 0.768598894166586 0.009678403630028493 -0.24553083882110618
Ni 1.6014664173768112 0.5617864967670775 5.491191046484905 -1.1173854930552498 1.057775751812417 0.647327157137582
Ni -0.19685542400152922 3.5075479894828265 8.487746715725871 1.2607700028228932 0.54804580833674 -0.20568259647591672
Ni 4.13774617998217 1.3320225876823144 11.826291522832948 2.979570463864643 -0.5045360579795634 -1.1747275213098285
Ni 7.836703378431183 6.154401001438109 9.229374484586371 0.6072346599920704 -2.0017490783896816 -0.4840083703398568
Ni 0.061258442090284686 0.39268306580905016 13.261581393093191 2.3330285216325173 1.0051344714676174 0.020930322394763952
Ni 8.463687992881804 7.521885353972944 13.609645407664818 -0.3452508178212635 1.467704212317724 -2.613456172330809
Ni 1.6174125002774697 2.6970522553052985 6.650817927338868 0.029535547565271717 0.37895643760382475 0.6037513294291602
Ni 6.587381186614974 5.286585563860918 4.607172814684212 1.8101224457861989 0.30078744530156587 -0.016026200224927237
Ni 5.361593989068127 6.916824261254133 3.3878830369326685 -0.3588493824413046 0.442116100981445 0.46518789519924403
Ni 2.209328848983576 2.2947275244474428 11.887778569166931 -1.2671787345627143 0.7372003252506465 1.8150810753430549
Ni 3.7430009914666362 1.1871024876192222 0.31090083452829415 2.3437299672104213 0.9590453904190388 2.1913483961504907
Ni 7.293487228854115 2.456483764917399 9.249586285198353 0.6524063714327022 1.5580957148281036 -1.602928040651446
Ni 7.682920179411556 2.216814701062087 12.76480375967676 0.3489922871415667 0.8036072919209708 -0.8919349699237864
Ni 4.998103872559994 1.5189721400910905 5.613904680219477 1.264664967001925 -1.854527197153819 1.2544389183985427
Ni 1.3263168506162153 4.73968738691607 -0.041465436957540375 -0.17391687402854564 0.5612731056602914 -0.7997066713149841
Ni 4.518728268743845 3.6731923759009457 12.738105782101133 0.318658926265348 0.18895088554353265 0.04170329327605721
Ni 2.7655211000984896 7.367390108948353 7.671920005537488 1.6974965573576506 0.7481100301846147 -1.1533320863531877
Ni 5.54633245125096 5.50895940501669 0.7219406337258636 -0.7773678986084677 -0.9029526611905287 -1.025512520903337
P 0.24836070962907283 2.677461621142386 13.810013279656628 0.46379127196203346 0.4837425182729798 0.6203832815588863
P 9.259315082192503 -0.008671033915722269 8.451723746193121 -0.6090542296993124 0.22408038225681406 0.32243561969896084
P 7.710015403705742 3.5080632859337877 5.46153058276757 0.3528947075197664 -0.7620587790552231 -0.14725659112853992
P 0.972945282599687 5.871653154282428 2.3269869560828993 -0.3038771399704831 1.512350647382505 -0.07874389096912245
P 0.9541697537319319 6.642902036949463 6.580197954088573 -0.17126400978673084 0.3410887160237739 -0.7707542499466918
P 4.296560546168457 2.698701203948375 4.150011172417688 -0.48064665295647546 0.8015064435278841 -1.9292064311352646
P 3.7603430592980813 0.12516925554906314 6.801600227208625 -0.4709458807289438 -0.09931143070782895 0.7473813795487064
P 9.084957501239945 7.594617105769544 11.0286351024081 -0.028468796863654198 2.4623064167954496 -0.8167245460292193
Ni 6.323521296643622 3.0033725728358656 7.0796626242711085 2.575754286904661 -0.1088265692871158 0.18101568985685598
Ni 0.6904625788905921 1.41497594726071 9.837826227952508 -3.475223103311647 1.0520874431783882 -0.7482712383528275
Ni 5.62353322863135 4.78563309228906 8.739617999539949 0.762406392202629 0.5578237136591102 -0.8516136445969203
Ni 0.8210499423958544 3.855270034591542 2.1653984211851642 -0.9386393159588609 -0.9237120052250672 -0.705375724540882
Ni 6.182433128370406 7.573293201726124 1.3954265368138747 1.5967982736046242 1.573613865068361 -0.4748261896199565
Ni 4.681374566720008 0.10783093532817105 9.883571436160942 0.32382787206079716 0.6682384533689525 -1.2546685179108459
Ni 0.8016588684948598 5.135107145331044 4.629318382341255 -1.458704837032591 0.3652519435335387 -1.2491779271099197
Ni 2.3441304005550636 2.766542323974031 9.616629136510204 1.1191870650403628 1.2321045165674007 -1.7567951951179677
Ni 7.039858315690941 7.653098568440465 5.272791546320001 -1.256526911275823 -1.5356679819522068 0.7528580863925615
Ni 4.720902489021934 3.1398324420768104 10.107400287113704 -0.33356515395321906 -1.3016274031588873 0.9563259346053464
Ni 5.7753770391900865 0.027279794113893602 3.6472139395513894 -1.1991887396759864 -1.0302580060081226 1.3800946434278554
Ni 5.041866594786184 4.061098175158265 5.603401064743609 -1.6924116866355754 -0.015285722514476898 0.8436200848684827
Ni 1.8826590061532267 1.7721794470671142 1.3426639278459853 -2.421181107510049 -1.5219359770780951 0.6115086047770759
Ni 1.943042381179515 8.405806147899273 2.6540165695262834 -0.25490430961620614 0.5123640386644144 0.25781608394636246
Ni 2.7347344794101445 4.761751444043597 5.556271114436046 1.7375489452938462 0.25143512012068314 0.6952916008320026
Ni 8.596250347148205 5.150987645047034 6.521946969466626 0.521242829211283 0.25511282608258645 0.761498792786695
Ni 8.336812637628741 5.6918240619233 0.8899160339076047 0.10871215519643858 -1.7387352522924635 2.094272796751716
Ni 7.645462811939856 3.4808368952702664 1.2397667218101096 -0.1796802588748841 -1.0758017560761923 0.30374292838546396
Ni 7.182717229950188 4.530804943749103 12.701396999837284 -1.2203216649998596 0.5262549377138938 -0.2548495451188708
Ni 4.322690760745387 4.745514921325124 2.8429205008381597 -0.17990651595307725 1.0592165980240016 1.7738182120385257
Ni 1.7335228442186323 6.754327867700069 11.957355769781007 0.15608987314945377 0.6719405848108879 -1.081749231908879
Ni 4.675425234967999 1.9327739282658127 8.066346647156063 -1.8616679219636585 -0.7322501803342227 0.2443676717509404
Ni 2.2038104924450987 0.4618086793515574 8.318766955916074 0.36329559113811627 -0.24968394175753128 -0.5847683605687541
Ni 5.255986323700195 7.226433107044471 8.404579742345986 0.4284005511675654 0.5614345709388202 -0.2212531972206641
P 4.239334533032604 8.70313220010397 1.9161045565285322 0.9144125822010122 -2.0436076662966802 -1.2635344529419077
P 6.574264549681413 6.931646060989058 12.487098322519394 -0.3113734483475282 -0.09707585650909088 1.3160582338722366
P 7.1698629257552975 0.3474887563518258 5.342081117824177 -1.9783854639630765 2.3765408430928554 4.295497314365338
P 8.121296923783945 4.184197812779741 10.382459911221039 -1.0801584903829913 -0.35114275782566623 -1.6595738141699483
P 6.828642984955075 6.219890495842105 7.111284025210012 -1.1826274928831955 0.9158606275014486 0.43219704209552023
P 3.0233567061067843 7.923891537933843 9.900245492411413 0.22050989129673634 -0.5590555291836823 -0.6612908184065256
P 6.341753421981272 1.583655898226311 10.703305030350249 -2.066506425271725 -2.3042776747520706 2.461815078981328
P 3.444925417151451 5.633923478888007 13.006679229244824 -0.7526138315922393 -0.3387348710796166 0.8108868563015197
