# total energy = -340866.49044695805 ev
CRYSTAL
PRIMVEC
9.29159289078054 0.00000000000000 0.00000000000000

0.00000000000000 9.29159289078054 0.00000000000000

0.00000000000000 0.00000000000000 13.59918540425995

PRIMCOORD
 96 1
Ni 6.920257629939782 4.142573087325615 11.864540947421329 1.8828905787878607 1.8039096321072674 -0.1993484267277728
Ni 3.339565750795458 1.8755452010223927 8.951201006222608 -0.5100353905312377 0.7223881999384784 1.4341870543968847
Ni 3.757018438339594 6.506818910545109 1.169740934859807 1.0033616958379108 0.06315040740623963 -1.8322326474216768
Ni 2.4030753901097843 6.697408064901086 4.7766462560024285 0.17327306979695964 0.7469365787018039 -1.061708768318236
Ni 8.065288502538753 1.9506677299307424 7.636282648334797 0.5758618021077437 1.0078097043069354 0.9152553898172818
Ni 0.15314124733565235 6.397373237321677 10.757404907463028 0.21102329196253977 -0.10720188919949923 0.31062859976170376
Ni 5.870539917704678 1.5140836525260881 8.659662411226227 -0.8665113876443592 -0.5315372691587555 0.30797033620325026
Ni 0.17643527083265087 5.086831219707934 12.86495189256861 1.3620678678331315 0.5161826410795561 -0.4097379417610556
Ni 7.1247005493671685 6.624747808121458 10.739439612516302 -2.0669057175926726 -0.7110987430675882 -1.9370734925881672
Ni 8.783389262796243 5.204964532328931 5.841312282957107 -0.237754537309797 1.0387483028673208 1.0450819583948323
Ni 2.519415425293637 5.73147264619308 6.816061706726643 -0.4555709409347703 -2.4170334038902634 -1.2902530998836748
Ni 7.670916131854027 4.7481991150616984 0.6435347977661617 0.3028800661645364 -1.0554900411020338 0.4779112563031834
Ni 8.068438352544929 5.907046586360325 3.5901850996496627 -0.17128946370802758 1.9925522423817619 0.8741257096565075
Ni 3.1991976562724593 3.7780917711242736 13.027584502091013 0.041433584554438324 -0.1261275224594086 -0.1391750996719861
Ni 4.5536796168927065 6.6834892586791055 10.226886542086593 0.2952881127498914 0.22224718570281726 -1.564288988123009
Ni 2.519192427063111 5.44379563722197 11.060081334914873 -0.04754561098944715 -1.1341058911337243 0.24492251581314592
Ni 1.862379013828437 6.4624236794846155 2.395591941157059 -0.8832510689965434 0.24372026797492866 0.5828590593611833
Ni 7.358133238762898 9.257437042929219 4.522613175902594 -0.9318341201115695 -1.1591504928071779 -1.6644226576218173
Ni 9.079623828863777 2.6216694055826153 1.6246944915040173 0.14424402955446128 0.6817190043538905 1.4504479963404375
Ni 4.953097322543075 7.770391925854373 2.870339378238308 -0.9339485953514108 0.3954289813375512 -0.1166964589534958
Ni 8.459289209505934 5.841866061896247 8.67870088515736 -0.1554175296727775 0.3255335418979942 1.2601922759425521
Ni 2.5539708594321837 6.492444816269139 8.79146551537845 -0.5100307625455475 1.3484428208505292 2.9432189218188025
Ni 5.427256601791313 4.942588530929552 0.09436263040624963 -1.6501170396324225 -0.3100878967668853 -2.949231189451153
Ni 1.8791689222684356 0.40977039850252533 1.6226819324735229 1.0902742386607545 -0.9081727719388876 0.12228475167455068
P 9.31491483684722 5.182599668125789 2.0611466282889443 1.0502591317203978 -2.6487221946219544 0.16794574404677529
P 2.8601567215369275 0.24726229632549915 3.7357369738730903 0.10610325681868178 -1.9176758047878457 -0.8254755527489718
P 3.204150075308718 4.4063985772234116 8.804439366598578 0.3975889651033475 -0.6594864182079351 0.039074597403958515
P 7.787785787835379 6.512477490644699 12.670347840903876 -0.13432471355822026 -0.0792858795155215 1.6078969546209467
P 7.025968082801909 7.6943030712804115 2.893035952309356 0.925313288273916 0.06986278642940871 -0.6271871918545973
P 1.2449898294321213 1.434863531131828 7.10749159008564 -0.1872128198065034 0.536746581273837 -0.02413905914004875
P 9.05540993766586 7.374467859148907 4.885303072985377 -0.24944071539847365 -0.16496969213758686 3.5117083427218745
P 5.91390378194899 2.767008502327749 10.399283686628142 -0.3027448261382528 -0.0589116867345437 0.3535212853601718
Ni 6.265367576443393 1.2576171042356399 6.271128364065307 -0.002018058871293299 -0.6532903166995523 0.02738919064623025
Ni 0.5333439387890557 7.268729531507964 7.427059204340515 -0.6789116168120823 -1.6942073450834176 -2.1491370528897633
Ni 1.5395054508060193 9.045551557558037 5.500965879413706 1.3556671065131103 -0.4547803267126748 -0.35635515526454115
Ni 6.5651886973852145 4.511505076544531 5.317784912107652 -1.465239038606683 -0.5189211230566417 1.3578671994882228
Ni 5.155960671170905 2.7515658748638434 12.488253989971637 0.7142141487681184 -1.988083150866815 -0.6523431222949345
Ni 4.71073541233338 4.580690277565134 11.192660287077468 -0.9896255771987407 -0.13246940551703637 0.07913804108374758
Ni 2.073372506277517 7.582088503361285 11.012131140396082 0.5950998244017494 3.1758986157088533 0.07897940401869624
Ni 8.758785124694906 0.4068370426118183 6.191219735634299 -0.021154265480111956 -0.8785006987957517 0.5004138082810736
Ni 1.0536666392339975 8.325917684465681 13.328874623876425 1.0768050005297263 -2.6091842844283324 -0.050349141876513286
Ni 2.8871859653952314 2.039179444263574 4.846599871759052 0.5321345364231224 -0.16630846555366843 -0.2863226760264876
Ni 1.5284484552091193 3.7348301144022855 3.5489118438165286 -0.6475739830410654 0.8131028901162319 -1.0661886584664606
Ni 0.4969599191601979 0.5981695244028807 11.410396688522068 0.4399908271083261 -0.7481953908095696 -1.0737587575042344
Ni 6.546410388056361 0.7393246168477761 0.30939239082784453 -0.2601470460723842 1.5223825776972104 -0.2712452128680748
Ni 4.928037896387748 6.869033078069438 12.374265656960535 -0.09876944216142991 0.4892405652730735 1.45611547903886
Ni 5.779157101153828 1.7642876671759387 2.7009480640123877 1.0088851967593013 -0.22533636615110225 0.6712474153986053
Ni 0.647767118349681 8.22738963294507 3.3485005465651883 1.3117932879482956 1.1063562318242817 -1.2540450253942337
Ni 7.829858120661231 8.14654348278656 8.262674457129295 -1.6917488562405962 0.8008515835527046 0.9682450546404359
Ni 4.340075186827888 0.039108314678447054 12.406414568527993 1.799250021848069 -0.01608996358332713 -0.01783985639489831
Ni 4.668635204728711 9.066439058483944 4.89925625810123 0.004409956142237567 0.03644950107628561 0.3546510280892408
Ni 8.289522514925297 2.886424054774269 5.316588154937164 0.7142809974503118 -1.254399580520175 0.3683295540175979
Ni 3.782588902106543 4.458700953874629 4.855167649607709 -0.5933519884727071 -0.4906289609801679 2.0671921384848395
Ni 4.28452075264817 1.6970908670441904 0.7698196248721674 -2.595473105489827 -1.2754378892477132 0.6998969608144979
Ni 3.858157427475944 8.684851919682695 9.192573361784346 1.0407861592329557 0.5989749910864395 0.98416918206986
Ni 2.6758301008215484 3.0871131706544728 6.83860868615138 -0.7448010204160399 0.7651687854391145 1.1069570986330741
P 0.3032534353733304 8.242256181646784 9.450196713395645 0.4795032833806516 0.2537059184327308 1.1619807631671215
P 3.271495540927484 7.760988833800539 6.718800099323558 0.7700222568766738 -0.5355998692639035 -0.6197729016683972
P 2.843682727256841 0.4175270202876447 11.018359295142806 -1.2075203994701331 1.287458567857673 -1.4422891146787291
P 3.8949707186985636 5.585167223782334 3.1384473633214918 0.03528916221959729 2.1999351093782376 -0.41553552227943924
P 5.808602159176161 3.1074431760040673 0.996069912926381 1.2992357629982592 -0.006126167502395901 1.1002776297303694
P 0.04204352888774176 4.172882263491235 10.859602209035081 2.7805470245764563 0.44908224788663303 1.4416124003266786
P 1.3807028358928954 4.431272171519967 5.496504985643898 1.4068572562336803 -0.36745589316339294 1.0894987939473106
P 7.793119162182119 4.062303015929296 7.830873691769416 -1.0277113283268688 1.0181938757547369 -4.002865922512004
Ni 3.7198985245500014 0.5993616357768995 7.09863856033377 1.4311832345735545 0.8701998922395402 -1.7867737437579292
Ni 6.532454415462627 7.778011032064002 0.6521471752609236 -0.12289821688883348 -1.5747703472703074 0.190365249392556
Ni 5.893815358015799 4.851131381635192 9.223892534102388 1.5739403951698443 -0.18495590545152663 0.3549721588740854
Ni 7.62823984548717 1.90418189045907 12.024793979992165 -0.20790531515884839 -0.6273370871689001 -0.44661733128590825
Ni 8.800950373450144 7.027148115105108 1.3949905183545368 -0.44462061257085367 1.3033574984761167 -0.8320071832199026
Ni 3.856568565083448 3.4940384833992075 2.676455425026314 0.8312062845851621 -0.7244993327442103 -1.0546030105113904
Ni 7.382588711377218 3.8870821562937166 3.3511523671898567 -0.46126670576796686 -2.294360415638358 -2.6167096462711
Ni 6.0354285259925655 5.567253032596769 2.0070630532714016 -0.28571563857010795 1.362568461618634 3.6871267409966118
Ni 4.967471416819046 3.7329253378498786 7.401383745573361 0.05985579581536789 -0.1432325575708114 0.2671003374617658
Ni 1.8935151417655898 4.6107207059425965 1.0107060301232187 -0.8928533679729979 0.17581794770600043 0.15670462391531723
Ni 2.208007687957416 1.0741453100706089 13.050757734879811 0.7992454154078494 1.5599247976170425 -0.9321429096012399
Ni 0.8912969817917561 4.27944754290371 8.52576498202565 0.7209969760179066 -0.0021633261999059517 0.15362495654872896
Ni 0.7292274428014304 2.0147983043927624 9.23679762753477 0.4280740210660821 -0.8938517273305251 -0.18413032422643774
Ni 2.2061029114050092 3.149088095554744 10.99944254107917 -0.8996765615424183 -1.166443169813849 -0.441722207977136
Ni 8.404840474885907 0.14023615390327052 1.91753948446756 -0.4004035517340072 0.0777604440099306 0.4854543587577639
Ni 1.912934571007204 8.83453948192308 7.968891942438249 -0.8089942672644971 1.7841828431023017 1.7026724451316355
Ni 0.35715768264715864 2.595875943585141 13.107017400963567 0.9582712312571756 0.40764634933934957 -1.585558953245379
Ni 7.34947347414415 8.638728452335625 11.901136815369187 -0.3130606062419641 0.6948920514007386 0.30262912649599494
Ni 7.920646275264012 3.3632686043817532 9.710811028773872 -0.7482776661107307 -1.5930349499074499 0.7713759426910909
Ni 4.746619544262142 6.15819834348991 7.6526284186323315 -1.231329586074589 0.9184366157587409 -0.3557807708183099
Ni 5.231603529283815 6.390506750140072 4.949070346163499 -0.08850816944473788 0.9678190228466107 0.11456115777804786
Ni 6.9217257016240765 6.252628802524612 7.064478018895112 -0.03903140287084891 -0.6590408460300844 -0.7663108694633577
Ni 7.881742375630212 0.861085367351991 9.753539348061187 -0.10418289986751733 -1.249930231894912 0.73028919995311
Ni 1.0219730157205305 1.3940734381314996 3.4594700410305466 -1.8940774486426155 0.5511750979943411 0.8316657407200837
P 4.86702000556015 2.6662783432806965 5.579337678372674 -0.2033385217237724 -0.16849133213760015 -0.7379462022777356
P 8.819756557557813 0.3239987749272788 13.422654671405425 -2.1602758431154023 2.477575684249694 -0.5500163017995496
P 5.967051693557619 8.5176497047531 9.964381387545366 0.8343936811742083 0.11675610854683764 0.05391834728501036
P 4.484410791535656 8.63114651249775 0.8407692993918048 -0.05330848161515336 0.34966283084603 0.222596598622436
P 2.3867686445025913 6.434669691377102 13.052702465281854 -0.03839016974242421 -0.5523313230859713 -0.2501750224613369
P 6.512468199051761 8.254000755121137 6.5829031193226015 -0.7232621179029995 1.4894472604217703 -1.8387822756147365
P 2.1272730369141692 2.5970931422600936 1.6563667443537258 0.12990807254776335 -1.7006392167516904 -0.8930685693075975
P 8.0126887949135 1.7940672225440601 3.3951592096655183 -0.25435229376747814 0.19975157570346244 0.3831121116434112
