# total energy = -340855.6957164212 ev
CRYSTAL
PRIMVEC
9.44602857101910 0.00000000000000 0.00000000000000
0.00000000000000 9.44602857101910 0.00000000000000
0.00000000000000 0.00000000000000 13.82521763288332
PRIMCOORD
 96 1
Ni 9.399232918826376 9.360683676337354 6.267662865373244 -0.3182660617023035 -0.10045531450428506 -0.49946327144234626
Ni 0.7075207624031271 8.074805256639255 13.815318330058675 -0.5339949866706286 -0.44334303141001064 -0.10751762066770514
Ni 8.032600401103615 2.2199772903803625 1.0624250576613972 -0.28190886322950803 -0.8020232352633025 0.7152153363391232
Ni 8.610631225810957 5.730782719416004 12.327545219270378 0.8273424307543815 0.3700737904022143 0.7953093135782368
Ni 7.7120966525977375 1.8774548493378749 5.740907917412569 -2.1788235242106024 -0.9808141495546979 -0.2947075576560731
Ni 5.76186959935508 0.37816419594559336 9.679698730744661 -1.0903485435421156 -0.6959657440808917 1.070484200518021
Ni 5.721242230586328 7.6736040862799815 0.694297267044053 1.7000717742839948 2.129699770100758 0.9713064671745789
Ni 6.111939417204411 8.872541259256948 5.398001023008331 0.7801495751186629 1.3681994346521662 4.5211165018641815
Ni 0.4450401888330649 2.0479367725042192 5.388019404645639 1.3681261582120696 1.3393190041723901 -1.1954043329328896
Ni 6.983524470980929 1.071633046286317 11.719000888556597 -0.7984326896985668 0.32971595541045795 -0.9472939063100654
Ni 3.5913894985465062 4.647483827877558 7.97694345631813 1.9805102236155632 -0.1637587025486212 3.1378964254334667
Ni 6.033518488230176 6.587046314893775 12.536057797958664 -0.03593939420908649 -0.6202246444938351 0.7423083359011732
Ni 2.666850008751009 5.401843667420126 2.7365220260875738 -0.019755842470688557 0.944008036469942 0.3857516061487873
Ni 2.4452556251318116 6.165772333878004 7.10092254753724 -2.0963165666546217 1.3134884162625313 -2.022972506544832
Ni 5.117631560581198 7.682058281827072 8.654710173409773 -0.06139177284392008 1.7905347534622584 0.35105868275229213
Ni 9.210104535313713 5.49946837242479 8.880781029956083 0.0019805207651385245 0.4107517277375506 -0.03903500241527471
Ni 0.8711514810663382 3.3828589724039855 0.05900461730156089 -0.5598392014272423 -0.3262081993675156 0.8845070528908314
Ni 1.2351532464155606 1.9275754767935833 11.351485200588916 0.5038994528368289 -0.015615337939753754 0.41562962465514225
Ni 6.431498562855865 4.41170150938492 11.929600094950304 0.17336305840760466 -1.1474067220076887 0.008089718986669938
Ni 1.7870752482266392 2.8131028687013924 3.484424560517304 0.8131928787268768 -1.146682185136838 -0.5302254923258675
Ni 2.085579196252994 5.7231975584949835 0.5054900485018936 0.3003043350175602 -0.6258481613281996 0.8048056831044461
Ni 9.059506502232981 2.7477835813180103 9.691145428134563 -1.4665004218176099 1.7222159144812015 0.21611998975915683
Ni 0.22324177099731193 6.214797222022582 1.8433858581873843 0.8728265312291097 -0.5229896366990606 -1.6286187605493305
Ni 3.939258391745031 0.0016266061153171834 6.804716818255697 3.0116570599865424 1.4027869428190485 1.9725529164416997
P 7.802041736395939 6.876623765945828 0.23056433232480253 0.6782143336347417 -0.5848784037840572 -0.23162528448360753
P 3.176491586798094 6.670974278509298 8.931767858229298 0.23216624458874213 1.4743926800814928 2.90625185767615
P 9.366521321977691 4.556443004768226 5.99522239930614 0.15114075667429455 -1.0366888492351307 0.008711668841384997
P 1.8732985967784117 6.691509944564464 5.1604145130637455 0.6216179252969358 -0.3634480575555805 -1.4778140470582162
P 6.812881965329333 0.3341787640293653 1.3921027890894349 -1.1637594523340988 0.38893694585530436 1.5144728359318305
P 0.18575426211666285 4.20266089770101 11.313797435903131 2.14129724513037 -0.35977755068252876 -0.9879276206710278
P 6.765236197352214 2.2991066714954154 9.908354020700674 1.4680335706326848 0.654367608924131 0.8146198409813905
P 6.369268126806448 8.347360964254596 11.423625465184092 -0.5596373698290813 1.6566530409787277 -0.7936820623874589
Ni 0.49976103218981544 0.7469919372780653 9.267762148944866 1.6005464277931467 -2.549972549954867 1.4370633475034154
Ni 1.9291246254748378 1.2776320367789833 7.038501301711229 0.6578499110457767 -0.10050390835403336 1.0632897396521106
Ni 2.025795281596534 4.461557648041389 9.696537221227613 -1.3958907299198475 -0.04056095214149789 1.0479857623051887
Ni 3.6799082320345278 1.701314755073534 1.905985633952881 0.5861984081470614 -0.4815244275757384 1.5578162359144718
Ni 7.979041419257805 4.50037137932965 0.38355598903864246 -0.053808046959391204 0.8452460505076799 0.5147582499282037
Ni 8.801696045175188 0.5848140178049573 3.2536401357274203 -0.2009149998839443 0.6114710666709211 0.372068709345056
Ni 6.554363056130724 7.155876707799032 4.105066419987688 1.0926198560747957 -0.8654865459242708 0.6202511268563963
Ni 8.364873901175608 2.819904009253241 12.41738167374032 0.25617854834293946 -0.21792876083312146 0.00317891194861388
Ni 5.808079570993476 5.704314947435059 7.9417031576281545 0.6237707099738805 -2.989322401045084 -0.09636520359531145
Ni 4.715410219139148 5.996225567537539 1.4861975132271181 -0.922887709551559 -1.7339303747046524 0.7438867361318866
Ni 4.43144370904237 8.106430560205352 4.080139295262308 -1.371752185000431 0.20328529988833377 -0.8479112560446688
Ni 4.0282588726888084 7.545893780361931 11.521812208887136 -0.8336503752502804 1.881765721154798 0.5491562677920994
Ni 4.744966842454057 7.250270871041568 6.2907508483410615 -0.7378387301655938 0.24430673660601795 0.21877054000812646
Ni 4.1779973171720135 3.8489071287194276 10.54063622114612 1.340816414653523 0.2268540883472093 0.628992363384136
Ni 6.207127046844662 3.656463189187738 1.7387427539743543 -0.620360398740751 0.6323448247961367 1.2479970194279408
Ni 3.6430309365978366 3.109207525477511 6.625984733758818 0.5196037509459632 -3.3686429068565467 -1.7786631988356527
Ni 2.400434219689419 8.713649613114379 5.6159142893038405 -2.155201256805972 -0.7561632395063945 -2.2811346609767034
Ni 1.0777351807258926 3.559263555467565 7.5987131381727275 0.13595196474899812 0.4137979707630422 -0.4942166783314263
Ni 5.091371601228226 6.0120193272634985 10.405577849623507 0.28649622548987436 -1.389591012954065 -1.4322173322650238
Ni 2.800445190452118 1.3356495440976717 13.755787568967198 -0.944230179783077 0.03988912288545389 -1.6714163153308312
Ni 1.1834079020502442 8.383274764779776 7.777057935499292 1.0905807141575796 -1.5001916434224678 1.8081540092059183
Ni 3.4418305286056414 9.15035840477143 9.231513014406366 -1.2021809895350908 0.7185410582782464 0.24553495258616423
Ni 4.00744927180586 1.7681359609954488 11.752997145287296 0.10494677461673539 -0.9601879886639141 -0.7984005509090508
Ni 8.286386850001563 6.303438753881677 6.483778552436785 -0.8778527807991076 0.9142547164669094 0.7511920115440482
P 3.4941993108548774 8.067314556003677 2.1840937171465247 -0.48937503396840887 -0.681154390099672 -0.2081850511827963
P 5.495236551636973 1.5648290886378895 6.230265093763765 -0.37147041363942473 0.13745940253246003 -0.15053680454170848
P 9.198740962974998 8.000805069023722 9.971161609094143 -0.5427321094333104 0.10073299364570394 -1.035961741261119
P 2.6653008600697548 9.32884111411474 12.080889577320471 0.6078254994985338 0.49865800193223153 0.3050253946423134
P 1.0238644799381231 4.232283643215729 2.107585608952497 -0.2846668855906194 -0.4145081094561893 -1.3281807281673834
P 8.262743440555344 8.426282532741677 4.782294713452309 -0.7631931497699824 -0.6731937404916986 -0.9455632967722039
P 1.7386549059088932 0.530936704797207 3.7732057113630777 0.00032601588085105147 1.097540947525497 1.1076129870495184
P 4.885514301163723 5.22027210674285 6.11593036426435 -0.4821443205479245 -2.4223005658264736 -1.1009872542028845
Ni 2.5483873647777644 3.6205493886625586 12.340305859230785 0.7282906814658424 0.9197620194383838 -0.38004967066800355
Ni 7.0903401617591335 4.523533041320112 9.644071144884371 -0.2795005108983315 -1.7860396938053822 -0.4371839537871503
Ni 3.270035607471648 7.8097119115738565 0.11013596981150231 -0.033535926973916434 0.6626241925059685 -0.6846665170179886
Ni 3.9585849661465344 1.1029938610531755 4.383409709292083 -0.5571104896421696 0.979278943857094 0.7576192552266307
Ni 3.8719365463102715 3.745614806588223 0.6063783563685904 -0.4583382192672622 0.11493525328801496 0.5907991401438665
Ni 4.696829880992639 5.535797798205916 3.9484824386184756 1.5144599804160241 -0.35454946951437005 -0.22814581057543934
Ni 1.3791485055438717 0.30117811870722766 1.6623026571858455 0.1417199775810269 1.5264523768912097 -1.4520953021358733
Ni 8.592513743063115 4.779180357841275 3.2221055140353476 -1.3797994807849399 -3.1417152849589245 -0.6028277891736263
Ni 9.268660466259421 9.442165118559922 11.686760648532267 0.6291263178588391 0.1784142476782669 -0.37238701191642315
Ni 6.199154598753329 0.5506382865319169 3.666406078833399 0.8357386252378769 1.7031267590602346 -3.2897936006578115
Ni 7.489482097895763 6.5571401885227285 10.577992430230003 0.15027223802641215 1.8418295470814925 -1.6013825505411967
Ni 5.356578298636154 0.2163074414429894 13.415023033836796 -1.1680369966635304 0.27006687628925746 -0.4102940713748418
Ni 5.250716656740918 2.4991357719481253 8.457175769095596 1.561967024858052 0.373744297275266 -1.809874848551767
Ni 7.694347564963121 9.130115565601134 13.423885297816996 0.4337787847603433 -1.5920497031760452 0.5556045945206044
Ni 6.611898815993655 4.050551500053202 5.276560046235089 -0.13578844258794034 0.21663806704615593 -0.5575190379344979
Ni 9.391062104135612 6.275705214075805 4.487569176843649 0.346031661851346 1.9690197064774604 0.13414036546155608
Ni 1.6688676470240884 7.877373814036209 10.870533100436383 0.3733411482995764 -0.13873646947267074 -0.6823224422658443
Ni 1.9210482710695171 5.943998475716466 12.224561782272572 -0.29767229671135187 -0.023384183251895212 -2.0564143311430456
Ni 5.657538214084011 2.5251217964733144 13.43249818664363 0.7836053948777473 0.5226877891879257 0.033193456032833156
Ni 2.904606547209392 4.409698951333542 4.831014494874908 -0.45196599719233127 0.3030150490805039 1.3780832694247815
Ni 8.245117151291803 7.849696950401602 2.123111101467801 -1.7541675276871338 1.7927248191350416 0.48126808859055825
Ni 1.180819690229124 7.963219321446212 2.9453104288093526 1.0677868561915158 -0.9247993247519751 1.8837282441978072
Ni 7.710594734059204 0.18745265804891623 8.484660878350754 0.4568570067360454 -0.8688271802617296 -0.49872973571043144
Ni 7.823087487992494 3.6957114377890323 7.366020615616908 0.6673347106077604 0.10302924587904835 0.4795464779137612
P 3.3807241699529884 2.4468614499843313 9.186594314869968 -3.024652443804946 -1.0179354798870275 -0.15949015708025435
P 4.462889538066126 4.889141576124709 12.701766642901609 -0.48620306399833035 0.033842659581057845 -0.35991304781912853
P 6.944389574722166 5.935572618255009 2.5483883093806186 -1.1964397161759395 -1.133643349675009 -2.2504734844474212
P 4.522276719523729 3.206539403597304 3.2036763123455465 -0.7298030043453109 0.5172951574174446 0.10932047820439883
P 9.43558123666459 0.9914268179172218 13.786673248498284 1.5348287738803632 0.22847876843482587 -0.4625617704303066
P 7.951317325480477 2.7378085751752987 3.4392168125074516 -0.6723308782707711 -1.200082198024533 0.5441513583783404
P 7.212278944236657 7.190486956385107 8.127223158236921 1.2735465857622712 1.5713777766489905 0.9716576798664105
P 9.213202832676222 1.6479635858556976 7.589104637937532 -0.9878808265934921 1.5734182041177869 -1.1559021610732092
