# total energy = -340868.3597970555 ev
CRYSTAL
PRIMVEC
9.30512868596313 0.00000000000000 0.00000000000000
0.00000000000000 9.30512868596313 0.00000000000000
0.00000000000000 0.00000000000000 13.61899640872658
PRIMCOORD
 96 1
Ni 7.090201047687359 8.464819804368043 12.230825946056468 -2.428963836779262 1.539914930154019 0.9772081773709945
Ni 7.653756866052377 8.878916644551651 1.620007098812138 -0.5282331444861871 0.7754853368737742 0.19659066147697757
Ni 4.4041174432362915 2.145492843871614 5.887819293885525 2.223010503140462 1.8503969770355293 0.40632943030013896
Ni 5.2670285590159605 0.22212645073837062 7.778857808672495 0.572449176881769 -0.6368920778471869 -2.6990032022646937
Ni 7.480867573647284 8.566348064294413 9.866704449348264 0.04469580024547786 -0.46380746991194965 -0.22999109131429424
Ni 6.520922575133476 2.195731234059725 2.2660919651964906 -0.08324409283232116 -2.7496140824430255 0.6672969153912894
Ni 3.9270807121039195 0.5441825402817342 1.7948886192852567 -0.941246928785037 -1.240197063767548 -0.08037628436622286
Ni 5.455727265188344 8.800530239857329 0.49050032193866533 0.5036721673173713 0.06420661658489586 -1.5965789585049666
Ni 9.305966223972495 6.206725597342822 4.099263745235946 -1.168692113749026 -0.21217257507563456 -0.4909524057578577
Ni 0.9887350669046242 2.769829763312523 0.8563342507704165 0.5345470025193568 -0.3785787425494319 0.7771503832810229
Ni 6.340105313022832 7.028247500387407 6.791003937461668 0.24067042540501135 -0.057161279702340265 -0.26895256017915614
Ni 4.5102145213849925 4.321255271607263 10.016063862651915 -0.6795212253716232 0.3236800336290232 0.838648085575188
Ni 3.7137513300975065 4.471216726741842 5.342391727375384 -0.39427687001097905 -0.2029032339585667 0.6687938116517901
Ni 1.946167680652589 6.318303396332567 5.508911659142625 -0.7065388916110477 -1.1888012257940752 1.0152214233899741
Ni 0.2597498778633174 0.3985368038671492 7.587823515180753 1.217964734731909 -0.4505122954649402 -0.2384541344799829
Ni 7.15605344393875 6.7614043228685246 0.8152642039518826 -1.56349863101123 -0.3497541050082557 1.6105104809843942
Ni 9.12408817718294 5.37425155774491 10.329981686579698 0.6460794007734099 0.24517911190864228 1.229909565798611
Ni 2.098781097484447 4.313448268575623 10.253728947910592 -1.0505308973245455 -1.0940666158236512 -0.37601381003573303
Ni 7.653207863455396 3.1218427843935053 0.37298771182427176 0.09524625949951983 -1.325646134670988 0.5960084522589477
Ni 9.00124186726195 7.782400271192334 6.050525053373065 0.15435129319179225 -0.49061250591993577 0.2882065233127617
Ni 4.341391570249062 -0.0002456553993269345 11.880545539951042 0.20519614375780143 0.6716410512925981 -0.3626808403722528
Ni 2.6583171002241146 0.3179422921175136 9.853793583190457 0.3242549322958867 0.2645490317948218 0.6292011369608325
Ni 8.570851746615409 8.912126649104598 3.9199418173174183 0.013752830809718251 0.09525268725742306 -0.020220697922249047
Ni 0.8201903391186887 8.023356580494264 9.399286429817568 -2.4301018070384472 -0.3961257502942597 -0.4377765930658268
P 7.863568909386609 8.307637569313854 7.852141280753525 0.12349188460877442 0.053145730785043956 -1.4220810151619703
P 2.9760314166869497 7.554071021620959 2.2914503020997388 0.25759496907449186 1.28836796704582 0.7472487106255841
P 3.729644490023658 8.526336010616163 6.291621870119307 0.4333887484107762 -0.15518587327794567 1.0204564465366683
P 8.472468620210723 3.0888002721582803 10.426008754381748 0.7236439267224506 0.2434006798519808 -0.5159188458952082
P -0.18271923042967483 5.552426163287036 6.257016096252001 0.6245307280683566 -0.21838616008551423 0.4890829566492867
P 5.702387618421615 4.73363066296983 11.822324279797682 0.42017636348556026 -0.34645743653485495 0.03355006804130351
P 3.805062558642779 7.509276131758843 12.78475095615242 1.1658482165423276 -1.4435494694483915 -0.10366302280830533
P 8.67941468388614 1.4709361445001192 2.0337931476950817 0.8475674995520048 -0.19401570166094972 -0.28900665061655384
Ni 4.468797393263622 3.9773097971632674 7.6736782162197645 0.46651715553362877 -1.112574701930168 -0.15867254627496544
Ni 7.40391415878237 6.109403255617049 8.909534240231398 1.7459153149806708 1.5789301350749516 0.19422010436227197
Ni 2.2407680572696624 6.559017772286675 10.532932127964548 1.1424293233977552 1.7913307670009924 1.8884446758368703
Ni 5.242016372902674 6.779056152130767 10.830793021699963 0.2575270919510339 0.10171695482552805 0.4622200708201717
Ni 1.1086130407504158 2.0754903601922 9.197548446710456 -1.3981522722605146 0.29288413129408913 0.03448003605474062
Ni 7.875916815254292 1.7217465851614144 8.73977333211622 1.0358681531060483 -0.10765723156936298 -0.655641076319916
Ni 3.984977223263472 6.22030178020714 6.980607102149754 -0.6412081887240377 0.9746792403015535 -0.22538521711116669
Ni 3.4691288000631966 5.197295924070655 12.119830648127248 0.5594365666721849 0.22600151053892692 -0.8594467674880939
Ni 2.0010865506081785 7.8800762078110775 7.5290988475613485 1.231323158316686 1.0243624664592939 -2.1890328606434366
Ni 1.6723270463043935 1.1093481459226442 2.7890476457454745 -0.9814656670957679 0.3045931922009012 0.35391106459942273
Ni 7.06439792562927 4.573675499544451 6.934684430681638 -0.06945038148233847 0.8390226953057873 -0.2009000874856088
Ni 9.149761027438359 4.153474494892719 8.41234539173833 -0.6686027786869067 -0.32951155270913574 -0.6329143241463616
Ni 5.105947475010333 5.922584185454667 -0.025389043828164422 1.485785752409783 -0.11734154873666244 0.8802508487176388
Ni 0.07180116506918274 0.16261456922566825 13.644736539449195 -0.37724125468493097 2.075343049726748 -0.24444197663230163
Ni 8.18677325181925 1.9745948490216718 4.18458619290975 -0.4916478891629855 -1.9333883304270962 -0.6707180252576965
Ni 7.588602354458165 0.7417453121131637 6.152096116891742 0.6604246137514884 0.8371077376712616 1.282613838170862
Ni 6.117191648391164 3.611115759848412 4.2029861545244875 -0.4115037754122268 -0.22362015479094394 0.6563419590416825
Ni 5.865776374360314 8.918426221276732 5.449886435864195 -1.4479740808786483 -0.8189482931534154 -1.6378253667492633
Ni 7.451798351393597 4.99945027632485 2.696643064570621 -0.5772013468547736 1.096173891974641 0.3013011517131907
Ni 0.06933530594715102 2.500892931822104 6.33824056521885 0.7784809291669883 -1.1393686821945603 1.6668762613686323
Ni -0.5054992589907519 7.344510216763311 13.146035607532239 3.17133027961188 -1.0038252657378905 0.10583251965579839
Ni 3.5607005722138165 0.540094797216419 4.5782573449470485 -1.438760275589864 -1.764193287354252 -0.7793831292662835
Ni 3.8827696889374472 2.375162031984773 3.126921523672014 2.111624914876918 0.35147880100884626 0.05351108454426269
Ni 0.8059497700607363 7.715394038974408 2.007794617932981 -1.021353761539957 0.20768471450761009 -1.097381539129497
P 5.787920362005448 3.979626774225101 1.6326183398237966 -1.2519074102259407 1.6364305432842656 -0.6504356208595766
P -0.4608244052896706 5.416980709021776 1.0594131029321872 1.6475281958593238 -0.07148335275196721 0.5245580096274449
P 5.4207120656554935 5.959023069688163 8.631202020229601 -2.088876565436809 -0.996468054041871 -0.08196445478894916
P 7.046634434821878 7.495011369366108 3.360664497157345 0.32080219786059594 -0.4493159611639939 -0.16616191267347513
P 5.576265903176265 1.3659184612878548 4.195154958158065 1.3290273924383949 0.1958643248339143 -0.36336141137904515
P 2.3260123418618615 3.6283116378012976 3.035524687942128 -1.9260213485390636 0.6358307264622082 -0.5811389913462831
P 1.843104074480425 6.115395758540024 8.596705116368815 -0.2621730753634775 -2.220728649084821 -0.78215940645984
P 1.043802818920412 0.8362491303368107 5.248012597877153 -0.9209449840028914 -0.842583158963536 -0.1958023612477273
Ni 9.366263458352744 3.517385197824919 2.7566350907274626 0.2962754163638252 1.0930430596551433 0.9820084269731153
Ni 6.513152792616886 2.60779025104437 11.519410701144295 -0.1061338529463011 0.4643638566360519 0.9984670867497707
Ni 4.764895895611439 1.9824949033409356 13.584472803532492 1.7285374858238554 -0.8215775032461463 1.296136298137329
Ni 1.455926971806394 8.136246402639506 4.210095272898949 1.8704050447263398 1.3149068938766129 0.12378036238347068
Ni 6.649714862333631 3.8796059451582368 9.457684487417414 1.7523649272607562 0.8220582995373068 -0.9181391391229801
Ni 1.9260406871395526 5.646268386855678 2.626450756264455 -1.7755812174762193 -0.2969549589293531 2.0483567509458913
Ni 0.30010249925427124 2.914589651468929 12.306520376999833 -0.2104771896510827 0.4463705053824248 -1.1461833911235484
Ni 2.2380695699285713 1.2877088540400183 13.147847316102277 -0.1614861044643606 -1.3298064366962645 0.2959972230017741
Ni 4.158303856720396 7.905665311907633 8.950621966794582 -1.910284140309465 -2.099731248763126 -0.7646928742439604
Ni 1.9559938966256663 8.073985786090395 -0.1649138665428533 -0.9487303816462758 0.7371522456215305 -0.633981074847979
Ni 1.0957905733158508 5.4138448806288535 12.452597871388994 -0.3706754285419552 -0.28864746750492226 0.9581532176220723
Ni 3.099938511286854 1.5249245015794706 7.5865440599759255 -1.23377881894603 -0.5107465576656495 0.43773314142240094
Ni 2.13240052770294 2.7548112854900357 4.98057575314323 -0.42150073872393856 -0.7508922209154424 0.3723638719879716
Ni 8.433210281962225 3.9196366090940122 5.067301414234401 -0.36958116703651195 3.218792329748586 -1.499662253281559
Ni 2.814531601887015 6.033929356225354 0.679202750162553 0.46573579728291403 0.5260819024711392 -1.299437080375788
Ni 7.928528013276811 4.98098890086028 12.808897765290805 -0.5597823800473779 0.929779808685702 -2.0392414189081847
Ni 1.7904835713291443 4.070351779658344 7.162679626130444 0.9399086695895876 0.938971502487299 -0.02583855832965873
Ni 3.5731973601416978 3.7856334497869217 1.049635273628674 0.7680718180185223 0.0912628493717396 1.6123737594453778
Ni 4.020131999727758 7.242600446557682 4.482910482057529 -0.01653476443022959 -0.2744418654285016 -0.11598349204687122
Ni 3.6268786479718904 2.405989923574551 11.74070527337131 0.8098818120757729 0.5768876722690969 -3.806736002721528
Ni 5.662077800622968 1.7774191705467572 9.287502056969299 -2.062170259790216 2.3689864277843653 1.1486323668846734
Ni 8.481643477170433 0.9138594872923498 11.111875837763922 0.19075682840401983 1.2306029923212096 0.8848158423805019
Ni 5.175382345835241 7.334023336648105 2.2629459011619284 0.02910231668259504 -0.4202776649501149 0.17488052349339558
Ni 4.248191400565024 5.04207707118533 3.1514498430896585 0.7121726928580574 0.19374907826312437 -1.4566078452942464
P 5.540599344630047 5.584510247259736 4.908327011380577 0.2769111529046005 0.5426408352710848 0.9817986249551542
P 2.453501911035283 3.5542335077239593 12.98990764356683 -2.5533473799643702 -0.03349813175744554 -0.7178915976197057
P 7.90053818595956 6.910053754847608 11.244061705423718 0.4330334219538865 -2.6285390348058604 -1.4546075270347658
P 6.463174946034122 2.592576365517872 7.243658439697965 -0.8015804912989292 -1.2794945758155898 -0.06252228690393749
P 5.391596317757994 9.180477257482988 9.963276797695789 -0.05198410637677499 -0.6482113595147481 1.747177469522546
P 3.1546247530233837 2.6045055405912483 9.435798824568286 0.9915245939936667 0.10302461789335805 -0.1676076439810662
P 0.9129233913388539 8.95498607218414 11.196149597426203 1.3170910460121252 0.9846800602680073 2.5217297530590894
P 6.955220849860219 1.139189693863609 13.160703282000387 -0.3949643829963069 -0.05974241016595517 0.2331895436469339
