# total energy = -340891.35544108495 ev
CRYSTAL
PRIMVEC
9.07129961642080 0.00000000000000 0.00000000000000

0.00000000000000 9.07129961642080 0.00000000000000

0.00000000000000 0.00000000000000 13.27676392965187

PRIMCOORD
 96 1
Ni 6.778383516538596 1.7489919274366852 11.34745109818755 -0.6377045464461534 0.2292444429562568 0.12196747754444802
Ni 4.589560554669738 0.5049139808422103 6.080996514156665 -0.7714556468890907 -1.0440288345399695 -0.15107339377146886
Ni 2.7172805938013886 1.6695273425745427 4.827564243371568 0.4517525956299446 -1.026904001934225 -0.1945690030612585
Ni 3.3242684667329563 4.365390597921649 4.793456156718411 0.32176559021512974 -0.8480763208676233 -0.49822271416702585
Ni 4.9339705881698475 4.523104213493932 2.6132119229208004 0.1936467483573052 -0.23278665178156038 0.20067125930425442
Ni 7.19706935150574 5.839603787908659 2.526514790854253 -0.08096738098300249 0.5299334150067454 0.2819518006523015
Ni 4.872775600786285 4.936719191961312 11.400305932680444 -0.010510669723336738 -0.18847625989995928 0.19915816509383766
Ni 5.697592592016326 7.823460734371112 12.494696549625699 -0.44658622093765665 0.36974931718326 0.03618056368561511
Ni 1.7813401819593335 6.771090191626592 0.5715290697617471 1.5462624696386016 -1.3166531871437581 -1.489872520884647
Ni 2.8480796633364607 1.3723062098110617 0.3527374865712793 -0.1901557044849112 0.9197224244496999 1.0717404415226253
Ni 0.5113555107178505 8.78758567420023 4.733883117710801 0.31500513156284465 1.0580110077516744 0.17286169329115392
Ni 8.693988004496168 2.6856308293511586 1.6040053452618426 -0.26029668427637104 -0.5811762723421218 -0.003230334011839598
Ni 6.988529244040467 0.5289048470048711 4.790521591284289 -0.5774000931291412 0.9651576739643636 0.2642690386605578
Ni 0.7306324084391544 7.652865873307476 2.5760504368082144 0.7143488745737697 -1.3163832213118234 -0.06486841853861086
Ni 7.777369460891141 3.8247048540719755 3.994208437788703 -0.13224237710789483 -0.07169109788739911 -0.057763689173029556
Ni 7.691201185593711 3.5481662844917916 12.66535581691679 -0.6557138385393804 1.8716114063296154 0.4162744573279928
Ni 7.811695258735702 8.812341250922694 7.0051260938650985 -0.15508200071022968 0.26350207858754615 -0.5160479152739047
Ni 6.832938312584364 0.6112359625538213 0.4486138667453609 0.46705400187370527 0.5796243544739694 -0.43385566074486565
Ni 1.7327543010778683 6.415341033574235 9.068640843872064 0.7537155492968504 -0.022869705509321905 -0.663018856841226
Ni 0.1993971445563057 4.989768152266541 1.3741313552989913 -0.2482119851976951 0.38327409114257216 -0.016734796256177627
Ni 6.408673628337515 1.8168815339558944 6.746521483676748 1.0233479091518505 0.8389561037339099 1.2200915512669244
Ni 3.3606988060944136 4.682650231593859 0.634878490810237 0.1195357281745038 -0.024965411696086036 -1.0020445196883838
Ni 5.926280055986029 5.525700535103913 4.845461010434869 -0.1779820452368548 -0.06580764252342859 -0.5366121125785016
Ni 5.213421044935048 2.8953502057698652 9.834882639055094 -0.8057721607827736 -0.36348508144110303 -0.5247367012971544
P 0.4319308395741319 5.493642562169802 12.489743620021276 -0.9790861111199975 -0.06038312907374763 0.27363711013901904
P 3.838520443426433 6.553614854014148 12.560296560115317 0.08020016379967478 -0.941251042550095 0.3470166514724346
P 2.54556089158217 8.579490060417404 1.5162060502888168 0.670516964990484 -0.09718744238629069 -0.4001837224137172
P 6.130357084027538 7.7571767478885 5.706459787416182 0.7545452442869973 -0.050890101981647846 1.977366792890575
P 4.8957713453782405 1.2489637485815468 12.319084352730183 -0.5410562643927842 -0.4411406244420531 0.6713317475822954
P 4.006393914597529 6.3349693187479135 8.018302272247308 -0.22323988863338973 -0.6356996002009826 2.0216373326731767
P 4.750240485224889 1.0063336970624004 3.8679595321539564 0.3161574999997329 0.8024143000541342 0.5145343068428558
P 0.0907066465082215 5.759531425970516 3.6091426535539877 0.8900094707662994 -1.2258217688824824 -0.413879474733255
Ni 1.308271905639616 1.0433718134998577 2.4444911923631594 0.9504188250922921 0.43970260644394593 0.18346106607355503
Ni 1.930889627854 6.519479553462066 4.70628096716074 -0.9582797158976077 0.7961366945755385 0.2103064684011733
Ni 6.04036072028127 5.7502877716355245 9.317101926800959 -0.49314838496791197 -0.17011575511490057 -0.683811368106545
Ni 8.828333952191183 2.1905283662015163 10.111437536974632 0.3632341417725615 0.4791875519124457 -0.24997396219412432
Ni 2.4107523076054234 5.415212105466824 6.675424265604199 -0.15964956547625406 -0.8436072293526763 2.7916889001258887
Ni 0.6204242819609975 -0.11383483207494732 8.974787363518104 -0.7615083058683917 0.6404180887225746 0.08676367594980541
Ni 1.45821141741888 1.1246234443914342 11.3941456130937 -0.1995471730021402 0.5374479782162356 0.6749027527630054
Ni 4.309819816316 6.782520029175255 1.6334934190074324 0.17190267181199428 1.312639952219307 -0.4653745572887533
Ni 5.679005499050283 7.916414341800607 8.033305294724874 -0.697461869010444 -0.029095374704059568 -0.1868533795845556
Ni 5.238829755231722 3.007743608331731 4.979808772389813 0.22407292605764637 -0.7320352361099393 -0.5549409927946765
Ni 0.5205229661358506 7.42235507810977 6.915879926599207 1.3195384791113534 -1.2729953412444917 -0.4249416460846875
Ni 5.113800032268832 4.61062411243799 7.080458701740403 0.22690988128580922 0.6520189061862964 0.14226556567185178
Ni 8.151995993498076 7.1436121827166295 8.903676538496093 -1.0300602881750196 0.09197530205773193 0.7618638894355976
Ni 4.871079267753268 0.378641489828395 10.246090094597541 -0.2601969254737132 -0.31862987279962546 0.6405415016743162
Ni 7.9808931396545 7.075432294608883 4.771217865646545 0.03737381266276789 0.10805369567683325 0.2576165663410466
Ni 7.157835980554967 6.0432363222677195 6.9135032460930566 0.6203038344712027 -0.542589413207859 0.5256260458806431
Ni 2.284924310274057 5.52619038528457 2.583485273994631 -0.7177000504341897 -1.0419470123102765 0.1704029473380162
Ni 2.350283024193204 5.139163386067297 11.342499075713093 -0.30605794967188577 1.1217031465939973 0.8092729748471804
Ni 1.2384591835963459 3.3133012654660234 3.761293748185922 -0.7531823025011997 0.4947982618665091 -0.4850931187636032
Ni 3.621680096788915 2.5796508356360435 2.5369504139621766 2.0264013297207226 -1.2680765637866356 1.443024964403489
Ni 1.270009163750516 3.5178409297892643 8.309408441922253 -0.7201287144803404 0.26143568297682074 -0.2199254795481761
Ni 3.6130895760281336 2.98643512547315 7.398224513932626 -0.6342602966512948 -0.9747556020654439 -1.2914352931172337
Ni 4.111548420045241 6.895938488596644 5.960443477567002 0.338941587773784 1.2640090785854812 -0.9151312055345918
Ni 0.44744366909156913 7.016668415529322 10.958216144637465 0.5733421210096835 0.6791916099463465 1.013113890128668
P -0.015712398109556717 5.3477579213304205 8.057137413143804 0.2256353854487598 0.5011751119271305 -0.48533634512266094
P 8.636748103756428 1.697231091680591 7.88629127708009 -0.03143199325703619 -0.581910836515301 0.6019045060284086
P 2.051637697385961 3.1891968150665977 10.48620104620616 -1.7384992250222575 -0.42902815744923534 -0.5047582012926983
P 3.985203358634291 6.105039086727283 3.726389201424215 0.4251977279595516 1.4538287398872125 0.7380657585747353
P 6.876598477760333 3.9977126808403294 10.607736504547029 0.3336492290265931 0.21315833602767162 0.4012304185106767
P 6.521057959599739 7.953017035855258 10.37033424301145 -0.1322194942897594 -0.9163702201480154 -0.7566149823318324
P 2.2893148193006865 8.43862184827994 5.937156544256545 0.36095357326850097 0.5027967066909534 0.3214236334946787
P 6.7375535968508675 3.7767539641654366 1.7133399055844944 0.8768266535274384 2.099610149804229 -1.536548327674631
Ni 5.041610629719412 2.9183187364628957 0.41951676601433263 1.467766433014227 -0.1645446887850263 1.1518002230896938
Ni 1.7202812640703975 1.2819197801801956 7.288664985378857 -0.7517684528728086 -0.06171367495971307 -1.7603194062211425
Ni 6.897525966033959 0.771921335888758 9.014604019035843 0.5700593364933537 0.4176050032139582 0.4452790720904589
Ni 2.9219472563196143 1.5996964779319889 9.274284485361713 -0.48598040646456303 0.12360269915502582 1.323617020056101
Ni 6.542856292638977 1.9581942397758094 2.6291846673300765 -0.6153282356334822 -0.9210218599874138 1.0756883704267797
Ni 4.121753632142263 7.146306358710244 10.306313545789468 -0.4647117268937738 -0.5118145939188475 -0.2339523899548874
Ni 8.03697191404009 7.2174797756997835 0.028735155875320596 0.05236411542401304 -0.4497769599608124 0.8866845201581246
Ni 7.39488718279441 3.536691090444918 8.521253223847033 0.39125942334089386 0.4351334990160248 -0.9731715454077755
Ni 3.232784409845433 8.71525113085654 12.239039204690966 0.5439276724033084 -1.4366622554102548 -0.4731945675538045
Ni 9.12962809849383 4.783060447328912 10.273387449479635 -0.4255641101600348 -1.1811046284807658 -0.06448223884378572
Ni 8.98828817877499 2.0444985845678665 5.66080030779916 -0.7183988762734272 0.3595289250068324 0.11302080987412148
Ni 3.474507331400399 3.0737645271247303 12.053071212124378 -0.1697311180819722 -0.6527560414626371 -0.9330222268823996
Ni 1.0024330382164275 3.2343537446834634 13.012118038414018 1.4317100536113019 0.26589757540291625 -1.2802988168844402
Ni 3.0220127626682776 8.511527883501062 8.161306775450418 0.9773169350347171 -0.9648270300978222 -0.38234566579103185
Ni 5.6900089855157825 7.8489057298663525 3.606062040195633 -1.513120178558678 -0.43249426162096477 0.12962268009686065
Ni 3.0315466985918067 8.45150309377129 3.664440389040418 0.9955987640630402 0.04497527915910964 0.1591299455273582
Ni 3.403170631017307 4.426531157507361 9.247173092122273 0.7890414782916539 1.0444263270887044 -0.3166442098281643
Ni 7.1397205951702984 5.99851481503366 11.484108413031294 0.9226305992354304 0.11054303775759025 -0.516484231480375
Ni 0.6791845325207023 -0.35495995498351957 0.30023189711459364 -0.5854003377257982 2.644459819801175 -0.8533571096505884
Ni 4.859223079121439 0.4000207288241824 1.7990546158998348 -1.3776230419589113 -0.7794157822764319 -0.6622390412524078
Ni 6.074722803324398 5.517872003513041 0.3053653455818866 -0.3929337257195233 -0.48253641378002055 0.6678723282787853
Ni 8.249049828365663 8.913903521712255 11.315825826246353 0.12991167209218915 0.03218326960076393 0.19115714916623205
Ni 0.3003035603817638 4.84433707640925 5.798586999448309 -1.496572815722958 -0.062491176555685916 -0.021245282532021473
Ni 7.8746863634483395 8.773389090260817 2.8317077817429457 0.1766872376848312 0.19139574753959943 -0.9257220936765606
P 8.676643679581051 1.6245699815497965 3.510482291519838 -1.5244921678410455 0.0004450579572185883 1.3295824936109166
P 1.9831312424911096 3.2440963204987536 1.6995850939376376 -2.336726282199079 0.9125575312701445 -1.8052226944917362
P 4.788875150399304 1.2818562810827028 8.204840849561366 0.45948904504225385 -0.38699679140979804 -0.1670422583958994
P 8.55214916329703 1.5931288569913278 12.709660044367327 1.2178888871886508 -1.1878082657531865 -0.2350980735235564
P 6.45579902997665 7.803014024978501 1.5883528177299215 -0.4267203352516651 -1.0343995389803218 -2.126314655678609
P 1.7591245691365727 3.2020327040597407 5.959129046248905 1.1439740421770557 0.7220634696092081 1.1802337958400384
P 7.000249363177669 3.8355722710428486 6.168583540718071 0.006961004698865431 0.8408733753612809 -0.9112120729858436
P 2.1514492073446543 8.402436434008811 10.312487472325675 0.8027135764621078 -0.21898188468798416 0.15096823565217227
