# total energy = -340891.93403320253 ev
CRYSTAL
PRIMVEC
9.07340483194798 0.00000000000000 0.00000000000000
0.00000000000000 9.07340483194798 0.00000000000000
0.00000000000000 0.00000000000000 13.27984512536793
PRIMCOORD
 96 1
Ni 6.274948934845977 2.1860463230700695 11.43263147811566 0.3451844833597023 -0.365150642068984 0.45243085264389177
Ni 4.811998526633587 0.3651891147384544 6.21657427831188 -0.6235722208098293 -0.45264708241975593 -1.0441275649013633
Ni 2.908271191075712 1.7558036185914199 4.976555609112092 -0.26073428603442195 -1.8439687049116826 -0.7141200463924153
Ni 3.4220436593029477 4.172876972355222 4.854394010135138 0.5965378423998565 0.6451067524474955 0.7594583653178985
Ni 5.033888638785626 4.2455277238580384 2.4086187552562053 1.7802539403615405 1.1073707891317253 1.6759129176496042
Ni 7.656365728345702 6.418499270742825 2.676021972767714 -0.9076261554067981 -0.8037085933855256 -0.8829317379839117
Ni 4.974884287964744 4.420853123044864 11.76983367603003 1.022583777292316 0.8057225384917607 0.1631336673701126
Ni 5.527037258109915 7.892609966746955 12.554247659909322 -0.43244541066090036 -0.462184589596546 -0.2923308298937804
Ni 1.956670652033327 6.486803861390159 0.46236074246661873 -0.3581112187236994 -0.6247137906134402 -0.8738117779605145
Ni 2.5201653780644135 1.7269955586411962 0.4616248893447406 0.7514151832984478 -0.2982559371289638 -0.24839761884593994
Ni 0.552843456243506 9.054178164154104 4.750824724746846 0.011284057554251534 0.26433408757053833 -0.0027220269168533764
Ni 8.71427027695559 2.3987541496568716 1.2879135432953002 0.18276275445494977 -0.6005382218085012 0.8583458211144314
Ni 6.924432317301716 0.6677508681558286 4.687573113181806 -0.275728445450409 0.4058002972695463 -0.5085775750387886
Ni 0.9525895401556367 7.456850632205396 2.6287449975328667 -0.21695405562467798 -1.0677320916941806 0.479530022853529
Ni 7.813054354260793 3.9259896302306263 3.771356130482063 0.09334981380775537 -0.6765549436544477 -0.2745182271923918
Ni 7.566375700444498 3.9488001696683783 12.847320446682303 0.1791089597524464 -0.49525026180226317 -1.2662703638158321
Ni 7.88190334919065 8.969296463103918 6.983392208439527 1.092506213315067 -0.49577091019242364 0.012762441871990925
Ni 6.760729949546775 0.6248672354809489 0.3947185103630224 0.04733246653737654 0.5826091481339062 -0.32643934154171517
Ni 2.0189505019540626 6.491240756292728 9.05212666734946 -0.1434683277307013 0.4031217219961186 0.9217553957193287
Ni 0.1667973061010895 4.913538998729007 1.4959612692236974 -0.1911347805687289 0.33368368180895436 -0.23805535637966743
Ni 6.310053937664061 2.021863064865566 7.123468337673401 0.5337219355149002 0.41756900776970024 0.0980706163221924
Ni 3.6438248905984816 4.218670445920192 0.674445226149931 -1.3037452208328386 0.505311245582691 -1.6877885860412676
Ni 6.092156123583864 5.478884699320675 4.763652704324052 0.20763766331975853 -0.29507368274624024 -1.325886275706252
Ni 5.293397086860069 2.8512992829095847 9.242586505590452 0.18364207173610952 0.4134994656860169 0.029712182352452054
P 0.14350769089471643 5.5087906412406555 12.561870227205127 0.2933988661469786 0.9505437807059307 -0.14494465516591165
P 3.9288386793091683 6.137813496078203 12.533756282715121 0.692125287288879 0.5568981165210474 2.0595495343379175
P 2.3901071949694503 8.408986502125595 1.3442657379198213 0.6424016948115066 1.1297090476176095 0.19330839118128
P 6.447044201956496 7.973299754821706 5.733506211618993 -0.45205624291329244 -1.7691747997292433 0.4221108615041118
P 4.529126061434162 1.2437641706635525 12.525496762408762 -0.22769278219842076 0.19593065929547546 1.847617614518179
P 3.933012445475185 5.996277456026694 8.024399355460343 -0.09368637121156768 0.9954401269979889 0.9024219854980393
P 4.768364523389296 0.9869233035734783 3.748502038701709 0.36962230468709245 -0.08144149240594362 -0.22832038848009062
P 0.32257405484295326 5.500143686553233 3.6549851783902216 0.7667088762327248 0.6256154764921033 0.4890862990833964
Ni 1.5295673455838987 0.970146578267033 2.7373745207272173 -0.4677628550152718 0.9770924777287364 -0.7794962578053801
Ni 1.92008668424772 6.4071938084757445 4.948654889632741 1.0604532986445803 0.02174047700088514 -3.284051298857396
Ni 5.938262106319062 5.755478368461658 9.258614675008427 -0.552276815698952 0.15052626301874722 0.14965388771612292
Ni 8.597586292401298 2.3971027899998822 10.361267440960837 -0.1772793627428753 0.5975390299708612 -0.1072545968143056
Ni 2.0664134819854394 5.317604930622965 6.830514412502104 1.1641600302066273 -1.9844519818721307 1.944928984076844
Ni 0.5295846906131426 9.408848480813726 9.173238473401614 -0.30264018223958844 -2.00183289635274 1.2916384102669756
Ni 1.4202781858672229 1.1868739231398033 11.429086498895957 0.026739729987689434 0.24638495929128534 -0.19455023400818106
Ni 4.194453528752586 6.901404016150955 1.4493221543398738 0.35435020901937037 -0.22311184769595768 0.4341042864205621
Ni 5.963213969268075 7.995638477214605 8.069351724408813 -1.5458248678805506 -0.24498370806838451 -0.44589742240074826
Ni 5.442019455989097 2.8323086468542087 4.817131351677317 -0.372274654708275 -0.16098499645822598 -0.22808281854798784
Ni 0.6849095838005115 7.217367188323125 6.630095605252808 -0.3108869956294129 1.6960744801991436 2.589419443096579
Ni 5.19986843112246 4.436359571692088 7.297739407233073 0.546630158936136 -0.2479330205046956 -0.6280312850224473
Ni 8.167697450706287 7.3891176660547115 9.237247714259833 -0.31636241692168743 -0.3583999536087118 -0.524778096058051
Ni 4.656634617805971 0.3555812864923782 10.628669751131877 -0.778680189661988 0.39723569552898685 -1.455683276597448
Ni 8.340745425311223 7.01699011873549 4.900170244231162 -0.9266813722660363 0.769232671095843 -1.145804153407259
Ni 7.14957070833948 6.166222326221243 6.815349123871929 -0.31993599320555866 0.5669449592340882 1.4745549166909702
Ni 2.5087601083455375 5.20014970666843 2.7209471215020584 -0.6270591509171652 0.8611169561016654 -0.4673357947801822
Ni 2.3323640474030802 5.216645156428904 11.50357280017135 -0.8144313791196683 -0.13098356500012925 -0.18635895644664033
Ni 1.3308779292720874 3.475168443872573 3.9583100051436 -1.4990829837393214 -0.617351179600782 0.059377313517052575
Ni 3.4509243064908413 2.654270299659471 2.725237027248347 0.42579113856917644 -1.040960222916975 0.29227349429328375
Ni 1.1925629478921782 3.5067438922589598 8.38217186918988 -1.1442362946995068 -0.5055377597712003 -0.8369930664702683
Ni 3.7312743651812394 2.6205081607382796 6.985755830366152 -0.5349090138444659 0.0953215928221455 0.948354743474412
Ni 4.446875647749508 6.5632835896800605 5.9813752961330735 -0.8035021338016742 1.4844207537414564 0.3138972432106465
Ni 0.5146534958244534 7.208865408111044 11.214988626707779 0.5578926192238328 0.7305877050301354 0.34941086273622407
P 0.2129201442569864 5.656215320948132 8.18431539143033 -0.5269267669699377 0.5102495634245728 -0.9451269805657337
P 8.453146762842994 1.6481658185317334 8.092711204831444 -0.855819712258468 1.949767286005752 -0.19689045210558348
P 1.7594148336654953 3.321029444680635 10.505884809251432 -1.563914635502726 -0.9961212122254135 0.15426156169146338
P 4.196558558645012 5.99709406245048 3.7586343097399495 0.1068103101880354 0.26270220839407016 -0.1880276023983149
P 6.815923470389992 4.1316020543352 10.58264218372542 0.5857890885237848 0.17311546117317284 -1.1580644588318507
P 6.122225386788602 7.8970650084589415 10.273314392416745 1.1023262847292823 -1.6497653127199587 0.12235134324642799
P 2.50688191357083 8.361051705049364 5.6325536961487 -0.3549595604685951 1.051969429543285 1.7789110531804009
P 7.113939448048291 4.159756829146395 1.6811748648621 -0.6980239121615011 -0.9097884531654397 0.8554726133316943
Ni 5.548886016648541 2.667263415202375 0.5181857722775627 -0.7327235204262155 0.7123495847555539 -0.016649178520906808
Ni 1.3342804560378618 0.886580520899612 7.001851142978971 0.3775263900255176 0.7022888580854421 -0.7829348511732839
Ni 6.7996185621283995 0.815509449156586 9.35292818025334 -0.2638252662549198 0.39471421465871376 -1.014815189090491
Ni 2.5635362525721517 1.498962751501346 9.203742352691899 0.6824394274596828 0.21634727527861447 0.024759466332867037
Ni 6.608387484487166 1.9512266092080879 2.5661974821732225 -0.3770299100050732 0.20842467799742814 0.3720311712389012
Ni 4.0272216065659485 7.0222345466571365 10.550265553703253 0.10208333702601129 -0.35149397051749787 -0.8349822066878265
Ni 8.083940851839984 7.435174268356235 0.09818149767224622 1.0635028841041814 -0.9478371804080451 -0.6361467150407303
Ni 7.673822959005301 4.218234922494172 8.236890327674606 -0.28960057544681095 -1.5091239129150913 0.33404672157532794
Ni 3.0857560605832166 8.595172766748775 12.422192420437966 -0.18742622136889014 -0.43999185554959064 0.3161958094368361
Ni 0.11669396529947193 4.880638833255145 10.277816615833217 -0.44853357447201464 -0.1360841194514882 0.38164606862084594
Ni 8.484976266561224 2.087953744763969 5.86408702282518 0.8815361431879657 1.332078520559893 -0.3828886827786954
Ni 3.65814272322886 2.7405220848206766 11.108974966090955 0.08881027406618898 -1.5845395108419291 0.9713139233737467
Ni 0.9019091308145438 3.374707706937493 12.764467558924988 0.5697754867043479 0.35948650180467123 -0.9566200688069977
Ni 3.136004575860174 8.438275452525382 7.785030236477404 -0.15485805762488167 -0.9437810080608005 0.4101557460247646
Ni 5.722904845557311 7.698466326194217 3.66204973129644 -0.7975968240608329 0.5390896275847167 -0.6041292815938692
Ni 3.031125090831942 8.381040415622701 3.5787322852180385 1.5699783251983028 0.07246037195325586 -0.27815762371719194
Ni 3.3016486522227835 4.261769118286668 9.27024768718549 0.9578932790924662 0.6657321420073309 -0.5846706586486253
Ni 7.237101843564617 6.191401024287973 11.39074682729921 -0.19531076632328942 -0.37118347852662525 0.22485814096310305
Ni 0.7591472737868851 -0.07995756431475819 0.036278194046922785 -0.5796516081674791 0.17564285558071685 0.46230286034196505
Ni 4.5667262505471475 0.2766217966955805 1.5399173783351492 -0.30121270576444253 0.40276305310511923 0.11447759692530607
Ni 6.147721654020138 5.6212191989865525 0.5389430002297287 -0.7906599877316834 1.45328032358291 -0.5654354645680971
Ni 7.68893017784534 9.02909020013446 11.31636668485891 1.2053609299249692 -0.9012917285483382 0.6025840485939363
Ni -0.15787724193193517 4.885239049442473 5.857036080026023 0.8335709281625966 -1.5097448343285418 0.0005183343973152363
Ni 8.228670730348966 8.829094213544591 2.278980670799256 -0.3435412913293245 1.1926468247924102 0.4856271368902023
P 8.644023977700586 1.687988991798358 3.5100357234872877 -0.19589620651311423 -0.611556941516508 0.5106264871480173
P 1.7045025883682499 3.4067186787498995 1.7176417857269646 0.9171844885191945 -1.394459911010592 -1.511966524570209
P 4.498058723711464 0.9834844831888688 8.370591482760124 1.2745385173618953 0.4166938042535985 -0.6519947378165803
P 8.26156182241812 1.6248834620491273 12.533291724394035 1.424084161634928 0.814336762523333 -0.42579910898897644
P 6.494978999032726 7.823497843080544 1.3458590277866747 -2.1561358528050993 -0.7947842943127021 1.6759340006955266
P 1.5721669806913952 3.117013939804798 6.164942068816841 0.7107429023900663 -0.09003000540590302 0.08884524106918247
P 6.942161750102578 3.9139945892056827 5.96751113373813 0.2185594524385849 -0.39762701743013457 0.8617425055008062
P 2.213638546789323 8.349020370405587 10.292185259529965 0.19432192004745888 0.8492806255883696 0.11737677284997206
