# total energy = -340872.8468001024 ev
CRYSTAL
PRIMVEC
9.19513435072645 0.00000000000000 0.00000000000000

0.00000000000000 9.19513435072645 0.00000000000000

0.00000000000000 0.00000000000000 13.45800858071120

PRIMCOORD
 96 1
Ni 8.990027846495792 2.637762263228592 4.748483323290613 1.9329517571103099 1.0791675872246318 3.3360199786152034
Ni 7.1919928527661785 3.6208600701171463 12.910510455336999 -0.6799400580765967 -0.4116840097438329 -0.1680915255960202
Ni 4.478324754099481 1.617975869617078 2.051740708729418 -0.1480675170656095 0.21764054016874126 -0.45306797200725846
Ni 7.3835091144869365 1.1741083362108744 11.158411595114126 0.7944135412368448 0.24133094180714565 0.7209303844460294
Ni 7.730312807931343 4.0131888745553805 3.4530966798807876 -0.28622934498173286 1.4052886261949797 -0.8777890174407076
Ni 6.2320024189189285 2.1764883401816455 3.342551853203568 1.5015147331092655 1.0300296920474001 0.47987249379461233
Ni 4.727779558412062 7.001267372613887 4.659916707136006 -1.034108232992148 -0.6997375524184981 -1.8522111474261327
Ni 0.5807803278244658 0.04179188637991373 11.150996638639588 -0.01391532452951152 0.1144256606414481 -0.8511009666265601
Ni 6.456529213555833 7.268441201140789 0.74265699294302 -0.8346587619101368 1.327051756769263 0.614378213015387
Ni 3.3674329676932073 1.9430238747941848 7.702744875135827 -1.890741442290847 0.3001212724724767 1.6174118360899175
Ni 0.1441466067428118 2.5536267823977425 11.799914752262172 1.763345080421344 0.7561118174431688 -0.7631592112082535
Ni 8.592411839710262 1.5865101192997921 2.9132144713611794 0.03036472833478641 -1.5706396129313853 -2.7520370900622217
Ni 2.1498776208893533 2.744425823626172 5.644759750555892 0.2811899827856125 0.9258110538459411 1.8839655570195941
Ni 4.540410302358486 4.486462448147055 11.95870553023681 1.2480944642377536 1.368558874874114 1.051033547992577
Ni 9.148220940726823 8.748738321634336 4.563368714220614 1.349320338359476 0.1315692623002702 -1.542282659055247
Ni 3.105702658800388 4.752348957841574 4.7153495755719375 0.04823389530572338 0.8831942476166789 -0.1263100707838599
Ni 7.611649596989036 2.4865758614995404 7.177142710521172 0.44809211605922183 -0.4883334800777719 -0.5002880813364867
Ni 4.5240061823801 7.07503993684404 8.097441426712198 0.3035616656125933 0.7082677013766964 -0.10000305745821488
Ni 4.846120939646274 7.57943904077587 12.243464134014086 1.8662054048226957 -0.2740405162250248 -0.04847197945845845
Ni 3.4942890434901903 4.435484622384626 7.025215180950046 0.26332184425594 0.10573173241187597 0.810895855162584
Ni 4.730050756637769 2.0803624039405855 12.687120179326397 0.8241195529417098 0.532399874269367 0.7440736553317121
Ni 8.484755204784843 1.3817160833364392 0.025130302635050436 0.1445116813935511 0.47973776798896095 1.3715313272388767
Ni 2.357237099382958 6.331456993855155 8.30888078639101 -0.4513407049035066 -0.27546362182479656 -0.3222805821783353
Ni 0.6404558313265564 3.75099880893671 7.409333649778023 0.3155244944014244 -0.354115467300745 0.22415957223418168
P 0.9445058273205673 0.9617650948090377 1.5117922952412877 1.139770031398037 -1.1422102654084134 0.25276875133044213
P 8.760710386775513 5.814653653459847 7.3984328178080805 1.2599955865507138 0.34675645583251247 -1.3256787876811362
P 0.9294441969816677 7.00680284359314 3.6501079539889236 -0.23601801423466448 -0.28622960209204895 -0.09240081963092475
P 7.738551648458604 2.979278754325705 1.387709472014641 -0.10055687307915585 0.3902224974359473 1.4499607722913739
P 1.1702371845792037 4.106510294768746 3.5235488810368403 -0.12943936044146093 -0.7501681982652241 0.09766875289808341
P 8.522620768725984 6.519157274751343 0.5565226434550817 -0.398751617952881 -0.6467350320795378 -1.935461668016357
P 7.549692780613269 1.027878111986503 4.767244156245715 -1.9525854721808373 -0.4158715654626193 -0.0057880674366868065
P 4.126518907477809 2.469436130759791 4.42834460043215 -0.8596514272997324 0.21645474739075624 -0.40565965792662395
Ni 4.154104311028908 6.514182706977628 0.765814939224167 -0.3380679269195791 -1.3832216190926114 1.594458569727854
Ni 1.9532580595116422 1.4396086502556773 3.9371138486421624 -0.5609530033167114 -0.6989592794915769 -2.5344677694510476
Ni 2.665467203528412 1.9598325806913206 0.6243294044105844 0.26638968454798634 -0.4812508621993776 -0.2940871504632548
Ni 2.4656293450697397 4.457083993365136 0.09292878796948782 1.8347710975728144 0.8093789042974254 -0.1241742553877797
Ni 8.865663652152925 8.286701202422476 1.6707844466618487 0.755058693588306 2.2215102644458513 1.0758233533427473
Ni 3.5881713669090947 8.73019173531348 5.832512443718828 0.19892316626489612 0.22431589530638785 1.540890920914043
Ni 3.8261506433444183 8.99703453899777 0.5841852861361231 0.7515599364064283 -0.15561267640271909 0.7809414748923389
Ni 6.922419094130331 8.110835059649707 3.411080432218658 -1.3964136923028532 1.1622805537957273 0.9658660128852979
Ni 3.5668662402331295 6.864480551538508 10.398209365999154 -0.241667499210958 -1.431003771572897 1.2014718792832082
Ni 8.0441059684596 8.488010282403874 12.853582458028596 -0.3726994009505194 -1.198198350738259 -1.0674685536201487
Ni 3.1360741881101464 3.4742252599740246 2.659006702016745 -2.1723068061380073 -0.5136673308568702 -0.8216782904900687
Ni 7.923070412811899 6.897610621203377 5.609459629145004 0.5952977993451684 -0.17338259879163045 -0.03223674854651867
Ni 0.5044018624721852 5.414361862529862 9.34549703470905 -0.016808329806590406 -1.6311415269711844 0.6448612120955927
Ni 5.073406274638288 1.7335127348235941 6.462360767866536 2.3362778818077503 -0.12326485619963287 -1.128647182011998
Ni 8.239281893718138 0.2030230530553723 6.5889465067087185 0.3984322869402493 0.19610909385486872 1.5396683613608515
Ni 7.508305480152104 7.84829557891939 10.400255283429194 -1.9031493290368968 -0.19074243022631665 0.3996687304505117
Ni 7.249085442982435 5.58161216426017 8.805427245445294 -1.014695118572859 -0.46188505607825614 1.330407046394741
Ni 6.966601715484672 5.929583639788239 12.259115172475527 0.3520691262946775 -0.06228523119246693 0.28652990694128716
Ni 1.9929258698181216 1.8218136115906594 9.716911505688294 -0.3592635871605877 0.6345032659000363 1.625580230833323
Ni 5.168888551463156 0.6219616572724486 10.669926510490923 0.4574097939157219 -0.47303258805464343 1.0172279122970416
Ni 6.707758678830201 0.3861404789082722 1.4736113381862126 -0.4669470439821958 1.1218088189339261 -0.1880854522194438
Ni 5.552472782975693 3.8746273925182146 5.239592699304976 -0.6794960285606426 -0.14489631842647951 -0.07128434936728369
Ni 0.895182206257752 3.2099203134164362 1.254360711735181 -1.8562333812116483 -0.10323621968353187 2.200758119500165
Ni 2.7726273011899116 8.816442097083248 2.735958943762888 -0.6537885964922096 -0.1317554101691473 -0.20815934015118345
P 1.7305335112400757 0.4781423973184431 5.809459321971175 -1.615948364170514 0.8810867143553729 0.5704398597612241
P 8.193949880549166 0.3710981583518584 9.27126287472614 0.21018871187638638 1.1114763266596663 -1.3505881493283065
P 3.2719966665409244 6.61452001482749 6.208327706077925 -0.838232338194008 -1.3010183088199787 0.37121433176456065
P 2.645780420527445 1.968963349266734 11.963994571611007 -1.4143450799702932 1.0284458925000481 -1.7231731361881484
P 5.141744514368876 9.161222860933906 7.786400369944888 0.7362662434721514 0.4966972786614349 -0.11242842770576121
P 6.328965112401039 3.1262813698495067 11.070921729211461 -1.8652967769654973 -0.7596352572153949 -1.9096809595078275
P 1.9253968019250332 7.986314548020051 9.809340997853507 -2.623362632811243 0.45692077009444537 -0.16554330525286973
P 4.9002159160099765 8.515310636784942 2.280741855822311 1.0812987746350218 -1.160418046665692 1.563190612852508
Ni 0.6575468278533652 5.188400626908299 5.426793684396889 1.2652828030915821 0.908229850429068 -0.9080095068881459
Ni 6.3375809534434975 1.9868570810368797 8.964743065600855 -1.220622741180046 -0.15410318173672813 0.5347609183023758
Ni 1.2491590241388955 0.5812428430906725 7.977463311533954 -0.75142366793888 -0.6882781456286469 -0.5400450495194506
Ni 0.13430413475577996 4.6698318206857214 13.091601273542343 -0.26994629155099314 1.1841087054144124 -0.5601094243694934
Ni 9.16220674032723 6.650178746484542 11.461041862338707 1.661980366728912 -0.06923569436837108 0.4617660140018886
Ni 2.943178656211834 6.490459259923684 3.0281462967164754 0.5853190908659016 -0.6118569892554302 0.009627238677118904
Ni 6.051750196981536 8.273680891946357 5.920124604910568 0.22880504142599306 1.932285841391537 -0.5188838420608032
Ni 8.08399446199449 6.399252720649236 2.644001161998399 1.0560649397688975 -1.927819578090067 1.8028462238397593
Ni 3.1803487608096592 9.122952711074017 12.053988272642657 -1.3597574745324001 0.5053922353322716 -3.9214133743624657
Ni 5.896214496625928 5.876582884432063 6.7523808276144575 0.19767720967293698 -0.760263377717697 -0.7483663691697949
Ni 3.623020926728649 9.036775910380387 9.298595412078022 -0.5375999304130676 1.4120989642485937 -0.9585771925333685
Ni 2.290360886040579 4.07228600409635 11.127700765340688 -1.299505728830194 0.45012354466695387 -0.2315599784633109
Ni 7.774624161168924 4.315570873148003 5.942477976921474 -0.6014211386340867 1.4046980437988323 0.16512730076137366
Ni 4.887287556879029 4.768973761048369 2.877632059320618 1.080789439098771 1.298243574288319 1.3963794966308078
Ni 4.954972942058907 0.5077764768399362 4.2449926986490665 -0.010229133927175931 -1.3053907268560616 -0.7727712803767207
Ni 1.4244274831680561 8.301257100362939 13.304546796255044 -0.6333244151005867 0.09145516788820378 0.5453618337466736
Ni 6.959043314911672 7.805942789333937 7.894413776089567 0.23086372372723465 0.4347257220546448 1.8680830814613827
Ni 4.123558074163325 2.881019546876693 10.291299375996518 0.531612088260749 -1.8486496553271197 -0.36217304749789886
Ni 1.3585535394880337 6.412135104107599 1.2912571084982265 0.04757080780042775 -0.8262800509281384 0.17913569922532374
Ni 1.158816827509049 7.6279893510258026 6.440303479187078 0.08616897978859998 -0.5048170795550919 -0.19804796274879438
Ni 6.57491657046263 5.093405692212834 1.4043296776541778 0.3285293913015246 -1.5935160033089266 -1.1561659562575572
Ni 8.710808391751575 2.7391754018169463 9.434468236782406 -0.04035217856480147 -0.28598200485761716 -0.03765226313513515
Ni 4.770739226875639 4.896694179489953 9.313977952611566 -0.0016912716594938613 0.11369623867459129 -0.9039793026828303
Ni 0.03011498505673387 7.6546184605871295 8.753412208509344 0.7686991671898761 0.17820084611588022 -0.44823635494657
P 2.3905234863346165 3.8594830059686625 8.863633366451564 -0.053871296097158836 0.047001051339886794 0.0916927378203066
P 5.965086054158503 0.27214931581406926 12.799683338030105 0.4990644933420308 -1.006657592980363 -0.18103034514487532
P 2.7255941881352888 6.584295607670003 12.614797687809581 -0.33725314432776754 -0.006342654388576173 -0.24892803742811323
P 4.769047322124505 3.8157509462056542 0.8382560479762541 -0.896444941978998 0.185762460513222 -0.24579720510861544
P 8.503182254356977 4.539306886216442 10.95831811191588 0.12438971383269547 -0.18862281278015258 0.23922058033236218
P 5.663963788994715 6.355989612746598 10.634141805490987 0.9607073515024938 0.022647305085870675 -1.0354848016247005
P 6.4088708313540526 5.747667098503264 4.470898763463526 1.3864000168205928 -0.4391215371294954 -1.11757344069634
P 5.603533364948776 3.8047535653232836 7.504306516150647 0.8907244945554531 -0.962301435462491 0.2909198084788667
