# total energy = -340894.6194799135 ev
CRYSTAL
PRIMVEC
9.05972325425580 0.00000000000000 0.00000000000000
0.00000000000000 9.05972325425580 0.00000000000000
0.00000000000000 0.00000000000000 13.25982075346692
PRIMCOORD
 96 1
Ni 6.33704093834301 1.9141202323048956 11.36592033542179 0.44027416267669983 0.7385211009445991 -0.1470521884272177
Ni 4.70227727588032 0.28886203159276286 6.018540021774124 -0.9262190879176371 0.4625561140033518 0.5146361225280427
Ni 2.7309720697196114 1.540696554803484 4.687797120032134 -0.17434753380806103 -0.09208225994924141 0.8423473888036461
Ni 3.336614576414971 4.167318730848942 4.962554068323866 -0.4871942242670061 0.9977284088115334 -0.3956822349989379
Ni 5.091048124755582 4.508018687569746 2.859149035833687 -0.5809893531422963 -0.5727538526063813 -0.8128280391882905
Ni 7.019301525503931 5.944120736168324 2.6916111956045974 0.8476459181984239 0.15547640793517092 -0.7741879582185892
Ni 5.260709564140534 4.65511235606198 11.460304533398638 -0.6956898647116857 -0.7026886646270221 0.013256093678957815
Ni 5.430180749334901 7.666836193021419 12.537492051458747 0.5165986455710523 0.6038055797058633 0.5026835781518569
Ni 2.0445893084293516 6.252459361042967 0.560509682826934 -0.013162248413570879 0.8783248353395197 -0.7454219418294904
Ni 2.833446600657999 1.6881163733367213 0.3116644493205347 -0.4372063223846535 0.3989105121282485 0.3519909647585744
Ni 0.7020397752030633 9.16164524900049 4.623473990140043 0.18366006945823854 -0.11391015445761028 0.6855157523921613
Ni 8.54798488713048 2.1560329654953145 1.3622480897305174 1.0519534887036852 0.9026209888827229 -0.6359623669440659
Ni 6.685278584900321 0.7452981423080597 4.755462381872169 0.2988971702573885 -0.23922392276647184 -0.4836281041823026
Ni 0.8624014085577563 7.245069831664713 2.548511053169974 -0.6754275149182238 0.7213325049804544 -0.20947008854280696
Ni 7.513264822325937 3.5510401089275483 3.8186425936809494 0.16491544186088372 1.0718291445816894 0.5533150271554793
Ni 7.637944735222593 3.9303888455071765 12.658276283310093 -0.4772679662922297 -0.7291743696223765 -0.26102944867733757
Ni 7.962808295508042 8.88087536231394 6.77417712038197 0.5969337922866945 1.1425684200787807 0.9919758225984722
Ni 6.662094752819044 0.7305679380951056 0.32023494762021776 0.2698344485634772 -0.6654233525176605 -0.601303639219616
Ni 1.621056301017214 6.745960611973553 9.478557996064161 1.0359283169200222 -0.3623748790960598 -0.7669369330831308
Ni 0.2395608290058547 4.684384322241975 1.434195882803385 -1.437846248416027 0.16936602143306959 0.06037541576426377
Ni 6.290917886711206 2.030392721922371 7.030688691796605 0.856223632565106 -0.14586665275954877 -0.45647211259280096
Ni 3.4329828538079186 4.269865739574219 0.8740051022387647 0.9626973853493291 0.28438457846351023 -0.8582236937142703
Ni 6.001332889194221 5.444504171968937 4.809323343226763 0.2008574071731315 0.7650515431349598 0.9304266982410815
Ni 5.43368686227568 3.037888318026548 9.081995785098279 -0.23987724007975464 0.11943699781311044 1.179687179307949
P 0.1354573598071256 5.753948083093645 12.750378336972258 0.9582187807526853 -0.3415900811402246 -0.7164265830384049
P 4.031123909560216 5.848241683836881 12.741905683684875 0.25437080571023934 1.4343508336682589 0.6180140099957615
P 2.362848330384494 8.405747230359841 1.5292151673878516 1.8182856983232814 -1.5400928504927798 -1.372215754900411
P 6.5205818739173 7.7810249462658225 5.79767121400707 -1.1410087889011447 -0.7210815653119129 -0.6506526219663891
P 4.664670364208032 1.0026848829993862 12.606336889280408 0.646187387106184 -0.5725203964393365 -0.2742665161929018
P 4.132647169545679 6.167180185044113 8.262525687632179 -0.4652673422869278 1.1924912730511528 -0.7334526852827562
P 4.6587815440232605 1.1236865482114016 3.832101718706329 0.6478308362468779 -1.772755060881334 -1.0512299802740992
P -0.057761172261584705 5.5595807781027355 3.4975958948475694 0.506850565045353 -0.5404710813132757 1.7768963367432173
Ni 1.5395006713198074 0.9454817896968506 2.4533721802371398 -0.807644695215138 2.122033254694436 1.108787981194226
Ni 1.7508096589961364 6.444788228277608 4.8403121269837035 -0.12212868571266063 0.3737111300444855 0.6596663954292251
Ni 5.977397100073964 5.696889945364888 9.344607268252 0.6537392313115128 -0.08290959231103785 -0.1628017379519906
Ni 8.691427487108156 2.29504536074937 10.185531696609727 -0.08990993488827097 0.9023404815278266 -0.34422597610117495
Ni 2.285940338771377 5.402593891700086 7.0527527420704414 0.38945579447325185 0.11796966923896457 0.05662803290668957
Ni 0.6469983318945071 0.004955668678569363 9.033080526726556 -0.12251100875274386 0.8515359972814496 0.8285487923576569
Ni 1.5172862296381768 1.2196199588830121 11.423521150579882 -0.12959619773429937 0.5737498979710635 -0.47247902954401855
Ni 4.034765918351414 6.798389231064743 1.975885802292125 0.08211126477945858 -0.4288612928540678 -1.3831393437914503
Ni 5.716078439443883 7.817916139792576 7.977505884716896 0.2024916003424448 0.6308913801790619 0.6658385856782081
Ni 5.218219461576567 2.824214742552949 4.866486573746509 0.6885622525279689 0.8304097568257957 0.6159890091459327
Ni 0.7173960063002756 7.5077474507989725 7.095701266636485 1.0242578225606296 -0.663516879523567 -0.7240612167655273
Ni 5.312540241489885 4.555337622685226 7.194142408734472 -1.6768161461901636 0.4413452842536915 0.2055213883077041
Ni 8.183412559352949 7.308687209106969 9.093121125385816 0.44745731068870037 -0.5230325741218541 0.06752642498674821
Ni 4.533521808831487 0.3229039421224235 10.4622111181987 0.704548086433264 -0.4447501961701824 -0.22449870074115533
Ni 8.116325307863358 7.566246084542159 4.350573379165018 -0.30629731937620147 -0.9760730353252868 0.13376138485558253
Ni 7.409250138416146 6.157051414326305 7.118415805047653 -0.12706417534106507 -0.25655958583144206 -0.8918768629923415
Ni 2.1953884037763114 5.123146724624268 2.844708742768291 0.8864410366887507 0.009240801871977634 -0.11074152692164155
Ni 2.454043505738204 5.265067291077265 11.374871342102644 -0.5494450026771117 0.2972799463689396 0.6333542398972576
Ni 0.9207759240908934 3.329973799191221 3.865635378755427 -0.09236842373109252 -0.44040220361413185 -0.9084615068238999
Ni 3.5743326576891605 2.6210776253484114 2.638147050133224 0.15392808961144458 0.08323997906726309 0.15709440315456816
Ni 1.335847149883682 3.435274963818299 8.248006574973541 -1.0606078219445734 -0.4285273065534168 -0.6765390028148478
Ni 3.485710443770028 2.8759820018387723 7.034109643337791 0.5057030817044711 -0.4413527404528592 -0.05164806319359492
Ni 4.491665886902803 6.9462710954894 6.064975633861889 -1.25144589720849 -0.6629342675472196 0.21904153428132597
Ni 0.8226129155000946 7.55175958688762 11.603603083774871 -0.015728209368534203 -0.4779217978261446 0.2463674757897886
P 0.32943781461051164 5.549388589321401 8.095147298534247 -0.26903972057632375 0.31787936778684606 -0.5028105906480244
P 8.563069326526858 1.677299063643464 8.023729499278009 -0.29731877002667506 -0.335914370911686 0.014851206080219585
P 1.9341603403798415 3.4189946409382457 10.319880146277443 -1.1605913390187623 -1.4732043162003465 1.309214728587842
P 3.9222350944821076 6.176502640382774 4.091105620017627 -0.44894700786034936 -1.0084151991014179 -0.7070042612832405
P 6.980661805368467 3.956861357168565 10.42064148352823 1.0759565364865018 -0.1903909604241689 -0.6686318321526291
P 6.4660423392829545 7.712488139038441 10.197465164221084 -1.7239390678198954 0.7705547323413762 1.2098583035746904
P 2.5198533362338673 8.478877317331344 6.0518752738816115 -0.24738434709007717 -1.0895748986008849 -1.5504412836066395
P 6.9633849129186824 3.8524933440476894 1.5242694644049797 -0.54489852095701 0.6086937610361001 0.590892471188621
Ni 5.350853811584346 2.8420895767445713 0.2814249046855643 -0.4340436083859557 1.003410289687659 0.16381680948006627
Ni 1.5651215689852447 0.996524271113779 7.018489774290768 -0.7247865249673259 1.482666490054511 -0.1326488685176941
Ni 6.776156669936389 0.770331969899692 9.173037851127182 0.19432449115062017 -0.35949318667289054 -0.20282815774625712
Ni 2.938883661135495 1.5830417017936729 9.083719850453912 -1.5764803879828786 0.5761723913696271 0.991185722597009
Ni 6.423434460315291 1.9866704969812823 2.43093577533316 -1.6147162915356257 -1.0611094441713405 0.7031517203063696
Ni 4.154490162569501 6.931159476922939 10.664423237648062 -0.27204559728218314 -0.3697439178666213 -1.1693467166138893
Ni 8.00522592028512 7.46841919168806 0.18633495425888028 0.1821624018667895 0.013063775162493631 -0.16656943252453896
Ni 7.860351884016376 3.8795547377275548 8.097892394712687 -0.05928886756830434 -0.4691733622095533 0.5939546550537126
Ni 3.0106185507093746 8.534893586873563 12.417702577232458 0.33035693142856654 -0.594989009855498 0.7280327998187655
Ni 0.14124199317324357 4.952325640649085 10.2243698246868 -0.11408318970036482 -1.0152707885706709 -0.05028949228317146
Ni 8.517580455530336 2.087804188862214 5.779252796413777 0.5170647865741933 0.8794856884168403 0.11240683043920639
Ni 3.7069126493567732 2.651309922204693 11.346468203392986 0.37689338442720893 0.43119199786977347 0.04315108146617729
Ni 0.8304015596737072 3.5925427016451468 12.339191920556745 1.5182335885258433 -0.5593872014914882 0.39776585700084405
Ni 3.2267744903839386 8.29293555506634 8.150387149784413 0.3693271420441769 -0.22063741801353612 -0.12061302039908259
Ni 5.517752035344135 7.799561140262811 3.5682046608076536 0.4593576616707121 0.5796732054340339 0.9190338830231076
Ni 2.9624661210446646 8.251070573414294 3.808459464622975 0.6673863897813022 0.5399949130078054 -0.01057726129521404
Ni 3.4060029976383035 4.474660786153854 9.238621188538817 1.05922533977475 -0.3935819008264834 -0.3421480105262236
Ni 7.540063484028327 6.121510119580368 11.43908847323141 -1.2861118240217915 0.4762261552912766 -0.5028159899646631
Ni 0.7874521291353274 0.09628492793802464 0.2725155727321729 -0.9693298030641821 -0.004150274722947691 -0.3060126982562471
Ni 4.43570397570075 0.3143044527079847 1.7018182989481807 0.1078590631675239 -0.4036451985997564 -0.14125666479136317
Ni 6.189793254553636 5.547839376626638 0.3986115203901838 -1.2353027117897242 0.7873188391735925 0.20326627372494024
Ni 8.021143854230726 8.997836390906865 11.17535086646389 0.05987379353749688 -0.047945931751659364 0.4196289756225225
Ni 9.041323063040565 4.899453095113197 5.695729394802321 0.10913021657046366 -0.6663402079049751 0.19197990217784355
Ni 8.024514071321088 8.893278123595405 2.1364485615054365 0.30426691920973403 -0.17741614543105574 0.7255637694529827
P 8.365404282232475 1.4552996024009344 3.5225246296482116 0.6591344341851552 0.3384196538320429 0.44882179513639475
P 1.736513415532183 3.16779569130261 1.5566634112552402 -0.34227707990492023 -1.0302929730111159 0.278199789809037
P 4.756979885535168 1.1175893543893225 8.230158919952002 0.6954512663383184 -0.7660748421931517 -0.5962676194576053
P 8.531677385080343 1.7411429341697495 12.362449136397249 -0.4387944928073798 -0.721713542468957 0.5783912533978168
P 6.257569045018677 7.760966718744154 1.4422572246501695 -0.7324540688149128 -0.24167778362360312 0.002319392161796006
P 1.5962598381776447 3.0302781504031504 5.877322489853955 0.42826582536191404 0.5215796437254114 1.047114415443829
P 6.9149878707232215 3.9468684823011753 6.088326164853012 1.535346594057046 -0.3739646408161882 -1.506354063479438
P 2.431131465357762 8.631044430905844 10.261828156895964 -0.051575043863814396 -0.0858758740282134 0.28168337748226324
