# total energy = -340865.79892637284 ev
CRYSTAL
PRIMVEC
9.29135158375480 0.00000000000000 0.00000000000000
0.00000000000000 9.29135158375480 0.00000000000000
0.00000000000000 0.00000000000000 13.59883222703408
PRIMCOORD
 96 1
Ni 1.7591037307657118 1.3566581261008408 2.572137880667285 -0.27391658905265087 -0.7533067438942058 -1.1711922544630604
Ni 5.260122191774672 7.125165913868565 8.647851202313142 0.8052036898738133 -0.5240733566815425 0.27816687968857257
Ni 6.047638573549275 8.009061486140205 11.053688754898658 -0.11595958078747126 1.0301826726854968 -0.563739564922913
Ni 7.415260494577956 5.721251973358398 10.774776315880503 -0.6874458795353386 0.20916849814198815 1.610997962143774
Ni 8.106611386943097 1.2175108440335851 8.275841278194992 0.5967602428233078 0.6922882952293045 -1.4891078748044806
Ni 4.6943439167398555 9.24192164307277 12.606281045981996 0.44248556850572185 0.8862520606063964 0.3047582570238558
Ni 7.615228964439834 8.521656064423354 4.901277183786403 -1.225515036275341 -1.3622915538081635 -0.3023966987702147
Ni 0.809388223520484 1.3906365990255172 12.558412931500007 -2.2129981132097827 1.0469210684861001 0.341672870662018
Ni 3.0379560782854096 5.437791417715514 9.056836060257856 0.1283659248716241 0.9444590079644315 0.9483040927421345
Ni 5.07436019856082 6.023583264169458 11.618597359420553 -1.173978558958946 -1.904291670171456 -0.9177367614782389
Ni 4.788567513657861 4.312460073240506 3.130628019480576 1.3353078261304683 0.852818720648615 -0.5924896404724118
Ni 4.3741267740338 3.60362285710062 10.759069285943623 2.282339479918082 1.813996069808992 -0.2649925470901436
Ni 2.245626776364517 3.734928238388978 10.455964954676634 -1.386802394465334 -1.4623761152365913 -0.33777302138697957
Ni 1.9326290138778957 1.2895374018985268 5.010462644240259 -0.15175705010205476 -0.5416082802415124 -0.30808886405898556
Ni 3.9046626500345862 5.739899716087363 6.943889785223495 0.24088485540866256 0.44177928646731657 -1.478355778494299
Ni 1.2373385884200385 4.65611929611855 4.438903290218915 0.4226878170535043 0.5014399355527428 0.43881866117709584
Ni 7.894842900506339 2.74145046494872 5.96938402268422 -0.20363111326352673 -1.4500538462258123 1.9948070998542098
Ni 1.0885468833569354 4.286379249204529 13.12635423319516 -1.127078809083614 0.6141684109974261 -0.8557590342238616
Ni 0.3979123542027574 6.3282188101856915 2.5671335586773396 -0.9419102734006487 0.5971117126254556 0.2596055717466174
Ni 4.106461516168316 9.170945007942443 8.926028695417068 -0.06597836377333799 1.0491964947838384 0.8933537046481841
Ni 0.4541984332649387 4.957289167975388 10.580272089914441 -1.3746709013091227 3.059244579957518 0.2577790600608399
Ni 3.404927302412568 6.792851431335348 4.596908299562059 -1.0815599987162081 -0.8982439428609499 0.2423285298337246
Ni 5.779564496211903 5.76131628160319 4.670586859747484 0.6379292608624497 -1.3198452117184947 0.9475165638438326
Ni 1.8496200783818446 6.526245387556112 0.647700122389716 -0.5052276847299493 -0.46058973430560035 0.5817843382397658
P 2.2762046145912356 5.551536144416058 2.6091945783882275 1.555682734511237 -0.47182776911326485 0.5061537960886444
P 0.0681576390446421 6.759040202740079 12.057078542261817 -0.3100884109875176 -0.8101083262642822 0.10200851792401786
P 2.777686736320401 0.9365403706285498 12.603180521941809 1.2525884954533655 -0.672502627961945 -0.16508899132427052
P 6.70454642540805 5.025617767890092 12.986340997155638 -0.059851939160625964 -1.570519285303437 0.1289973878080359
P 3.034360325203143 4.521840682307386 12.392520493754958 2.29653531180249 -0.3759500466773332 0.3745742493757291
P 4.942757494020181 0.287263505866584 5.492472880350544 1.1913867271330643 1.000529111485122 -0.5266722277569704
P 5.554016935302273 5.09901944579683 9.341187656522418 -0.8085934322816526 0.7415004952878972 0.838812379067194
P 6.873221622967409 2.3962210036445706 3.5386883879377304 0.9892136864723029 2.130886077099375 0.2805153253160911
Ni 9.097645534903677 0.0045601953818515655 3.382070577393508 0.8562352025293318 0.45140395404127426 -1.2834605024418735
Ni 6.439083217879769 3.160211683082481 11.682634284015622 0.9753718954932041 0.0403488361306918 1.4661983171961588
Ni 4.284112159405891 2.4193843432675446 13.04068146718571 0.28613627104729433 -0.8389666452568713 -0.9575832040512153
Ni 0.8203055616901573 7.537906336143647 4.65269078736569 0.39898635967150636 -0.6410251261789541 0.3979656317164759
Ni 2.7377153415919473 3.3574113301574973 0.9445309330335872 -0.9850402718209036 -0.35136387269753677 1.1013978593777418
Ni 2.3973917139504244 6.58656484236251 11.97597526298585 -0.16795371446657525 -2.2903883183644878 -3.362992650549305
Ni 0.690012937729879 2.0771374058378336 6.815666345272056 -0.7114512413110005 0.1885629060764946 -0.27865384662732007
Ni 4.138804711205449 6.5298318492867455 2.089296997720941 -0.761476938409824 0.2765730528388914 0.5590912675176243
Ni 7.867043176418116 4.33525175879813 4.600076650469172 -0.2832854318620605 2.4048977969689935 -0.41763662778284205
Ni 0.3009357297956683 3.4432541279018465 8.697514405930775 -0.35641351930630233 1.1905624314595562 0.20426746129594497
Ni 4.63896746100262 4.447324042204596 0.45144168923520084 1.2793595928996224 1.6811623389740016 -0.41814467776751213
Ni 3.0425552973441228 2.972981656310495 3.400782430448746 -1.535160189077853 0.25945464799104995 1.546426763130608
Ni 6.47043223829209 4.571809571393771 7.237665599450184 -0.9102070287600971 -0.008679272941552792 -1.730178106751072
Ni 9.095397027808305 8.441648235505008 6.684587672963561 1.142555050342342 1.2068681105981152 1.5349367602131372
Ni 0.7265874143010294 6.535313746750666 8.20346815291411 0.37927988238151455 0.033168516332168684 -0.060853383841946815
Ni 1.4132703316053672 8.405226137100652 12.719069692599426 -0.22628818854141028 1.6299932722993542 1.3892002052735495
Ni 2.224117297332352 3.9523830320256 6.859523383253751 -0.02454349366731902 -0.7332313133005695 1.4089910147472315
Ni 3.8941912967433336 9.261795844217392 1.6024050854622753 0.3064197038866787 0.8402748225453335 -2.880063629316556
Ni 3.719142231963213 1.7443211903163927 6.887033217171 0.9300885981753724 0.8836968982847103 -1.485559752441906
Ni 0.7786914559928533 1.4048895324317119 9.807233492255572 1.725049784385571 0.861839950310619 -0.1643765386382782
Ni 7.862917816292725 4.1665022304257 2.3478520853095195 0.4137900003432422 -0.2549737294015609 -1.3479247435635302
Ni 8.729726592909874 8.676069037224885 11.081593471260343 0.9247371040554719 -0.8439453294183852 0.545318382103248
Ni 6.034296192603188 2.0344436450806858 7.3459395783087675 -0.2936204952394814 -0.2653270476114269 -0.3309441713906042
Ni 8.403618733268011 6.1940888580006686 0.5196792339038934 2.0867610617557033 -1.949541800258507 -1.384013261755971
P 5.91987319723338 6.737920960476532 6.568276674941773 0.629504270023548 0.5258934406094169 0.04251601898533968
P 6.895799607437457 0.6109017242441922 12.317386907903686 -0.8225470662482672 0.26217924601106457 -0.13148004502057356
P 2.89936627731618 2.3547629926547136 8.801585906445407 -1.0728203048503653 0.3045309715043981 -0.9833220035782162
P 8.820410184855414 0.9614226103037709 5.213356960731608 1.3779796539673814 0.4501094035995667 1.5652930039074913
P 5.910386727215307 0.9178628955743566 9.221122952440588 1.5315423898196074 0.8448521575033708 0.27545256608120305
P 1.917985843703083 7.371265944592083 6.555344042602735 0.5122092582541049 0.18823791863690809 -0.6129556216362476
P 4.54245819158271 2.478793245613834 1.9638758294222454 0.49552819805399817 -0.8193298448625502 -1.4910488005809355
P 0.1714170754264827 3.009292258495246 11.216180557945748 -0.9536157347630351 -0.26923306753405246 0.17344147705402385
Ni 2.0577184809232656 8.845041558036524 10.275848386715458 -0.5668081765459076 -0.7554880678162408 0.7845369055530811
Ni 2.314605770893584 8.09506223686233 2.680778867915402 -1.542086740994357 -0.21627734127262754 0.4221962221290664
Ni 3.8712509495595695 8.40783700690974 6.8449721974601125 -0.5417041823894284 -1.5751421287874292 -0.8707387954621456
Ni 6.536716740847364 7.097003827066625 13.213604670712026 -1.700929751408916 2.3539472740630556 -0.19031125622616904
Ni 7.393072746876528 8.508109273741326 9.242717911907784 -0.3672512333517546 -1.3570405898218694 -0.7328739299611507
Ni 6.221451888562104 1.501686833752269 0.7099298790920165 -1.0613004771362238 -0.36995320566394996 -0.3013831699040358
Ni 6.511648674139469 3.331609246670533 9.250455749548383 1.3010964703560817 -2.0755451384352255 0.8347842317444075
Ni 8.239189683405282 3.4193010233900014 13.574762296121937 -1.2181963911267406 1.1720962543345685 -1.7887334385874616
Ni 3.543702930414473 1.5510146195759245 10.64259568926824 0.3770952160253699 -1.5661975179996317 0.5947365275250597
Ni 6.5657522147028775 8.95632407655412 7.045704416426285 -1.334489701104547 -0.7615838963013335 -0.5302319200837707
Ni 7.807801518401235 5.724568985891652 8.590015325798449 0.9208097439766078 0.48737831525335423 -0.32588012660413557
Ni 3.9485642865041233 7.21178918515015 13.348015221716388 1.3459354810476434 0.32374096877394565 1.73047841160031
Ni 7.905221340281255 1.4982861990543115 10.544439063203665 -1.8168404812363226 1.0483030364352914 1.102189759151418
Ni 5.46090830058032 7.814128928863828 3.967309588425243 -0.8502856698141162 0.8045791689159368 -0.35324977686634
Ni 6.234478363552642 5.803768467217861 1.589322862361935 0.9541826630100986 0.15515707692253924 0.9005332531157588
Ni 6.291945373407475 0.4292465084524645 3.132558762350072 1.0815823673137115 0.6526503691227082 -1.3597608169665099
Ni 2.0392379825237086 0.5215700239613643 7.692791309608173 -1.1964494863679525 -1.7713262988546075 1.3488919925728058
Ni 3.959184301421516 0.7312869799573873 3.629976846874629 -0.4277786013128504 0.5942763000591894 1.5611967223509307
Ni 7.856934185840581 7.863335927116245 1.9699951136082428 -0.886935459826666 0.9444196700860638 0.8908437937421368
Ni 5.610740637026405 3.124021868468969 5.327913751564943 -1.1935161147712412 0.22919842020966977 -1.2548981174231484
Ni 9.306682363960107 2.6459260788019883 3.6409517914244316 0.08178267779544625 -0.6156205700629204 0.15236203067590537
Ni 8.302120008020768 8.645110253581182 13.403784701627732 1.1832137044039686 0.9217268564742384 0.6144556032205418
Ni 8.3581282756691 6.266273368843384 6.059367975851739 -0.7437278419565191 -0.24701539378643264 -0.12029754604119283
Ni 8.387879183600413 1.7419147302432478 1.3667912741926243 0.39909486022491264 -3.2481543278504708 1.8745681749650944
P 9.41464786994445 4.460452722063105 6.745673664279745 -1.0411867371054842 0.008187678017114931 -0.4366944157452415
P 0.6884426993037729 9.173658082619502 1.4189296938854932 -0.3923063765481696 -1.0693012359535132 -1.5112874962253133
P 5.64491422833539 8.155939172766754 1.5575287862063567 0.6627429774720198 -0.7782294752778146 -0.09172024862413235
P 3.4084487246817647 4.187398480250037 5.175620136071075 1.3767511808769193 0.6749153511684958 -0.30293174533807826
P 0.2617671078483711 8.776759414879988 8.904909453153522 -0.2187972794810038 -0.5320669164099805 -0.4315192993022052
P 3.627362260524888 7.474381365023599 10.193861499899121 0.9590415337642968 -1.5897830186290556 0.39489290632842317
P 0.6665141803129256 3.0554331107085204 1.3741760404711403 0.13411234043709808 0.7800413316755727 0.793196381000292
P 7.748494820922917 6.27070534357269 3.41610851496864 -1.2943702073758416 -0.9148506981796954 1.3557820348244198
