# total energy = -381166.82012430177 ev
CRYSTAL
PRIMVEC
9.27533105231679 0.00000000000000 0.00000000000000
0.00000000000000 9.27533105231679 0.00000000000000
0.00000000000000 0.00000000000000 13.57538455989606
PRIMCOORD
 96 1
Ni 0.5847261285707792 7.997848758884762 2.801035813153248 0.8323206006952633 0.760487320803045 -1.8162018192110594
Ni 6.9279950038068305 6.638474828409735 0.5183240354180975 -0.7456751954908771 -0.18996621418192444 -2.932295332927763
Ni 0.11210443057288126 3.6326091027381717 13.22099900640522 -0.978692732336321 -0.4032448778375442 0.7003157935194713
Ni 7.845297393319439 3.4996286851477265 9.77483332795285 1.084640437413745 -1.4472973665265976 -0.37182831119947574
Ni 0.02079529163965811 4.269379112392859 5.808906865342426 1.3058887495384026 -1.0027657141251247 0.007660601869051323
Ni 7.098475583796533 9.014406463221627 4.721953110413078 0.22746883911307275 -0.061331351919629865 1.2885839397113679
Ni 4.797136159228232 3.2844224600704086 3.4616146694224925 -1.4068742255145448 -0.44470931562991795 -0.29554368040412327
Ni 7.4277776529681585 4.297882203922149 12.028034713234506 -0.860380592156273 -0.9326108503765939 1.2026340179121096
Ni 4.836955154325937 7.815801841395213 7.522812692281244 -0.016137786102127048 -0.06165222559415834 0.3044939476188756
Ni 0.6609192609093767 2.407783120757738 4.225813811187547 -1.1102229138685396 0.46069720641774203 -0.01012371869756321
Ni 4.275250396785323 3.101169749577667 12.048153833259295 -0.26609760722886433 -0.9604160455143201 -0.5310266480709241
Ni 8.099923774270328 6.036552236547284 2.1714773731907258 1.719691348287135 -1.4388209536244705 1.7621564594298813
Ni 8.182140306426408 1.6752267699956693 5.927148782301552 0.6171999987348984 -0.03972714338629287 0.5439775518046374
Ni 7.443629193294731 3.755868973656734 6.938134795430592 0.30685936252725865 1.3512887749397566 -0.6796032435624683
Ni 6.46929279473116 2.439467650749296 8.282681182098681 -1.5564442952676099 -1.6470090901310601 2.0062402813918156
Ni 9.124309857797144 7.513936200711595 0.30044187740677325 1.4452808503172014 0.5847737598853928 0.4763403122716377
Ni 0.9995096463378937 3.663356824319558 2.16671263576196 0.12915268243897757 0.4190242521589881 0.3447792775014836
Ni 4.79178429336022 2.8076055299544835 0.9621105850442875 -2.1752705167520214 1.872849906722407 -1.140502024468055
Ni 4.233529958874893 7.225983556218648 5.165623718404346 -1.6408577258176837 -1.3284257542986542 0.7115371161565874
Ni 4.84331803125047 6.0932801596820525 9.345063658222223 0.5276675017907041 2.381988239360672 0.8807524709444058
Ni 7.785545712345898 3.6439713829605545 2.8944485971105007 1.3799532327539847 -1.1701743547215073 -1.4890559385206226
Ni 5.358544106183445 2.63803393238257 6.215014238685037 -0.770298393356196 0.04905202033164455 0.05669102493414107
Ni 4.032041948041578 2.733708969520426 8.62757786493389 -0.10048282530811081 -1.41352309828963 0.4692630937098821
Ni 0.7084033893750616 1.7516740463980165 1.0180352645323136 -0.2771183838194002 -1.3147384866195486 0.3386914194361909
P 0.3367631452621422 3.2682277325044655 7.861016296415659 -1.7867958552451162 1.295112227748189 -1.7543559895488559
Ni 6.52943403959804 0.42247554959439765 7.400688121851839 0.9559824352229989 -1.6134801051356793 -1.1675137771702087
P 1.3252870898078812 0.7646601257055052 3.042881715803386 -0.5247837524850059 0.4467978227278306 -0.10358331861030548
Ni 7.319655121905047 7.888019566955596 9.074465157644442 0.21693940033665865 -0.6947367567697971 -0.20816653924003503
P 6.002214961948706 6.847930348394908 4.320230185936687 1.3449260659465225 -1.5625640350121024 0.492016585356314
P 3.9699250577156233 6.406535906580434 11.5883283816245 0.20425769110393208 -0.34937666706417897 -0.47116442449765306
P 2.321698775660652 8.547625441024573 0.734863125530482 -0.4723170500448575 -0.7213381614074093 -0.541419561269474
Ni 0.855073267684049 0.13800300921527794 5.379856961281396 -0.8497395675026592 -0.5108113494653138 -1.4175342763315522
Ni 4.7809599823238775 6.913210126521543 0.9767544773015097 -0.769972377475345 0.10136034281705769 -0.21211086859976375
Ni 1.4107592630725778 1.569376694977035 6.945546712267903 -0.26587212148161954 -0.0254066129985627 -0.17238192544125797
Ni 5.3816675058523415 0.4589878892641185 12.853065184477495 0.4166356973221535 0.8018787392656384 0.2991568516766783
Ni 0.9818679671681213 0.23041591251296112 12.572828687671896 -0.12611800937771184 -0.6566479203178756 0.33837208842355915
Ni 3.7852624969422277 1.04330775834613 6.833930164094775 0.144333503944474 1.9613295369220545 1.2620498979765813
Ni 7.006176767067615 4.821289120615239 4.589674835363722 -0.16408163310567872 0.6662412204332655 0.700061254306504
Ni 1.514021520799747 2.3904568028349544 9.244021914687085 1.4941300106094204 0.39718787301018693 2.318439825185065
Ni 2.4837944566127774 4.608429554228748 4.045382656322274 -0.6276507617545771 0.3144376890951488 -0.5145327641809591
Ni 1.4359046848545194 5.962071330273219 9.071180763010364 -0.36752762694159286 -0.42802105634095966 -0.44133268584820123
Ni 5.458439418832471 3.9827157388802483 9.98650101433234 1.0651157371172557 -0.23119102515966639 1.1772171205009017
Ni 8.781753340921206 1.191026676567894 8.570221074371304 -1.2848954351161872 0.16908294297501206 0.03492663667385598
Ni 3.4600415733198675 5.172824157699558 1.708095759729593 -0.10029436344638856 -1.7941160430556133 0.9907404075294743
Ni 5.689636314198268 4.979303656018101 2.4119115704940506 1.2247118236477552 1.5273674325063116 -1.037732974228929
Ni 2.884535123558107 2.4166410616658 4.795490715545416 1.0328319373828856 -0.15290427633262052 1.1170944441773922
Ni 9.12265884891585 1.641075002012966 11.103402029795571 -0.06695486875399437 1.3167249209219583 -0.1129588462879345
Ni 1.7595673529035247 5.992809776523811 6.30480222336808 0.015610709954063438 -2.5423209469468797 3.5975644192557463
Ni 3.0689194244076896 0.08946984083681629 4.1993002781135225 -0.4354160632534501 -0.5400440210781862 -0.47850415269217594
Ni 2.5879656967577374 3.5584713837034765 7.040451896949875 0.01666537647082291 1.6467596931244155 -0.5206118804955033
Ni 7.433287199459665 8.00448989573311 12.163258833343967 0.6825409860345535 0.968297762255242 -0.6622644951737046
Ni 8.629192700025088 5.515232269282795 10.31600250311603 0.8902326425206991 1.8939306386521058 -0.5999792639812376
Ni 3.178674413690506 8.641621643288754 12.151597887470023 0.19950732090314027 -0.9414862984893528 0.7308522715454316
Ni 1.4600019942567635 7.317438317845334 11.021230019227302 -1.2869219786279127 0.02720664232177895 0.8532887183064982
Ni 5.202839128148235 8.206933265638185 11.06727739895303 -0.38059885830325424 -0.16339154901718958 -0.8857419537391972
Ni 3.330706360731378 1.1596760584849126 10.531226351321859 -0.7098905816921 0.5664513074271212 1.2353507914188402
P 8.822370014467175 6.095153776502396 12.329136994193796 0.2731627416057618 -0.1565814680738916 0.4015466641995149
Ni 6.344131480999873 6.094560155331594 6.463932581065434 0.30542005897757074 1.3287875085134473 -0.30440575878044346
P 6.216540030600615 2.4446618359938137 11.19191280142831 0.48085671208475256 -0.44824201137352476 1.1265391345300597
Ni 1.2350195705227998 5.917225105885286 1.9307862492244134 0.7779168291334022 0.617035448132576 -1.2005043731636162
P 7.286050598439177 4.324632257931416 0.8391002205240778 -0.2527859777216227 -0.22948278421930798 -0.1767394310790053
P 3.2231310741851003 6.014885063813011 7.946351194784608 0.45584322075955036 -0.004898979963514144 -0.8582596891585283
P 7.094941682764103 5.419863318061135 8.721654762575978 -2.4249904539538107 -0.1753888305883818 1.2687581632346925
Ni 8.869711302838637 7.589641450650439 4.66714889088494 -1.5275702925457368 -1.6388774621628615 1.913269191079718
Ni 2.479574181101607 3.824515696861511 0.022363750076886558 0.647593266314775 -0.2286579743251675 1.673753190994124
Ni 6.800691088662179 0.592606449613176 10.382725522714178 2.3076720451456 0.4044525249924002 1.1101905179687075
Ni 3.056323525189734 2.065681095090695 2.3894986611639566 -0.7334030629917434 -0.20718463494273995 0.21763925461716066
Ni 1.8863704001853114 7.125819258976602 4.688204819319904 0.18920876719060964 2.0557756691177818 -3.9269916397811913
Ni 3.435508323370315 7.1752103954534885 2.879854791639565 -0.3066554740465686 0.461944705671598 0.036062550050512086
Ni 7.968779872177052 0.5881097692443507 2.8897515695965295 2.1093500027998124 0.7567584498882322 -0.43912976465961145
Ni 6.233393306652915 6.194770829227609 11.359352000450734 0.010943129275065024 -0.7341669377409614 -0.04657193422226818
Ni 5.084114893987832 9.200080035051544 5.447719919034098 -0.09459062819339194 0.7405116490120666 1.440859324210738
Ni 7.841206972439381 1.028495055068461 13.085869494669856 -0.026011850682729393 0.13362203106424084 0.4748177049795242
Ni 3.117271723835672 7.9576216492321326 9.429109285610837 0.3149624512503672 -0.5081471723695894 0.12677364068383973
Ni 1.4636193732663383 4.84846583984102 11.789637378573495 -0.6888479020891878 0.3282830796186733 -1.423391763553594
Ni 2.702451104745382 8.462932395546554 6.52914928694267 -1.1857598678645902 -1.5647386740659182 0.6484522718809607
Ni 8.64835553344504 5.8430873868505895 7.494711222575323 1.7015532439255279 1.2946612562536992 -0.45759954132902486
Ni 0.6850369760393673 8.38501961687879 8.41244862510216 1.2996497106072264 -0.9030768454732189 0.34968777054669453
Ni 6.538477487121976 2.3364187256303834 4.387170248275408 2.472683646264716 -0.18895834174270038 0.28279383693762267
Ni 5.297892718122908 4.517039719917618 7.741023197002668 -1.0940031095755676 -0.30092808464448817 -1.369724098826809
Ni 2.9363656720337583 1.3858178985680991 0.07827080643640451 1.030179073141071 -0.6141956646909357 -0.49768483938568486
Ni 2.6659155767486773 6.187359839923378 13.33009080953628 -0.016096648451546472 1.8011660079238594 -0.26024243399966795
Ni 4.958619668347969 4.957256194721283 13.251719829527303 0.4744312681743829 0.07896140629656724 -0.13368425176074397
Ni 5.000330830927604 0.3541312021734981 9.223903722195374 -1.0752929347605737 0.15093506842139168 -1.9442368431058257
Ni 4.454978481576427 4.792006901299271 5.155781664899064 0.7662262801693512 0.287165226532441 1.1482058208702162
Ni 6.736450147584449 7.809847079025606 2.624338906465552 -0.6349699211238097 -1.0924378219709767 1.901425404367254
Ni 3.186280184941406 4.506002076273019 10.07093991574661 -0.6554667555255809 0.30568231150002195 0.485858279064402
Ni 5.234282499539154 0.8692951323901542 3.44797065782484 -0.9857496391831024 -0.8674143590746027 -1.0269729074989475
P 1.9210786880156416 2.441823584770916 12.052632890499615 -0.8586013887686632 -0.3786175662071673 -1.486507718177472
Ni 4.390004789365988 9.063547165767082 1.4716666502630231 -0.15378333650346418 1.3409989629779744 0.09040384380555398
P 9.164731749396443 8.89837207499142 10.397074459452158 -0.8920470700216185 -0.2590484136915667 0.6887383730945171
Ni 0.2410751226611748 5.379552730431359 3.878908091702405 -0.3869273716244433 -0.30568822503729287 0.652552152981947
P 2.4814570732527446 0.5092240083763184 8.580103939332078 0.6264731965067082 0.4800635267594958 -0.473753525381068
P 8.425729043732698 8.055494939768115 7.018216146437943 -1.4982224355112392 0.7127555619447209 -1.480299275373915
P 6.819343778888474 8.987665684543154 1.0735193658076352 -0.18305945975976215 2.419828450136897 -3.985762687172813
Ni 6.416080221967236 1.801185762175222 1.717191149105975 2.0745485788499107 -0.08873596918482782 -0.2190433340535389
