# total energy = -340864.76345131046 ev
CRYSTAL
PRIMVEC
9.32806611070585 0.00000000000000 0.00000000000000

0.00000000000000 9.32806611070585 0.00000000000000

0.00000000000000 0.00000000000000 13.65256764839270

PRIMCOORD
 96 1
Ni 1.3821581877181737 5.888350958043928 0.953080213380423 0.5979671186472153 0.602075484388634 -1.052063017698356
Ni 4.347279838827449 7.464178450984443 5.852186979168266 0.03305821600654952 0.8965400727959657 -2.1611063094364975
Ni 6.61903701992026 5.769987129223665 9.39803110712654 0.7998694221450935 -1.9667149696036836 0.9411219731713986
Ni 3.001491780242399 4.070926557037782 10.949905059517954 -0.6641331729513271 -0.2000076575783265 1.7083774659362125
Ni 2.2853854854435403 7.70015053528314 13.552603364330936 -0.36943178594284115 -1.0937575692236647 1.6404106109779362
Ni 6.459032704705984 7.871283233173954 8.813415095550646 0.36605875570555024 2.116149285109833 -0.31113305020194804
Ni 4.623959602925313 8.41649935979666 1.4213957643238597 -1.251348452398677 1.2551102334339546 0.8502776993943163
Ni 5.307426994970441 4.408238749800766 3.0239071227165963 -0.03670326895830453 -1.5621742557728515 1.490699901881949
Ni 9.303197324661319 6.6155483232555286 5.816075237461916 -0.6142023495591551 1.316140766283714 -1.2560080626578756
Ni 1.5802396681341457 3.400257271473969 13.005217529568617 -1.7569173225181292 1.8780216807313335 0.06585855036602206
Ni 8.697852484934712 1.8940824469707545 3.0549527918063273 -0.2947350684598989 -0.9132496722411626 -1.3419127330414953
Ni 2.9752892429931186 1.8568914480341645 12.0706581911289 0.5032769887614815 -1.8672245901158295 -1.2112433568476753
Ni 2.5324299840230835 0.2369608592892366 3.0469250582510656 0.6054289742418992 0.29996546362090276 0.1256140731580998
Ni 0.1520540046063874 2.363619974553442 5.1362737753345415 0.16271149223102946 0.4348349939389995 1.1686550898635033
Ni 0.6218452555828736 5.145855564676819 7.595114647090066 -0.5776605458793792 0.01174762745423138 0.8916035547262967
Ni 5.7019668723273496 4.196239794989662 7.368973411494472 1.3141846709986076 0.610950675391077 -0.8278016297789872
Ni 7.510212456440191 0.7669433214114796 5.299380605283282 1.4099713763826298 0.5167418560171358 0.33931696883533174
Ni 8.562352998967091 7.355721028201466 2.1091027623425713 -0.7000442850256395 0.0634720524117165 2.5224578894743654
Ni 5.702936991185991 2.007978132201695 12.697556460036065 -1.736360324302384 0.3464898324346871 0.8917632202326126
Ni 2.249229901827232 3.676554584867946 4.060560277349236 0.13005873919301472 -0.06992809244970537 -0.2668023466053727
Ni 3.2856246690330986 5.878724393985096 3.629876010055157 2.0511893352986803 -1.533590787708204 0.3366800454331169
Ni 1.2108109443105453 1.7911472392292778 1.0957315275107427 -0.3563343293289347 -0.5231179347468088 0.15571012121253183
Ni 2.84622612252995 8.823566829722376 11.717603021464665 1.9984835202645324 0.1941853944695946 -1.9244414056464536
Ni 7.612942446730801 3.032796769565498 10.252954880950895 0.14802072298807412 1.8398266577188507 -1.013263528332655
P 3.051826024100397 -0.1589744967335647 6.174523894857559 0.9612022888610413 -1.1187540912680023 0.45010606116545704
P 5.052742810379092 2.702387345604389 10.388743536962917 -0.41275410287956016 -0.06617351050327959 0.4546833961234944
P 3.40804620654095 4.508478146483132 7.278211329815761 0.13633763022319098 1.0573430351503725 0.3217884730332652
P 9.10350208883626 0.11961565527054831 7.14277714030978 0.061966414400467476 0.7842980500693977 0.6794834301551523
P 7.924425224882444 4.244867002779088 8.405462392166417 0.1756395131466072 0.2717586621693836 -0.4108717982551827
P -0.15981775389530725 3.4208443130222643 1.022284201845601 0.639207613354241 -0.3798131291771652 -1.5654079322188008
P 1.1848975771056678 2.22524744427369 10.702930521433023 0.16083355848202624 0.3580515691303575 0.12374410982889657
P 4.000807485303058 2.468122297374263 3.136841084348249 -1.3977198127087864 -0.8372182951071968 -0.29185080493356835
Ni 4.356178813742299 6.971479335651678 12.971331464397572 1.1823876089582475 -0.8833017197288207 -1.2014857632402791
Ni 6.944810395104975 6.6488028783618605 12.15785695161529 -1.1470097436795859 -0.31002490473943384 -0.69283516887171
Ni 8.350540605474956 5.571812368148208 0.7991895125887799 -0.5414331881162289 -1.8814528179000696 -2.3395768642739965
Ni 4.487042250933524 4.338539441033724 9.17892136764291 -0.7170181938758168 0.8729918531623805 1.4221828308471571
Ni 0.4840156187413234 4.788907793092285 10.136444538834596 -1.638119243840598 -0.013838962765621327 1.2633832720760243
Ni 7.545248672142682 6.010455341309531 7.099908147630351 -0.9241848310964278 -0.6378894087634498 1.0018678849012037
Ni 7.597411216926582 3.9113420047911864 2.2873788931367307 -2.066118702915003 -1.0441784727439565 0.9003633031967977
Ni 7.1896534701206765 9.16880787854157 12.724534159565664 -0.049853176076701235 1.1875776377996192 0.282000651612366
Ni 7.465857502855169 5.005412203756505 4.589283450568434 0.05145343068428559 0.3313182669005713 -0.18734985960499992
Ni 2.8827641568501456 1.5756129474236997 5.231609407747791 0.24486440888170088 1.6790972289148565 -1.5033792971218303
Ni 8.857642254632173 7.475344145924773 13.408091101043896 1.592746986353386 1.5207049328844713 -1.4672565832573439
Ni 4.095067591712448 2.3693753912436537 7.414027037219035 -0.2814931158483281 -0.5064314752300633 0.4419826607273743
Ni 9.063167531675033 6.942207864705349 9.288141826220473 -0.4887129749043777 0.7820398501628403 -0.2861524689972104
Ni 5.389821801493364 7.080543082721307 3.4744825578392136 0.1423946350505483 0.18338933229535512 -0.10376406716254387
Ni 8.043264785066079 0.6186317368636224 9.121171311355871 2.5021649435532844 -1.3802810484070487 0.838792324462536
Ni 9.201157611250897 2.5961966428468926 7.82513262689385 -1.3445422002445424 -0.2526522803572358 -0.311766827131205
Ni 7.4376401033610176 3.46830551256813 12.949678224911366 3.1156692386041502 0.648323202502264 -0.7229433011110001
Ni 8.61649309373207 1.7537510228418218 11.912083868424524 1.6779772563778004 -1.1283409636254889 -0.006868187874743011
Ni 5.8689392528051405 4.413425154468121 0.37346311234631824 -2.316252073505127 0.816030091065356 1.1962561394102236
Ni 6.441439972327151 1.209896793847594 10.76091284656218 0.002368500232176566 -2.272639993242131 -1.1325647718988494
Ni 1.6498083839779094 8.025578772027762 7.342213988708067 -0.47073170783560864 -1.2226302585283784 1.1194056088090723
Ni 2.9168489098258914 4.311879828552968 1.7597890799302727 0.2293550003921921 -1.9916616122466921 -0.5069544376130689
Ni 4.678836614900221 3.473137450729443 5.328720171111035 -0.6635572458431991 -1.0124271484742886 -0.8751227834624542
Ni 1.060265287968027 9.253273515705056 10.172118794247963 -0.9843800125290852 1.1658790697802632 -0.31938552001872733
P 8.678254218376956 5.449390830640357 12.041168443439375 0.337273970263374 -0.545256675627377 0.014511820462929847
P 6.61437298694602 5.923107331767964 2.0219450453463534 0.13938181636615352 -0.4459655566345223 0.781525372420267
P 0.4058426948666819 4.590649079423292 4.859536177227796 -0.20594973409437434 -0.13454145755471666 0.3417983404962887
P 1.2724228199002554 0.06411739410347189 13.024699195302016 -1.9820423439893735 2.1917086077033865 0.37304907098045426
P 8.03184723234514 8.231980887269776 11.007696159295167 0.7078067025798778 0.26129761473705965 -2.0028227710698343
P 5.290309993954979 5.476908625188373 5.246763783687691 0.9344571595567132 1.4789949547401948 -0.22784987660157535
P 3.712374358110109 3.3372368579260385 13.326871630830482 1.971016425192515 1.5365465279024182 1.3890266558101627
P 7.7457274655074135 0.8372778714696134 1.2520699128072668 -0.15657915408104647 -1.0344113660548637 0.016596985126732706
Ni 5.8751704008587256 2.1227226714339467 1.4664493900484232 0.4702871640990223 -0.1516449500042227 1.3441686189552076
Ni 4.839111444027004 6.454247406874414 7.691283275792515 -0.4799614539639928 -1.0494602899681862 1.9553077562080068
Ni 1.9101453765340368 3.2529484540155735 6.552030723792544 -0.7414827546760844 0.849775562946917 -1.0276509074025786
Ni 0.41044329699247223 4.7663991699586035 2.57550232854019 0.8642123071975374 -0.19160452111629583 2.6556837135414524
Ni 3.3524695896199064 1.380395183253911 9.57146037485387 -0.29651298629592804 0.3246650232501118 1.2539519514597952
Ni 1.7386675402031295 1.1680417619367645 7.682791004553019 0.4876125427513473 -1.0143223086144726 -0.1695529406328951
Ni 3.5727518669932605 1.4370165435611844 0.8640969938780881 0.42870239867870036 0.008561002196133642 0.26774131347987434
Ni 1.5440467722540436 7.014276502223305 3.8921830901396035 -3.167792184551635 2.1805870438689285 -0.9182625520747217
Ni 1.811053331963334 3.376340110382067 8.920969561549809 1.0509407311684547 -0.7469242374066298 -0.12883926496361683
Ni 6.352963266805817 1.3490808658648639 8.02693134159029 -1.3557354978572005 0.742062024218322 -1.4170133708310757
Ni 1.0898912254203994 7.10758514590595 11.332272743618692 -1.0476962560892278 -0.10914178653468946 -0.24542902313591922
Ni 2.4252598343409977 5.954720147267363 9.473926117296564 0.9861990680156951 1.1152656184987697 -0.5113623368727773
Ni 6.584635112702267 7.587038407591872 0.6927021773341224 0.10254613559504276 -0.05039079374772612 0.4458668262731289
Ni 1.0165912831972437 9.110880589001507 5.247718977640816 -0.04657887620080366 1.116062403368452 0.020383191642042317
Ni 6.963168028891584 7.404628077969346 5.1643568506790345 0.11496070720931169 0.5488762746578354 0.7304576072101742
Ni 6.833722457724527 9.116645333757669 3.270130751492674 0.6987114251468289 0.17442338135131896 -2.127524102605678
Ni 7.229307078467665 3.1354428072625713 6.108513836173142 0.8034638243645711 -0.7845199362722166 -0.6492763104441528
Ni 4.480531260901485 5.9665388068240865 1.5832610286948583 -0.9650728275600411 1.701664315582095 -1.7971951962015693
Ni 4.378762061403569 9.209935321308416 8.061813644204632 0.01842323970219408 -0.9408496933466183 -0.7787861191122329
Ni 2.0800934100493933 5.816366273119508 5.779377693214 2.0328046621439055 -1.2965744141160123 1.0119615216917799
Ni 4.693649583626407 0.13594816593974188 4.188662607019712 -0.08319858430636638 0.46526065741870837 0.7522556769218722
Ni 5.259574016654739 8.335093328264275 10.999204820862266 0.606348143622059 1.961110993153345 0.373574347356305
Ni 0.7833485909950713 8.871811586807915 1.67818715901297 0.2854934952569728 0.13144893467232202 -1.0081236360029282
Ni 5.365382268708347 4.71952563856749 11.726503861992704 -0.338753640132694 -0.4338808575558463 -0.8133355749523282
P 6.203984725542645 2.211787045110033 3.949196229216713 1.2813928212795673 0.08834207618051883 0.06923697991995172
P 4.786874274715516 6.503564891544027 10.333832943950595 -0.8165044595986133 -2.535443503100756 -0.5941102067949704
P 2.789763339343801 8.276736947690583 9.332649760087051 -0.07676131332145489 -0.14639064358381887 0.24609648151658908
P 2.6868094754704273 7.522105740524503 2.0714220399436862 0.06782261607092836 -0.13741440822713755 0.5249012518994767
P 2.4061652833444587 5.830628885954734 12.278586377960087 0.8935961596762932 -0.8849120016387341 0.7881233373527589
P 5.971501337908678 9.092420346489465 6.320715210015328 -1.0449783429374326 -0.6030273067789421 1.2459406511195446
P 8.774417250239836 8.31487008128797 4.150844762051384 -0.9055361056469888 -0.9927949760656579 -0.6837103237523064
P 4.947130447710402 -0.09782809163468366 13.032877110719049 -0.7674143869401816 -0.018760568436954787 0.16540986499879898
