# total energy = -340888.9239799887 ev
CRYSTAL
PRIMVEC
9.05795237981759 0.00000000000000 0.00000000000000
0.00000000000000 9.05795237981759 0.00000000000000
0.00000000000000 0.00000000000000 13.25722889972028
PRIMCOORD
 96 1
Ni 6.294968812149217 1.654661419061304 11.394839562518381 1.7542341192590107 1.3054213229836809 0.1805528912878245
Ni 4.658278370262774 0.11680954004615172 5.9930890042395 -0.4013857131416184 0.8896829406648161 0.2166288110747753
Ni 2.5893062173415324 1.5324787017671044 4.535549458450609 1.155931214538932 0.3470243647819185 1.5718256628196865
Ni 3.648842060625276 4.228786508507138 4.604885365194763 -0.8886678691367405 0.8612059162710458 -0.19193310810030817
Ni 5.428675321208454 4.429882105411914 2.638148507221715 -0.9545109928837948 1.2205034419933627 0.6259636038601414
Ni 7.28195951622255 6.438111630845951 2.7950874929219918 0.43160337437557933 -1.1881954738892764 0.5876603374045686
Ni 4.921801373764898 4.454574083122937 11.47984482078209 2.171921140663814 1.0460574349342242 -0.8052731096591681
Ni 5.437162622424605 8.001351138301475 12.497880750243079 0.2067236361459214 0.04123123873564512 -0.09445435972584378
Ni 1.5885021361554672 6.583075097935904 0.5314237153049589 1.2578296892476466 0.2875418931455693 0.3115238578824635
Ni 2.633590545672123 1.5693807990505628 0.4169013081905875 0.7548722886091129 0.10449503179129746 -0.2901027118942101
Ni 0.6125222787826191 8.9802893228645 4.477018782891881 -0.2702540525993991 1.5800665626722399 0.6112800337060376
Ni 8.606395171743587 2.2402308552625145 1.142472265263813 0.12509728142268134 -0.45383004698426355 0.6933601881372446
Ni 6.868427766252248 0.7777311748461255 4.9844525117817104 -0.09312252828829769 -0.7284621740467003 -0.4923379732514747
Ni 0.6467223889233048 7.332810859901817 2.757145542725391 -0.7917575916712364 0.8089801261971099 -1.8863669673722352
Ni 7.532411894692756 3.8513959878350685 3.8950399189447613 0.5958158766321675 -0.06494118075807526 0.18455789868215958
Ni 8.027256881607977 3.6338602076780893 12.653401260628042 -0.444691317907789 0.5015551209743685 -1.7197823653390447
Ni 8.049485096319222 8.583958624131629 7.237744028328717 -0.6655609065367892 -1.1823667830226412 -0.6308908659584296
Ni 6.540167578340483 0.7963054116378436 0.4370960126317929 1.183586257252039 -0.3755607816587145 -0.20164185074763982
Ni 1.9238456426915975 6.107759055974814 9.293198093379111 0.3456341693026112 1.5230245821565835 -1.4088429192051415
Ni 9.089655037788525 5.11279735396102 1.4238657026713213 -0.8118579619655373 -1.942260178995429 0.3566305204131148
Ni 6.484778200606476 1.6153499064912968 7.238420657358436 -0.8125398185239103 1.0071941822101236 -1.227902562670911
Ni 3.5854363951897805 4.592879955342163 0.4597010381547675 -0.394048813160573 -0.36865685545002963 1.1370999407650417
Ni 5.966092683487507 5.618131449529714 4.772642263213556 0.5676743812009449 0.45376448385365076 0.49400121988651047
Ni 5.3916282966897136 2.785845664287158 9.383983230944875 0.385021155740666 -0.5388183762012011 -0.11887598310331784
P 0.3478163067225128 5.5641279384830815 12.520007515889628 -0.681630301294826 -0.5859780646061391 -1.668868866318629
P 4.2835599454912 6.1884472942175845 12.590972948235475 -0.4878028043852825 0.7707673625728145 -0.2719131854693769
P 2.328545889261955 8.557038390178157 1.3525153073567582 -0.33781904413356656 0.6299572984005667 1.3545443057625768
P 6.483808999720533 7.821867815357998 5.866801223005964 -1.2277878914699178 -0.977696944081955 -0.04755640962272455
P 4.6167748332591385 1.2575789102954114 12.725017053942214 -0.5864087243856545 -1.8405080000565914 -0.22853713247658705
P 3.9443939831245305 6.403954093080629 8.218434020848202 0.7709506822282143 -2.438922233543554 -0.8673300268909128
P 4.920533260456188 1.2562111595124457 4.000408359560688 -1.0917217697405586 -0.43496869130338633 -0.7839254972213273
P 0.09950251076792298 5.457479609220578 3.6495032911362464 0.13866627835636763 -0.14479424563097643 1.1409154578563898
Ni 1.31947189771266 1.1561932512640543 2.369172616492138 -0.6183922192707866 0.5376222990105709 0.581112766094038
Ni 1.8278585231744624 6.626498920807013 4.5351916693385075 0.7799467150792374 -0.6355113954495765 2.5815642087182185
Ni 5.971898830850957 5.775902861037637 9.081174982934137 0.5763451695020655 -1.1791426196583885 0.7816490424823248
Ni 8.70192939365047 2.207893965890412 9.990064399914468 1.0378445601061288 0.8082640739666919 0.6873330081065582
Ni 2.458726778353232 5.266492686976661 6.793096400943557 -0.25087076297678085 0.20335754788716592 0.2541630605748074
Ni 0.5659471943393657 8.792780654267329 9.108074383597536 0.8566046700536086 0.9305413694420748 0.20480867851139567
Ni 1.7495162945528053 1.1565283954956418 11.376836882510803 -1.4519235524446996 0.19910571458934742 0.40750982376148526
Ni 3.8884430123538087 6.9957735163033385 1.6064713017398866 0.8646162275041754 0.0699823427264085 -0.35546838178421364
Ni 5.5666188753394765 7.9882171076041235 8.210334399986428 -0.039910977262324815 0.9970205841112313 -0.9629771213732768
Ni 5.233168480814205 2.8971497809830677 5.337306851520684 1.1920672981398568 -0.9087666967691446 0.3488976705452314
Ni 1.059137293386721 7.262475861029443 7.161978787109402 -0.9264582005116367 -0.004058743450405914 -0.35196551083727773
Ni 4.861638455218818 4.776865080531561 6.972533528330788 1.5414089982010422 0.4643504868996132 -0.030517451862566797
Ni 8.184675032979904 6.980320649841487 9.423131700375189 0.932553257665781 -0.9604659249156491 -1.216893098934285
Ni 4.549709755132795 0.48832507291801164 10.409854289063253 -0.6917789596930538 -1.0706289536260012 -0.3427820445657967
Ni 8.438795882093164 7.261271153386168 5.149545466056992 -0.5677679693560157 -1.3903281482304055 -0.5280243709094906
Ni 7.348653218308486 6.0277411061952195 7.020789768703303 -0.3841025005811385 0.16666276356929363 0.43645993113693216
Ni 2.157341534633912 5.3409128222935225 2.561097942584501 0.8476454039777919 -1.0264710281618645 0.28625531312366187
Ni 2.5161270214767653 5.431591981818486 11.36223999253233 -0.7973615681215751 -0.5207802877525677 1.5609303560634213
Ni 1.0137841266959313 3.1827107822001293 3.7935292601729746 -0.5470219950579159 1.0338117847976518 -0.8122585398380656
Ni 3.8319032746897568 2.7142153782494582 2.6913105345084953 -1.111693327766479 0.2647470067382408 -0.5150546981227001
Ni 1.2284032462428782 3.4285345470935447 8.035457951534449 -1.2448525602616884 -0.06244361114720214 0.08852231051212496
Ni 3.5011793237782123 2.968390575075949 7.313164161569018 0.5281500978540775 -1.7199242902335476 -0.23508110424269194
Ni 4.130444321416684 6.850637948121489 5.695225492337513 -0.5227708358200351 0.40388045453901406 0.4144384325605185
Ni 0.6726897263048017 7.4139610537070455 11.260530964607252 1.207997853327184 -1.078827944497026 0.15175627877110637
P 0.2543581674610335 5.399200744733153 8.047018615933782 -0.643668220228756 0.6416977267659464 -0.21523733004388734
P 8.650117907037465 1.4262289224016242 7.759787328330105 0.1458314286462392 1.6454350607757209 1.4794567248679618
P 2.007251266595889 3.4430544444782734 10.113714505465888 -0.9747224348346633 0.26610352076613525 0.6495015390810814
P 4.071631037749159 6.017206707780722 3.607994319361289 -0.07229530713030129 1.3570333907330179 -0.3985040207184492
P 7.037068720406256 3.879982884994272 10.552502543569588 -0.6457161038967202 0.3366314515833686 -0.15411937968664424
P 6.5006115010609395 7.845663055800719 10.182386464313412 -2.5692931046603493 -0.2938053575567779 0.9193102766129457
P 2.3730385504932623 8.50736458028555 5.889218748918292 0.22578245254958534 -0.02464993733819626 -1.2603545125520292
P 7.164767730593344 3.9965134401125075 1.4475431897353763 0.1101673995857264 -0.5596602526472169 -0.010344833569433796
Ni 5.364409150313476 3.0842417837788045 0.13727598305350913 0.9332500266224895 0.5182996874225589 0.9113545121009788
Ni 1.5504043891809396 1.2080319117336744 7.00501353334773 0.4077602492093946 -0.5088480550913559 -1.314125535625898
Ni 7.115564934215399 0.7281506618612296 9.223863092430175 -0.562923753889837 -1.2137946625146192 1.4070562596183638
Ni 2.4619332934338267 1.5306037056606547 9.128609667041651 0.960313972718817 -0.4310356747975673 0.3473802054594404
Ni 6.293727872697123 2.2587815413784997 2.4056698233120297 0.9394921508774594 -1.4551988807618614 0.6995038391411372
Ni 4.206848148266456 6.757993212968025 10.392567187279873 0.2757937514707057 1.9776424151494651 0.48583745312879556
Ni 8.00573518716873 7.062286059345173 0.44019473808114756 0.2703245008260183 1.0830226993046639 0.33968643635960855
Ni 7.523689086719274 3.7202006080968237 8.28867119383676 0.6265721839784177 0.1230583966157816 -0.07571230323165025
Ni 2.6827208784324275 8.241568030779952 12.61259609173942 2.766220066430823 -0.3269471344160692 -2.2441328869413737
Ni 0.10434126883587179 4.831620401611213 10.218062114868305 -0.0767343167382614 -1.1225678085871376 0.7148623238750785
Ni 8.637563585281237 2.3236727109756266 5.719433775400784 0.025134847394414777 0.2789302402171583 0.4075846428634787
Ni 3.530844117249819 2.700311421614675 11.416740785155023 0.6123604112544099 -0.38442800224135726 0.1813843860501844
Ni 1.6458842633745905 3.636052232111716 12.70709317811882 -1.729324500501525 -0.36669021864196205 -0.4266380599505039
Ni 3.0376386196837153 8.239683976721297 8.057147218089492 0.004879696689804499 1.9017213383411187 0.27507692790933913
Ni 5.243811574655164 8.117854519563096 3.576375725599048 0.22676358551593204 -0.6813513366018265 1.333226261011091
Ni 2.669296993264512 8.540163425220111 3.4515326877422194 2.062881426924628 -0.7546295764706874 -0.16946732289762428
Ni 3.76644145410371 4.395335075701774 9.234839518912281 -0.6491356711012305 0.8737459577195856 0.17664250048982483
Ni 7.391080666437037 5.986409670283481 11.708399599796536 -0.6916630029404798 -0.5502268751484589 -1.2657826255461362
Ni 0.5434753207138056 8.905633680790306 0.11451425495738679 -0.9879862418231049 0.7696165367978229 0.6270545229314749
Ni 4.564990520502749 0.6240675446632024 1.8020551347278773 -0.6796536371844295 -1.2113423443193847 -0.3057468461893702
Ni 6.059987416045271 5.6208760090478505 0.6273483349518789 -0.5943549758159248 1.144392617771713 -0.9999698965475423
Ni 7.848860512929108 8.597038307115751 11.612695994183419 -0.8377641403083379 0.9743866487617993 0.28401511093923343
Ni 0.10332043762236032 4.765406770992145 5.8751263868776435 0.37134880045989593 -0.1229954045883301 -0.43360035020095
Ni 7.941206335659806 8.881068514410154 2.2174573518285254 0.9827622744200042 1.085644196087911 0.8065414348486304
P 8.338035221763956 1.5651779092274098 3.5821429237680174 0.8557009272924166 0.743161685040404 -0.8686538879086588
P 1.9266807817317846 3.4043679306104155 1.5810574052381197 -0.2560327667936945 -1.1490784532831566 0.5567309948155638
P 4.52794349598401 1.0502423843213413 8.212601605423357 0.12884363583899103 0.3786422487975156 -0.4158754221173611
P 8.724510868497712 1.4714915095703627 12.159158627534458 -0.4144422892152604 0.5868527539016086 0.6940754690367144
P 6.202523351944265 7.830490985857226 1.6574186597125276 -1.2612759959250344 0.5873183806841176 -2.1240142896802063
P 2.0544069657754878 3.416777325131363 5.724855865590739 -1.3252363008270789 -1.1826313495379375 0.864899305962233
P 6.922639610199597 4.0118485531956924 6.185783350474074 -0.03525265255470703 -0.1722446285324453 -0.5779541658603982
P 2.4365529113552187 8.444783188500715 10.346139747457563 -0.03897663837351352 -0.39572028732572495 -0.8653356221687032
