# total energy = -340890.1485159365 ev
CRYSTAL
PRIMVEC
9.13724230487809 0.00000000000000 0.00000000000000

0.00000000000000 9.13724230487809 0.00000000000000

0.00000000000000 0.00000000000000 13.37327771979500

PRIMCOORD
 96 1
Ni 6.629690404371403 2.086690230312122 11.428281166586777 -0.3621969587572988 -0.5302113512584804 -0.3657062574621379
Ni 4.769466717060551 0.3926574416928167 6.078970554471362 -0.16551913688315367 1.147336273781069 0.28463114725667754
Ni 2.9455452922207104 1.7639354311015576 4.826803824342667 -0.010737441022162153 -0.8508001475566895 0.1520159601903963
Ni 3.625547979196602 4.46318636517826 4.987363440788837 1.6847860517695177 0.542825183367749 -1.6287812542691238
Ni 3.4977453753249557 3.0465300908186537 2.7816688569280825 0.7428667795078046 0.04577463513195342 -0.32570452025821967
Ni 5.189003183548478 4.943284471650551 2.609687687980336 -0.5152609005962351 -0.6852876955417553 -0.29130033174673703
Ni 4.96927992514414 4.731647672417329 11.36523967912327 1.2062631300242646 -0.6798022469471519 -0.988884071047026
Ni 5.759340692025228 8.121098455543331 12.28835696402673 0.5021410753848256 -0.6513303647597041 0.2707854996228369
Ni 2.174252420410213 6.713213933504935 0.2561315128825657 0.06915701861163574 -0.5931599270665592 -0.7100893279664674
Ni 2.861866429973156 1.5279113329669685 0.18619871750170963 0.7007924760455738 -0.23946560646363274 -0.4609414612180642
Ni 7.878084367277777 9.18968977034888 6.965618365375187 0.8147699934060095 -0.4833987617803158 -0.23682096975193406
Ni 8.889851174077478 2.579717534216198 1.2345674883100646 -0.2532217797074607 -0.177390691509759 1.042985737987436
Ni 6.878844719261805 0.7827281301750763 4.674923674073496 -0.6008107587435976 -0.6533149992899007 -0.02727914743092721
Ni 1.1542529585673749 7.419175525006413 2.3580964706481975 -0.7016363121031078 1.9888660517794265 -0.6548111242194529
Ni 7.8125246559187245 3.9475717990470662 3.9593725470916956 -0.013838962765621327 0.20395507226184875 -0.9267276521229394
Ni 7.253690935121563 3.975613994748938 12.591929951104047 1.6142329241413038 0.1548472589916043 0.8173809486662956
Ni 8.40817232473897 7.421222267214695 8.760606713418031 0.2674572065805523 -0.031184910243236618 0.7558215398962597
Ni 7.1087285907715465 0.9089390264901029 0.22286281475597206 -0.7969699891101113 -0.38189932228223267 0.3091579287534482
Ni 2.0500864388550686 6.642966816999237 8.927210615448036 -0.9544531430626658 0.10731964572428614 -0.10521031269076718
Ni 0.06666623136540503 5.147547516588755 1.2100413033302782 0.043388137177647855 -1.266118154508684 0.6583067960775373
Ni 6.615683012383469 2.1805114311810767 7.051943372906306 -0.34113062500530283 -1.083136856285025 0.36348431011015464
Ni 3.7524368588681227 4.41661384269783 0.12753488268100954 -1.5735737558590448 -0.009261884917900177 0.9616928553442147
Ni 6.057324428170373 5.703594378575532 4.7125956091204975 0.5145672169633203 0.6002052639491148 0.7534918633218184
Ni 5.493949498098584 3.1269104087037523 9.393403667042806 -0.43433517148444556 -0.17658413644806362 -0.4435453772288038
P 0.40041770132448823 5.770195735522727 12.580883939248722 0.3527689805751796 0.394910646940236 -2.44912617065975
P 4.1952276062492615 6.253729444987492 12.497902248565863 -0.31191183734950156 2.500171310162023 0.7661627739212676
P 2.6789205706238954 8.66672886164867 1.1854849654518873 -0.35964488175940645 0.16142568354007036 0.29081979256589263
P 6.344645002900045 7.935712952579734 5.913221898292676 1.0380314793059542 -0.30727279591559337 -1.6627475839122396
P 4.908727422401779 1.0687923341295749 12.512131675534429 0.48613775797803377 0.7881544477010104 1.3211310204094537
P 4.230707516940161 6.282721913857495 7.973883781040005 -0.07318773703758363 1.1178279799093072 -0.9102461095281486
P 4.847334293395302 1.282247444521048 3.6589957672664206 -0.438366918351658 -0.8098710134424956 0.23122522083171146
P 0.37206209822197295 5.716295144957285 3.365665628472519 -0.7081167776211289 -1.3203002969780424 1.1995180979909472
Ni 0.6514762174479535 -0.06251152742743137 4.590310985693413 -0.43834712085731603 0.42447987595692055 -0.7025354268786095
Ni 1.8510316218575837 6.808889994500146 4.588505466673964 1.1505779206468185 -0.6194548562073461 0.2990010428251044
Ni 6.013502215532323 5.5918276344160995 9.09250423697506 0.48921845378588646 0.5060314115781672 0.764246016514529
Ni 8.844950766883278 2.489405034275728 10.257772140774955 -0.022300977490045466 0.6559143845859606 -0.0444191495453235
Ni 2.502882466227589 5.460205663387925 6.799522494000453 -0.9140726823630904 0.2518662941208308 0.5661618012111603
Ni 0.5457336569399529 0.2726644385596485 9.305166234760824 -0.3277315779905775 -0.2900518040516166 -0.4516970598016608
Ni 1.7883592789709302 1.3517635816666465 11.167970279212833 -1.3359608863334347 -0.6338586903375019 1.9134566245001754
Ni 4.305769959980525 6.991753618671396 1.5196055799878216 -0.03329064373232976 0.12887088953250064 -0.17516463039271768
Ni 6.0434723692964605 7.867978577624381 8.097519802559075 -1.5343526055748928 0.7620474662013134 0.07190887032516002
Ni 5.568619039732894 3.1408538399976775 4.607763117915822 -0.17099070152068616 -0.17874694842733732 0.9560030040482892
Ni 0.8379965658681074 7.602770128537762 6.583985006156892 -0.8900243831646348 0.04191669483844394 1.4951836486849153
Ni 5.482765513889039 4.599916054485139 6.885660188070546 -1.547069281810613 -0.284258080187975 0.3663220366692659
Ni 0.7938234831372083 7.37671476142655 10.968655050818311 0.029712182352452054 0.9039062833530497 0.5167174305371037
Ni 4.76070410198134 0.5508952849464657 10.429390561215252 0.004913635251533473 -0.7783513455676595 -1.5207447849834712
Ni 8.343233945836003 7.109240276323618 4.758533093281841 -0.8328911284867528 0.8883074004735283 -0.0829990667010506
Ni 7.338466266409268 6.173202931230374 6.912874549647104 0.33155455128109346 0.1600128623529438 -0.5537852819236786
Ni 2.4326718986898945 5.4745145843619 2.5361886270463874 0.926988876204126 -1.439310234556063 -0.12967898725609278
Ni 2.467576163134714 5.6717328157171325 11.252770281053941 -0.12637049170815012 -1.1011358639656068 0.46014133391427203
Ni 1.0477492658006695 3.1997250902118064 3.835803227439234 0.3004082075852762 0.6597371007661605 -0.438623000226522
Ni 1.717107065845092 1.1639201606047098 2.564553367390904 -0.7981241573192126 -0.05924952968993667 -0.9347713483630223
Ni 1.2320108879981115 3.5631132046019816 8.339897025057143 0.13535032660925722 0.3151102896821412 -0.8416089679757248
Ni 3.6951463515202123 2.8214432713595743 7.133265740441735 0.3788757049645604 -0.06175095595555172 -0.058918371602763045
Ni 4.133706555854767 7.2558199125078575 5.856412009874031 0.471866078550368 -0.4334471124525374 1.5167765443643426
Ni 1.0219822433571115 -0.17019026951549926 -0.4021373302691257 -0.30676731703408455 -0.10928679675298598 0.8516164728103978
P 0.3264919311890808 5.792691625329834 7.721168682941711 0.7473659529297386 -0.2799638236879953 1.308842689960404
P 8.964813107455829 1.795860954653966 7.920216190145594 -0.8195237060409112 0.43546028622782423 0.4942817272414068
P 1.9875877035664387 3.5630309694239704 10.524862861713833 -0.5531841580045699 0.2573735970923051 -0.746152906458244
P 4.0920498695710155 6.381367578503116 4.00445387167752 -0.6684778230732681 -0.6907800861148942 -3.3815984385759505
P 7.093999356665513 4.1663447842832735 10.441092627046269 0.644867896963812 -0.05738368012579149 0.02278305933278657
P 6.706379276487992 7.962220091625395 10.169481712489365 -0.3821214655953677 -0.030344673730128384 0.4200550074163476
P 2.4812637516526035 8.668081173464858 5.666645199370829 1.1527736427465567 0.5323523088608832 -0.5793397333540151
P 7.036626614139592 4.217166124294291 1.6784400851441528 0.45273244304471066 -0.3856163661225036 -0.3156885307831144
Ni 5.4550613961412155 2.9603750359887577 0.48611223915752055 -0.09092063554097245 -0.8923044374480632 -0.48896674278639657
Ni 1.7200675322535006 0.8388399333048239 7.055781014546835 -1.2948733722645054 2.5296317815149854 0.056856346867411756
Ni 7.021440517933494 0.9336342504469128 9.205696390886688 0.41911758320374265 -0.432518687100997 0.25467702409674847
Ni 2.8259479316661964 1.9333764467729535 9.24944002324353 1.089033167164802 -0.5108643141904362 -1.5813251176696894
Ni 6.430516803227902 2.1726442658179907 2.5135474550914614 1.506987583298379 -0.1240672974962702 -0.182663252762608
Ni 4.229336930639971 7.128556405914285 9.988995598686843 0.5975685976572159 0.5413259731144032 1.253967378078763
Ni 8.36870857653552 7.238413466495453 0.2091121792682734 -0.3920238123107442 1.0573312080758306 -0.011910635394656907
Ni 7.94930003143561 4.290328020998393 8.32453092518362 -0.08002532878470733 -1.1585840787807467 -0.19851821751699358
Ni 3.353678480691064 8.545797463761971 12.14118432083661 -0.7008924919585477 -0.5380845833589701 0.1783988210592992
Ni 0.14049423301139893 5.20784417655508 10.174977763553123 0.3472375092339891 -0.9526950227209786 0.19184491926187605
Ni 8.71843651413381 2.0705447236958934 5.579063821064537 0.607156241345651 0.700237117762736 1.1060677540495853
Ni 3.791663038779539 2.625220999382481 11.367098194146328 0.7608606449820638 0.9309563454923064 0.7363089237846286
Ni 0.8329847886304155 3.5385705725865924 12.51539458465308 0.8042858060452343 0.27116730844228787 0.014656316460594112
Ni 3.226753052051538 8.672997009661536 8.123168954580818 2.604682025682605 -0.5537415731699367 -1.836967591003501
Ni 5.785354420002821 7.8699522218966536 3.3350010443162845 -0.12192402590102228 0.5463694490755816 0.7397557446826485
Ni 3.3111263446911883 8.671571599909338 3.4696035836852697 0.5505276942183293 -0.28313450810649304 0.3190170809357151
Ni 3.5774312628179583 4.652985156028468 9.038436434880994 -0.6099451169446979 -1.7221796619266274 1.138094443467827
Ni 7.382708792179377 6.247141493504582 11.427211195548429 0.11670571492487641 0.01807074145878178 -0.27220166324407313
Ni 8.321405074694988 -0.2913985258348352 2.130737219103404 -0.15779374321443793 0.583180190146028 0.6613489253379706
Ni 4.8582807093128135 0.29653548328794455 1.4153478213050261 -0.2695189742055874 0.8191629802673827 -0.06590817265703487
Ni 6.120983593193163 5.696385094636536 13.672437143203439 -0.3649002166210748 1.3691016347514615 0.06597013624322187
Ni 8.206723550337154 9.089390264901029 11.392147029368585 -0.19949806493175964 -0.36067692256834655 -0.4103580918435578
Ni 0.1129180366515913 5.063064577045089 5.678614072668282 0.6652839987263188 -1.1529096541037887 -0.2084215926736346
Ni 7.479883360862795 6.3653591305169055 2.5923296693505398 0.11303032295581826 -0.7676766394626328 -0.7992500433935397
P 8.590222734372107 1.4928151864401225 3.448258986370323 0.3980131971249597 0.5365861444365726 -0.8341026322963506
P 1.9763671703888894 3.116886854228368 1.2759500573337785 -0.6731551739442794 1.366257737544763 0.5818013075206303
P 5.017387504280782 1.2788118415285736 8.276815333728832 -0.9900454383449788 -0.37985606659995874 -0.5652022655113687
P 8.863810034373882 1.6283753087708401 12.582141223748096 0.1260637591010087 0.2679999664578997 -0.7187338910153429
P 6.48474633450539 7.9755421904632335 1.1333999448720957 0.20461070356797662 -0.6408196950363673 0.6189720030336565
P 2.0638105763409635 3.5088653988404914 5.855436152428297 -2.1348455759677556 -0.9686541171533963 0.5738260026246376
P 7.320447625182781 3.867493010148009 6.177772465955204 0.6670994546685027 1.8519054432602555 -2.2293690983686383
P 2.478851519764271 8.722986860650439 9.972774252962004 -0.435953680924475 -0.26474160742160213 2.8558739194442304
