# total energy = -340893.61536474654 ev
CRYSTAL
PRIMVEC
9.05444846212058 0.00000000000000 0.00000000000000
0.00000000000000 9.05444846212058 0.00000000000000
0.00000000000000 0.00000000000000 13.25210056199351
PRIMCOORD
 96 1
Ni 6.327918656905343 1.7542994012875144 11.701300147087629 0.37064611796591646 1.4387718455540899 -0.6434861861249369
Ni 4.57721387168137 0.43284700618637156 6.058794188907776 -0.16589580349628202 -0.8302027830213121 -0.08202281883071035
Ni 2.943048893394025 1.6530616123543753 4.7531707807141474 -1.7651916467117794 0.26714841709088183 0.959009909195413
Ni 3.20194274000571 4.216385043600293 4.685147425297101 1.213549636383349 -0.6925518333033364 -0.3395051735867379
Ni 4.83191550862701 4.591664771523718 2.506953151077682 1.0664478256651182 0.26724843300385587 0.38020265130610004
Ni 7.023888842608387 6.128412938154535 2.52583710891678 0.8574338508231234 -0.6744515241581998 0.16979359588879148
Ni 5.363918686031136 4.365185850623565 11.719455221820645 -0.47775236212781585 -0.1826455121507951 0.021458426984092074
Ni 5.605735842728868 8.018338923864686 12.273062313400109 0.0023394467664540355 -0.026429140725806096 0.6582736288467567
Ni 1.928479827520123 6.715548652613832 0.14708498902820658 -0.22706954679212507 -1.2263377892869525 0.8754320871727568
Ni 2.685821065310531 1.771204056679534 0.39373541034739584 0.6190859029037016 -1.4500700441757284 0.8019898109222059
Ni 0.6419957126139344 9.224943788458106 4.9756204720216655 0.3561564089901737 -0.5887923941264828 -0.66923347029237
Ni 8.627938725108987 2.5550476652961023 1.463124634802435 0.4053547250916954 -0.5886913497722441 -0.20097902035266033
Ni 6.844076549394613 0.5352211284091188 4.546981068063827 0.42747264003665736 0.2223294610039784 0.528663032934754
Ni 1.053412650036604 7.530023460582946 2.6221139655042913 -1.0475414756789185 -0.1998420785347397 0.543160969440613
Ni 7.581525163780486 3.9202321413173924 3.6727930775318693 1.0016902216727588 0.06862120071282375 0.12235905655591187
Ni 7.728804823451933 3.91891924628159 12.496346824861428 0.10445903634703946 0.04541056692431534 0.5039007383884095
Ni 7.919120276952125 8.838264509844509 7.024859479490029 0.498734877916754 -0.8257540032213392 -0.8747589723651321
Ni 6.857350370929 0.7661095657398627 0.5825315273854667 -0.43435831141289705 -0.38120718131121445 -0.1787685456938921
Ni 1.6152773986688382 6.628263768854288 9.017644000418894 1.9244434625289824 -0.07574984133780503 0.8581702147685155
Ni 0.1504134043051784 4.897288626961441 1.1805008895022633 -0.7685852673198312 0.9045979101034356 0.3620097824471572
Ni 6.497390769906109 1.737141221336857 6.768974426122462 0.07268662903144901 0.9171937444905753 0.664452761074275
Ni 3.427353235980175 4.195116144020296 13.818230211712253 0.0007227370986374649 0.8499606823745297 -1.3682292594488372
Ni 5.81775480933815 5.072555587016781 4.797340191497945 -0.7142069496792667 2.56948233785302 -0.5341549092872607
Ni 5.171511654922182 2.8524319725781004 9.565472542951124 0.08849582814956372 -0.45277795157066536 -0.5754082595100929
P 0.16502366244152697 5.771667666357229 12.356006494537835 -0.0706657419466783 -0.4601580460848204 0.3972603781193352
P 3.9459739384676396 5.8730412720182095 12.4025481708346 -1.2311750627745957 1.140919571621448 0.06520857548684898
P 2.5165662590743114 8.564132026368995 1.4428490082253864 0.28410947042525264 0.07667749535839698 -0.4088961625860506
P 6.302484711004871 7.820897619377069 5.758660951054265 0.6300449730183666 -0.262827935338657 -0.012465222346546274
P 4.650853701517094 0.9048572185682987 12.827449898442236 -0.057070776871062996 0.7257918263033888 -1.1288572411402753
P 4.044359576116104 6.007771466037091 8.186525305175216 -0.43292543562111246 1.72363593475718 0.7793651315441545
P 4.703532483022594 0.9460087816594555 3.8677181507750062 1.2731508929857493 0.23732130642712035 -0.7169472314285652
P 0.04872379839075289 5.689733961674645 3.408148750663371 0.3999518089085693 -0.10643030114079735 0.5695469156333094
Ni 1.3598876236354671 1.0508502411046587 2.5222325329598636 0.7720470006161865 0.5776764867189793 0.757901819464056
Ni 1.9535244321341165 6.255238598613034 5.051051271775194 -0.3665094700897236 0.7237992213533921 -1.4298244065528147
Ni 6.374431358966835 5.633469618554125 9.283215502816125 -0.9614041204592024 0.08057091687553221 0.008400051138237146
Ni 8.637237643741875 2.4335098027749034 10.409803489479234 0.2545687806536583 -0.6021821851698275 0.12716290570245842
Ni 2.37282688877527 4.95361635122162 7.077973779969475 -0.3203131740393193 0.9446574971284828 -0.24291911222987198
Ni 0.6224453473635603 9.012734678429846 9.066544360555842 0.8026097038943919 0.6903761658082562 0.8695445180437282
Ni 1.4816427929212128 1.0627477864635841 11.471469269344347 -0.1181488751293062 0.5659782244454445 -1.0091603047975588
Ni 4.0176489529739206 6.941176455352844 1.653955286423573 0.34377089084162726 0.469666499795888 0.021498536193408135
Ni 5.844972481597609 7.916277180115974 8.052188074222224 -0.17592541981814216 -0.045870794390185515 0.1874187651697224
Ni 5.321091144518413 2.8149193923482465 4.911957739013188 -0.4144201777280734 -0.5712885809147645 0.021897057183407447
Ni 0.6323074526945659 7.129653855802913 6.871095023786571 0.38842786742936974 1.0875349853527203 -0.8326782411449983
Ni 5.215633982573662 4.619498146282726 7.185382175570885 -0.044943911700541954 -1.012467771904237 0.0858632756227231
Ni 8.319444609489542 7.2396654053546206 8.903291748245369 -1.4459889321278194 -0.12646150876005963 1.539599198685813
Ni 4.816396183858975 0.498498096090451 10.35904787283997 -0.8280163168929545 -1.3566790927173924 0.003229048460258955
Ni 8.265652130815742 7.2371663775623345 4.793801713015244 -0.48542273418888016 -0.2298576510602235 -0.5790026617295706
Ni 7.238895777230185 6.2180610329785235 7.0377267562857435 -0.09157061042014553 -1.2240178829045243 -1.209302945291853
Ni 2.2672701278967677 5.483464569877324 2.2977157110545963 -0.5182477511387009 -1.0901618814526064 1.5822401732847913
Ni 2.009426597313725 5.158156343351091 11.185263584208567 1.5200395313863306 0.3616218029801192 0.839412217434722
Ni 0.9882387295696746 3.2336333098354197 3.8174931248191775 0.04878668248539985 0.6423014217882165 -1.0993412339590292
Ni 3.6175962538921853 2.6175324145517673 2.6398452920464397 -0.2902927164178291 -0.4146927146631697 -0.01878242281382572
Ni 0.9862739142402326 3.360531405882101 8.260432241242363 0.02545006464198843 -0.3020670833449378 -0.07633630996889433
Ni 3.5662756396651005 2.7952893479508716 7.213728032116282 0.2430170712603169 -0.7120281968603931 -0.5811906705198248
Ni 4.254468054087082 6.96440111581376 5.9472243687652995 0.17431050992253852 -0.6607611711553008 0.24314254109458772
Ni 0.9175144321582849 7.549653504980321 11.34328091438317 -0.5025884473348893 0.37691009659775737 -0.6216950583917745
P 0.09308063625897174 5.425986930654752 8.007250846203696 -0.02107507550274435 -1.083678844831424 0.05902250128079513
P 8.682690975326201 1.5510813586423688 7.905779452498669 -0.3516536360238137 0.47050236543362195 1.4951635940802572
P 1.7697010182247535 3.0528974628723224 10.363725400946835 -0.021559214228014482 0.6093820453523763 0.8907172954666015
P 3.88037445892014 6.06064039096157 3.843096388907026 -0.023195721390172955 0.7844608008995071 -0.3472135979745891
P 6.893857907372826 3.7999981193834724 10.400964536831301 0.4370651688210989 0.25310273763109314 0.43159386129388244
P 6.482858380027056 7.8053058590208515 10.186850370833849 -0.6286506637740013 1.4538459662783931 -0.8643249215160019
P 2.3900212865200183 8.263089721883796 6.035165700042745 -0.28043125024271703 0.5650487706526397 -0.1401768014636231
P 6.912265601219626 3.917207955510786 1.5151524014591482 -0.8404067201375074 1.7629033648982348 -0.4144422892152604
Ni 5.228210611571795 2.689470008065209 0.729410074987354 -0.14448159948656408 0.5179281630157532 -1.364283644537528
Ni 1.6431379367734145 1.1261108172259584 7.122500841469923 0.5138087415307409 -0.17829880514632518 -1.243338180499691
Ni 6.958063001847818 0.8936405677382859 9.171898301787433 -0.03437153550133435 -0.007412747524303364 -0.05879701553355035
Ni 2.7302874620058755 1.473656769324126 9.21634568414088 0.748910157488407 -0.0065737965627757754 0.2643497712998221
Ni 6.362397996880068 2.1045526334939915 2.6612735499204376 0.19896867479085087 -0.8195288482472338 0.7607973958442963
Ni 4.09561680920353 6.95160718005108 10.423970079637966 0.5044141876897185 -0.923897638873312 -0.849487342282537
Ni 8.027963802644393 7.459643232215421 0.2948925230485306 0.7073608732917107 -0.42451561429086243 -0.40488986964013496
Ni 7.524627009263372 3.515235713342222 8.352586607417454 0.20601452589403874 0.16177586779063752 -0.973654141471149
Ni 3.0582033697066677 8.420954031878365 12.35041446713017 1.0776619492133828 0.36381623952827663 0.27654939868980755
Ni -0.10133829331174188 4.883996696530008 10.218588929240731 -0.7781811385383824 0.135065962599619 -0.5868342419588474
Ni 8.74695039649233 2.197406003095041 5.860608608751588 -0.334282748845534 1.1296918212264286 -0.9830152709710748
Ni 3.656584709231251 2.612371378893786 11.623682698015852 -0.17158205524778192 0.22112644183481275 -0.6340080714311725
Ni 1.1866035878066132 3.341073396006659 12.685758644399048 -0.848659704174919 0.04399543174434359 -0.5382473341890794
Ni 3.5085806936779833 8.307700989755505 8.039864064337877 -1.3479188300262592 -0.29199684359312933 0.5759425347470081
Ni 5.45567646736093 7.691944163515718 3.6380991471271553 0.007590667863064346 -0.017071096549673828 0.45317904366382594
Ni 3.0316013999467573 8.410867376223996 3.814617431968344 0.16812417860616852 -0.3507048989572992 0.14265971578647688
Ni 3.3199131498089356 4.232873194360265 9.227159412011629 -0.23278022402365717 0.40478342596925765 0.41029664247800307
Ni 7.270704054890691 6.418924919007748 11.44333438144953 0.8821814900814484 -1.680249083131113 1.0526703122650514
Ni 0.7742540421860981 0.19117472066500363 0.2965540143524596 -0.952233766813844 -0.8700746795155854 -0.05593769170788431
Ni 4.617524276504762 0.3503646019233071 1.7292004699823842 -0.43851064301837384 -0.23035464530130004 0.08807288167953219
Ni 5.693618320090915 5.77147752293825 0.42695889831201145 1.2414808155759782 -0.19144382716871544 -0.2340017551355841
Ni 8.06522285831561 9.107417046632495 11.241597646582711 0.21835067886188847 -1.014827273275349 0.031011617890165946
Ni -0.013418692710751464 4.824454643044245 5.721952405853233 -0.24090773822679798 -0.268842259853537 -0.0057376738147256025
Ni 8.175107645587998 -0.16427214321413672 2.320230502751327 -0.3964512519544785 -0.22650673231011959 1.0127428799424947
P 8.547263588771067 1.6608846558780523 3.51766411643603 -1.2422837710932477 -0.797541288232549 1.1501760572227095
P 1.7453083339043995 3.3419516775133684 1.6626348807775044 0.1353256440189089 -0.10211161916078543 -0.11152159962077568
P 4.892299625825392 1.1033117158456127 8.163585859842769 -0.3208819020585958 0.536172968158554 0.18723338863179367
P 8.415231620411973 1.6713697072674247 12.624520692704968 0.7564324340073811 0.5748269330853261 -0.5699832318397796
P 6.244871255054458 7.851845724427911 1.4333210120448712 -0.22012602559475636 -0.5304787459872541 0.16612617433953325
P 1.6993570076513198 3.21375879532793 5.835164702957741 0.4846925408910749 -0.49957382887828156 1.8406517247233072
P 6.955120306077917 3.9009552204124063 6.126207274494387 0.9246933953017301 -0.681842160195316 -0.4253895322553835
P 2.639045784241879 8.525170734375497 10.204024848791846 -1.5562254943885843 0.6063468580704783 -0.5972937467292745
