# total energy = -340871.48865040933 ev
CRYSTAL
PRIMVEC
9.27407537026004 0.00000000000000 0.00000000000000
0.00000000000000 9.27407537026004 0.00000000000000
0.00000000000000 0.00000000000000 13.57354674228000
PRIMCOORD
 96 1
Ni 4.885712855469715 4.925721217545318 0.27022615959352914 0.4663322932163324 -0.018807619624806322 0.6816107609108003
Ni 0.2671870450241794 8.07147838205209 11.14766885077734 1.6108868904872062 0.0597524374682842 -0.3185177727017934
Ni 5.765025058027933 2.9982622663958844 12.287168026107846 0.3839148100503646 -0.6511349609194463 0.2900687733324811
Ni -0.08940579827390738 3.118407915605302 8.642154913572108 0.22171599578969556 -2.0188710827819487 -0.12016590555933498
Ni 6.495321414079251 9.221426658344717 8.212688239138727 -0.42168740081344797 0.8494161227249694 -0.9267006555397459
Ni 8.85507285049295 2.6541384177224265 2.1621570545826874 0.00632517088707943 0.16492289806005145 -0.09135078109985557
Ni 7.990172561394511 8.269229495760499 3.4373109157241473 -0.3589272868670915 0.8108444330993584 1.0033462692189432
Ni 0.04029122138095832 1.360590355064798 4.429971797495213 -1.1289374595589072 -0.7492174043161807 -0.6491061034148756
Ni 8.395885546030897 7.605437535732396 8.457840080571893 0.8121132725094529 0.7649201597634181 0.6130232416493894
Ni 7.592055044662602 1.4490372139231704 6.566067772275246 0.979294627586378 1.3468595355238095 -0.12296789378450435
Ni 5.306607501839473 1.9196687276576605 7.011999640503024 -0.9530567769357715 -0.3487107513454059 0.40716349616566005
Ni 0.12247993403427374 0.0877095698493298 13.262346347992791 0.48237571983244015 1.2361465478472582 0.5007390528309763
Ni 1.2441357879383865 2.379421750730425 6.118059438523886 0.004657039156037141 0.233519673292843 0.9556253089938962
Ni 5.863478644443 8.566389425669271 5.642428270641283 0.07164070426543791 0.5154735308276736 -1.0204392201454877
Ni 8.962522290225897 5.747886566346034 1.2364726192821347 1.3509907840833635 -1.1149277755433766 1.5262320333502877
Ni 7.869145875004476 3.540749317766389 4.555539998699439 0.8585913614663343 -1.5711342931796166 -0.28172040136778576
Ni 6.23973716502002 5.154929995639548 4.638664465579326 -2.7018334726246374 -0.4527206159701687 0.5477156786908308
Ni 1.4172549568918564 0.756745092213442 9.62967146561593 -0.2613032711640145 0.6108046367315159 0.37022599970936243
Ni 6.1825810371869325 2.5269166488413153 1.0933152063225569 -1.6419483877787013 -0.7995112674747262 0.8194866821553887
Ni 4.085527065806498 5.5031622597973575 3.6747532181231346 -0.6916002680233444 0.752869142136155 -1.03778336785089
Ni 7.408474718448752 0.6066172840438447 11.669355078017253 1.4872592516315162 0.5025072004749926 1.1656744099686247
Ni 3.7942190775921394 4.223692243878432 11.572575462245359 -0.4434430473229847 0.3005789288351856 -0.5400216524806829
Ni 8.163811078580766 5.88460498862664 3.8993138295339413 0.8910929336384654 1.7029269843446027 -1.5272627886076473
Ni 1.3929847010847511 0.03773528614961016 2.233527558065583 -0.850259187451555 0.6848025283752207 0.14155825519218201
P 1.8820345289319316 3.447415021074488 9.788780288582469 0.543124973996355 1.6504168302610287 -0.7560519107395108
P 4.772467118495867 7.114922403942716 1.1600227046010918 -0.7863073671899425 -1.2509453034229874 -0.1984606248061808
P 5.55300114199353 3.6307078509451887 10.246684060983497 0.9211311318717684 1.980355443205254 -0.6664883034470651
P 9.094510933957926 2.3204386300070063 11.560589646958732 0.4375863314318916 0.176960803061192 -0.7605605972431417
P 7.082184917126101 1.029301827001593 4.397951196721353 0.16436136912962662 -0.2898376311582815 -0.04731601147714432
P 3.761722716740746 0.398127718215053 7.785786774012277 0.4973421113342854 -0.748690328168117 0.018602702702851834
P 4.888420885540664 6.835383217646284 10.71410303493519 -2.1481484637242487 1.9173567308855304 -0.13117948306101923
P 2.313696377056389 5.1643895527367 12.933636012942339 -1.5430617033131169 -0.7605256302401483 0.3094739173319702
Ni 0.7024082833583298 6.919730935095892 6.488006023257452 1.3540943627093518 -1.049262315024767 0.6045684260138168
Ni 3.581629442947023 6.878730246932647 12.870043676652953 0.6331320965841226 0.7665083301861444 -0.6508768221620532
Ni 5.030147308637408 5.4524516144961535 6.805979761002637 1.8660390544481607 0.39875264639414554 0.1844846222420629
Ni 5.871018467893965 7.828562520242576 12.455466530572002 -1.5481352611812822 0.9501064360581961 1.9842583778040859
Ni 0.023611796440538586 5.116451856035543 12.149261594744745 -0.04718822765002841 0.7354411764676947 0.9432559887952658
Ni 0.840336972502835 8.286970802355452 4.44061287182195 0.3859642363802256 -0.10656682671866163 -0.37099244556174177
Ni 3.525224515236357 9.033941946309394 10.076607716229612 -0.9538013684112798 -1.0111742499037941 -0.1516601195128743
Ni 2.288285409952274 2.1557403216851188 11.39662120838542 -0.5264408284724547 -0.588196926634329 0.9447616268065149
Ni 0.8742225898769276 4.859522866016422 5.176788064386879 -1.282185492384192 -0.8936648081306997 -0.6612982746056933
Ni 8.021379825739528 4.00743007530148 10.523611667595068 -0.6420345412800749 0.21479381474856554 -0.12449821438610169
Ni 4.422101816953406 9.083688087749712 0.7861244362605678 -1.3585171743673958 0.683137739078288 -0.18378605351314153
Ni 8.546273955724445 5.345771923036799 8.11114453073859 0.7356507213753395 -0.11521267531911772 2.3522652583749424
Ni 1.938114863997107 5.971252676821436 10.816718826473002 0.09077048311635334 -0.33069503149427565 -0.27783237916728926
Ni 1.9937129471318396 8.891603434224011 6.423056889709917 0.44495974107782726 2.1548400168118116 0.9688004129232733
Ni 5.711986619754784 9.218616613442327 10.37975962637414 0.32428527131318985 -0.0809198155745187 -0.307230115603116
Ni 8.360421480992162 0.39837533603318437 9.60947438380595 1.1118007998786208 -0.559186655444908 -0.32368440450439734
Ni 5.5757411753290365 9.061782721216895 2.741246100066261 0.060678805937295494 0.06431383158672149 2.2344362284789
Ni 8.30022345636705 8.48486102719764 6.070660565614244 -0.028841606822040653 0.6531885010143654 0.17983092552013547
Ni 2.8075779982835853 2.277963363825676 8.21878316161348 -1.247783103644922 -0.0001000159129740213 -1.4486628794155567
Ni 1.7255159552764054 7.774012407648998 9.01120655001168 -0.3388220314767842 -0.8576799053956585 -1.0631586133908852
Ni 7.009763660879374 2.121426242018979 9.607153082686915 -1.0442010984517758 0.007532818041935413 -0.46093477634984487
Ni 1.8207143411609805 7.021866329518377 2.281333562893426 -1.0302664906485546 -1.8022389292730638 -1.154228372915212
Ni 3.5487713931477978 2.7423070543132355 0.12263481109655064 0.39333301804047094 0.24943274497867368 0.21551218097182884
Ni 7.338622381139193 7.6001698607998645 10.850380938625486 1.821154021010012 -0.05570037888609762 -1.2711760286475655
P 2.338244855131057 9.097515734447608 12.166119081936404 -2.109315550017451 -1.5101580106065604 -0.43969026514877174
P 8.603838142883292 3.8797075063387556 6.573478686075573 0.2906619268317897 -1.3688995460429845 0.17816227956846092
P 2.832979691312114 6.3473071677355755 7.669162491302653 -0.5561339846615132 -0.6517525398987871 0.21792618972996014
P 6.068305877823099 0.692996951454222 13.287756387689347 0.6203588560788541 1.4691550858316376 0.5661921402284635
P 1.9574605856683418 1.5904483184500096 0.9746394980934319 -0.5557046104335784 0.8333950647063646 -0.18512251293637796
P 2.0785892868898164 6.510985327743064 4.376939851074972 0.2899548734624361 -0.2781295986927339 0.26346042671633335
P 7.188076312160692 4.970663387832375 0.27028551367727593 -0.35744813121840374 -0.2453089526182872 -1.643311843785131
P 5.631367080690525 7.14619458681683 3.8056428838982885 0.37343190824116973 -0.13151321225135415 0.5592159660209467
Ni 6.317296259141081 5.580786272447518 11.530008382715733 0.6913765820483125 -2.2934371324931404 1.8744445049030363
Ni 3.218846154195653 8.342531789187841 3.4564628092156466 1.6110177596381157 -0.04607545420182387 1.01230219286065
Ni 4.153190721277892 0.7894649582864444 12.261595690088543 0.8206714464921092 1.00998640024328 -1.1152717891463566
Ni 7.795157299983809 5.9671535354126695 6.152617426377923 -0.06559064141661608 -0.10418110009530444 -1.2210444020984972
Ni 3.0641731215816295 4.895190960718038 5.8186134489833 0.23443781423173818 -0.4201609368665925 -0.11278555393486381
Ni 5.545173822199415 2.5540340458531516 3.7092972948637937 1.34751233861646 0.17945683001016835 -0.7982187739155479
Ni 3.826279556891017 4.43631897482589 8.596467107607982 0.35763093665317114 -0.0005345323472313374 1.4073213403542926
Ni 6.661169707773733 4.449043006529118 2.312512077604128 0.01254415521359775 0.597020695573546 0.2378188148888291
Ni 6.627300783735694 3.8447906117595614 7.827538662297942 -0.057390879214643094 -0.26907365913805276 0.11726570119340449
Ni 4.364296503829338 0.9306905813015747 4.818636248982879 -0.5950843977827815 -0.28155225122103766 1.2340040475829588
Ni 3.1527961878761257 3.22715572592021 4.1258971168299325 -1.0598789141983487 -0.6573711716371453 0.14103426436791194
Ni 1.6136891518671301 4.416982527230241 7.500104440048048 -0.6545599274405953 0.27769431092752817 1.1207299840474505
Ni 1.2348060678994306 7.2420885283703145 13.306595744833617 0.5388780257945429 -0.5604660363779638 0.08040379517004863
Ni 6.3294916685359395 6.35472642820393 9.256900924866596 0.2076330353340682 -1.7074395275029757 -2.056395562089968
Ni 4.596983060268109 1.9248993062878503 9.556374736633938 -0.10775493348949185 -0.5657797352813934 0.4089743241221537
Ni 3.59736754921552 7.21242076057248 5.779629872259889 0.5348529637955498 1.0598884272800455 -0.46311507183061534
Ni 6.808599687355524 7.02756061192784 1.7433323818836006 -0.025388872386749826 -0.713177737083804 0.45418794454431455
Ni 7.377183987423466 0.264940863917385 1.4689560734655855 0.8645115836055112 0.9062115344474587 -1.326228232426703
Ni 3.638405333681107 1.2803603271751278 2.6178350488432085 -0.9050074868370284 1.250350607261782 -1.3575578957779202
Ni 8.015954491522043 2.276544430261103 13.370676824906353 0.1963492348901328 0.15671902209302044 0.2936060970617782
Ni 8.039761043549875 7.0989802680113385 13.184284598974997 -0.2416549008054677 0.5726386671847558 -1.0205690608551325
Ni 2.0090708163013336 3.985227938349929 1.8167515286633207 0.4942981823016391 0.5150878653534806 0.7851724822545509
Ni 4.634116458912224 7.578060464604167 8.050877877954147 -1.0746367892338138 1.0973378303757553 0.6189707174820759
Ni 0.9364868785424767 3.287817454324595 13.507905321344158 0.22962136667970134 -0.546622188516336 -0.9826378330269979
P 4.824615245512814 3.5046360674366728 5.543449771548081 0.3837142640037844 0.5734922734343026 1.0954372709189328
P 6.6471102091861995 7.3235891046151895 7.20205605369819 -0.7850876358502286 -0.6549849307931558 0.5009012894404534
P 2.2061449224920033 1.079344738860645 4.493834936791692 -0.16854249709050972 -0.5383332090346664 -0.31870212079845756
P 9.003764104354362 8.012179942758767 1.4640973852663717 0.5929087302877015 -0.448534345802963 -0.09464873512483699
P 8.992950532221736 6.071625996882689 10.11739602806195 0.37423254976559417 0.4685748093936059 0.6713206918387019
P 0.29344102559901075 0.891030924467985 7.765982913007122 0.03765997644461901 -0.41515062813619474 -1.0720487167916635
P 4.270878740457167 3.675983887953323 2.2479969707939915 0.42717670606279334 -0.12984199519651832 -0.8269765627745307
P 0.2544778518418879 4.513071224371019 3.1260961242656347 0.3538771260376938 -1.3423811880374816 -1.1211354470159853
