# total energy = -381176.9243665173 ev
CRYSTAL
PRIMVEC
9.19519816853361 0.00000000000000 0.00000000000000

0.00000000000000 9.19519816853361 0.00000000000000

0.00000000000000 0.00000000000000 13.45810198452449

PRIMCOORD
 96 1
Ni 5.488310255587309 8.099737297585845 3.4278052271768646 -0.138155143047904 0.1683172684535811 -0.012927506694945476
Ni 1.3979459547218032 6.162401027110697 2.4346778652106185 0.8926541074779981 1.576487072851098 -0.03367605209620652
Ni 4.186987441641778 0.5799926321229399 1.8906881114085214 0.5710702942563713 -0.9970828048077345 1.446546347293186
Ni 1.2444689045983957 4.0058052598892395 2.9893266925555264 -1.464075100205569 -1.0537339776428756 -0.17426577272753213
Ni 3.081503955089952 4.392352994182439 4.372335048096605 0.736397626843693 1.456665952225691 -1.0561667554540843
Ni 8.477089833860745 7.956393355678601 8.388798462008854 2.215714226589365 -1.4512933750598682 -0.8576151135959938
Ni 6.6947937971721165 0.3710078496422766 1.7647874601419893 0.3708086116857098 -0.518989514400732 0.20635648261448977
Ni 1.8829650645929532 0.11359931535765376 6.165761871986384 -0.40196266869101094 2.080730539290907 1.8385043393630016
Ni 9.114565326875272 5.751899801979831 9.204318735212075 -0.3018305418540995 0.5322304385710381 0.11104260310182812
Ni 0.5506700651623904 1.5191662501970222 2.0912004384351253 -0.5362519010256056 1.089023396972789 0.009429006623383761
Ni 8.616369498243902 3.345203843858694 4.718114032936079 0.5157368117913892 2.3767496166695516 1.8688392429011171
Ni 5.375053001595935 1.5698961576639707 9.632677034894474 2.0559034529448983 0.4215621880894933 1.608416317459527
Ni 8.30443160067117 8.798756250936837 6.201722452396343 0.675485878959985 1.5127707656390592 0.5189913141729449
Ni 4.3026354471179085 5.667046514666979 7.954505581525445 -1.1370456904883386 -0.31423225795256204 0.5047024083540985
Ni 6.855792519274492 5.435079254259383 8.599968943058466 -1.2955853107298654 -0.6246217451202662 -0.992895506199264
Ni 6.317450456095233 2.518904959538424 5.60641613749373 0.3778719462903944 0.32406081400720965 -0.021254281393085973
Ni 0.7434096913041273 0.7590452060144406 12.971901241481868 -1.0165861649479846 0.009782019087428314 0.2754201701813709
Ni 4.879523780389872 0.9358872543023424 13.10379072521772 1.4459117990329808 -0.23719377971032055 -0.42494241741563593
Ni 3.3944257388506416 8.28725497077299 13.368995867902056 0.010404740273091757 0.23282239011550224 0.36213448095047956
Ni 3.7693139620566405 6.92618176010456 2.1171612410001854 0.18262854286993063 0.5532821170350148 -0.557161140374447
Ni 5.515574017711562 8.41619923258358 11.325854131909564 -0.3294717006101358 0.6215004258824651 0.2031040371154631
Ni 4.7965003374826605 6.15768389052731 -0.01778903008619878 0.5053184446715426 1.0999313021345445 0.18508471771990703
Ni 3.991368799000512 2.2664048219559687 11.282667045377025 0.9154047709109525 -0.6267202795205078 0.5215328496478759
Ni 5.613346558240122 6.839848045910763 5.780227448514801 -0.11724256126495292 1.9802150609726479 0.03430802925325059
P 2.544550366811457 6.00017014847387 5.991614016717843 0.35240774058101887 -1.1567639948528723 -0.22878550104196727
Ni 8.320992152302123 5.389783708821248 2.681392384199961 -0.7354432333502238 -0.6607997377027202 1.3870296799847919
P 8.72770495584945 3.660599135886306 1.2802750056816472 -0.03282553117045314 -0.8669263636945909 -0.1217083103457904
Ni 4.949094648596311 4.0215750244906205 9.818896346121436 -0.20132997593417584 -0.01277735427032638 0.8414819554795572
P 3.979424236774743 -0.03723319581569115 9.920115246867255 -1.6139120504667754 0.392861220610375 0.7048903002640312
P 3.056768872420731 5.300093747350772 10.050739471355786 0.36313181186674237 0.2851304554905993 -1.4326428498382164
P 8.795887349155128 8.858396305283517 2.8785263954746427 1.0118370802987735 -1.2200529847195054 -0.7156128288878578
Ni 7.677319095823265 7.474960373034587 4.285005493957426 0.23200812174432298 0.7046661000683672 -1.8616787205969358
Ni 7.828966301541032 6.63206415629129 6.3904180304496325 -1.848553238958571 0.141020380410841 0.7003049948861939
Ni 3.5171816323949168 7.149128531256207 4.423274606078371 -0.48524301407790627 -0.5316879358040069 -0.11018462597690702
Ni 7.095860749136209 7.051034158797007 1.532594917382944 -1.539197335261704 0.12205129550750593 0.8509240747290636
Ni -0.35660725002582055 1.9670367600742495 6.686873053599155 0.7979948308302 0.5429254563910392 0.09551802510366775
Ni 9.191998089387358 1.5647560419717421 10.738152245768083 0.5435713175051542 0.8373856739229966 1.0406550329717303
Ni 3.614476022626525 4.616798582611068 12.122318276739666 -0.9281132196165565 2.088698902208364 -1.0647544971230953
Ni 5.5153349425630855 5.512530407167504 3.5161986657267605 0.24202025456468643 0.3826153745126507 -0.23917250070324617
Ni 8.920132864778367 8.204847606133006 0.9032930358868826 0.49833198605138046 0.7059724775846165 -0.8361168345129021
Ni 0.9018576654762264 7.532982072530046 12.3170164800593 -0.21954675605251864 -0.3336937091112834 0.14144872619751123
Ni 8.18861808163071 0.9344528034114881 4.338945445052563 -0.7595943766751305 1.044307285012337 0.6879616428294926
Ni 5.585577060224862 2.4819126779108123 1.3566705498572684 -0.24265197461141436 1.1975414338805503 -0.24775458594530234
Ni 1.2080651156439552 8.318270373688708 4.370667039176086 -0.8622464417204182 -0.9024538671772392 -1.6940811039181984
Ni 6.08146489415364 4.256576700244255 12.319129536563905 -0.24634279319944025 -0.5103544644335534 -0.32370137378526187
Ni 3.478276749579499 7.816433246642092 6.728243169003278 0.6227234996562888 -0.27466118052815924 0.8174935629847598
Ni -0.13064721248357775 5.687708124614095 0.5394813482137257 0.5586680639372765 0.7196677156835218 -0.9640181610432818
Ni 4.402817129527262 0.9341401666788659 7.842170605895307 -2.7007798345491425 -1.3383944354755917 -1.917670148360891
Ni 0.7600667925142736 6.949877785397714 6.800647997238959 1.521440268388599 1.8749348142758937 -0.47362754132616497
Ni 6.449990040330976 4.883119102815026 1.1250922463258457 0.21891992110179717 -1.2557136713459083 0.5767575744491357
Ni 1.938053495920575 7.564806652871374 8.813051105776083 0.46696735569716996 -0.1385176685936453 1.200509772480255
Ni 3.1008046757303593 7.207131840355629 11.292665903702122 -0.01064668108056876 -0.28187158223366937 -0.978812802853953
Ni 6.671658678958079 1.2570295450913904 7.606398372547739 0.6240260205177962 -0.28907761306380536 -0.26364991701932017
Ni 4.950280829140672 4.81297813233145 5.880503841463742 -0.20222240584145817 -2.3575481040404367 -0.9301423342314432
Ni 3.882929828770727 2.3701082652063303 5.7064635700120165 -1.2539766340501435 -0.1305593329785171 0.44427454208534456
Ni 7.471411026599524 6.3853294078663065 12.477651991839952 -0.7599923834444975 0.4504999541697661 -0.17978413144260005
P 4.044323944387888 3.0765937193481814 13.285851967900806 0.6144142084596451 -1.3330259720748268 2.602687363850079
Ni -0.4127660024027721 4.7997370471851015 6.860805741234068 0.5557048675438946 -2.5210103583945616 0.4918692611451722
P 5.916935216012239 1.0419722538394434 3.7755630186298754 -0.45393520510356017 0.9795807913682291 -0.10275156673762949
Ni 6.824013914923254 2.0284698780344965 11.666613458150849 -0.6322206405134466 -0.8074377214106546 -0.24235218398280844
P 0.319738184051654 8.525502551427085 10.446219421003962 -0.44530966821807827 -0.09800788140505702 -0.6585366527001562
P 6.0417784195066675 8.147681060053248 0.030167605658431178 -0.49584341530157183 0.3464425241365195 -0.543155313013658
P 7.391192119087895 5.294898460470434 4.729405736102548 -0.39264216262103346 -0.8157668101016401 -0.28989908052383623
Ni 1.5791465268703782 3.8977524879762226 5.90890045198385 -0.3290135300267947 -0.9605787963444297 1.4657905402347788
Ni 7.195361986892208 7.296757435439977 10.066337285754225 -0.5578388831677619 -0.7725784476396242 1.7260124054091566
Ni 1.9668068801237921 8.888915167506246 1.8762884313118675 -0.33676386339617487 -1.0467017533864424 0.5304455787564736
Ni 3.7267861712220136 4.584744122319282 1.8352006084869057 0.3181917568209423 -0.8832248437442981 -0.17573001597788446
Ni 1.7304535102614673 4.210306463816181 0.337099637430002 0.28986437063115883 0.08325309169338564 0.5223064945891069
Ni 4.683270669085343 3.336109793018598 7.708854946946819 1.0566935744918315 -0.7869012920201995 -0.7219819656389953
Ni 7.418299562845836 2.8862071443793265 3.0621351899842097 -1.6399059034273757 -0.45000038882552823 -2.850377672216349
Ni 2.64127465476593 1.4547630832768648 0.3961741870985557 0.11704767164532744 1.2057576511427557 0.028696596603744125
Ni 0.8570908439241437 0.5125697621735738 8.469788846634218 -0.20115025582320198 0.5490241130896093 0.3830015542074759
Ni 0.4485325641345448 5.928714264673678 4.637621108523503 0.6332462535644836 -0.7163972724623662 0.4037444431817821
Ni 8.462791300942293 3.70903024384868 12.35333935127118 0.8624413313400436 0.3844866233934346 -0.30923197652449325
Ni 7.848680806092261 -0.20390811365476122 12.01498916691069 -0.11066079428237717 -0.6001715824977019 0.3713570279900121
Ni 4.99960387131082 7.647076089541084 8.795192192184945 -0.20747542671028138 0.21279555337161415 0.7839635495481143
Ni 2.8033400198384273 2.3580717510003786 2.7676185145769447 0.5968887979813721 -0.668559841264113 -0.23479519757115694
Ni 2.132908937126322 0.32564242069920296 11.205901854241068 1.5724650961758981 0.247461994405548 -0.9451850874971786
Ni 1.6817005703684527 5.216261127017952 7.929688661593861 2.560852430092164 -1.0865530810554256 0.9540697915813182
Ni 1.184396675944857 5.174542513608936 11.092086451729985 0.1584213494961078 0.1419053541189556 0.9827967272023654
Ni 0.7477976397984589 3.3886419592971326 9.403646720733922 -0.255915781599856 -0.12007334584552869 -0.3423832664654813
Ni 7.4421519065053 3.060897516330947 9.609636627220025 -0.002274654966789631 0.37850932276407717 0.4799637679568379
Ni 5.140419133763032 6.04068419094249 10.946645085154769 1.1477615342439458 0.5910418522822918 -0.6117415467234883
Ni 7.630846565038788 0.3871178365703342 9.559235907842133 -1.4944704246679745 1.7400732543775967 1.2377959105252232
Ni 1.2782796477116767 2.0127368942251893 4.626222741060022 1.096993816772775 -1.2404184357497345 -0.3587326543577822
Ni 2.9671064965443104 2.491999810136885 9.199043450108977 0.14740468667063003 0.11005272838473305 0.5640300995801383
Ni 3.499103873090943 0.4206821483767246 4.355378183431062 -0.8823599246408417 -0.018637669705845322 -1.4080445916735622
Ni 7.9270514788022135 1.7210192370946937 0.31798006219055547 0.11932644037717513 0.8723501058133234 0.06074205507506313
P 7.286192152916953 3.449008434287257 7.5386904514598045 -1.0278491394563136 -0.5360315574846832 -0.823478062702969
Ni 4.9056197523658005 3.144077277604468 3.6891217206192644 0.902702749963252 -0.735107961497992 -0.5528339737540028
P 6.561720891451312 8.126467738225037 7.521934961630863 -0.37948145686935936 0.7125922968939792 -1.4464370754088316
Ni 1.928508880377582 2.961239960208636 11.808152382687101 -2.072267239014902 -1.1827020548748728 -0.5891438639286305
P 7.594525532866512 5.127288390992903 10.651845197648539 -0.1962638742651781 -0.5435918863304444 0.9864191544463011
P 2.1910133934039453 6.5626128256590865 0.4549057558810269 0.014461941061600899 -0.6041279960422886 -0.08742290680035911
P 1.9422189206228637 2.055963520109207 7.459126242047078 -0.2733766573887808 0.6570166165112039 -2.1532649590152078
Ni 5.271404729533683 9.289816605906008 5.74916606960899 1.4776011597164618 -0.12542458285511301 0.4029281179280738
