# total energy = -340866.84741732036 ev
CRYSTAL
PRIMVEC
9.32153119537516 0.00000000000000 0.00000000000000

0.00000000000000 9.32153119537516 0.00000000000000

0.00000000000000 0.00000000000000 13.64300313924279

PRIMCOORD
 96 1
Ni 3.2481061684935235 6.08952325491777 9.70235763305776 1.4874541412511415 0.5387893227354785 0.5506634484652452
Ni 2.035160572075989 4.805193373036747 8.30261321337755 -0.5143504729668239 0.22338335618978947 -1.2622941527769036
Ni 2.9707719740420084 9.16050168870547 3.4082127873392896 -0.13284350102700349 -1.2915479074356984 -0.5611859452631239
Ni 5.912581950834729 8.113069199194397 6.507070988611025 0.9578259161896407 0.12180344116275799 -2.5270619639052803
Ni 0.03417366530917919 1.4037666603667471 6.798363243790279 -0.9428770081892923 0.6104305412215487 -0.8088150613741554
Ni 5.724007375890047 8.974723573102528 1.4315056727305822 -1.796840898185944 -2.262061960615969 -2.223734268680364
Ni 0.7347240165396566 0.7047431759368598 12.570635643612533 -2.9350520697372935 -1.7316035263436889 0.35951658371165823
Ni 8.831405031838344 6.407434074417935 2.8147425929165 0.01970981972410154 -0.9613056472081251 0.7301627016775747
Ni 2.1698473755053365 3.806176916262338 13.004496988952388 0.03994697270658281 -0.8173416107879279 -1.0476281218554537
Ni 0.9340547062657842 5.36866128733512 10.82438567550975 0.339527542184241 0.4492069463899554 0.27994582596586626
Ni 1.5668654907081747 7.341432851496885 8.597002081201223 -1.2038259813376817 -0.11314910792186965 -1.843044650435516
Ni 3.408874616050168 8.501161826641104 9.303955392171172 0.7054253468318948 0.6691928468624216 0.41069259236484107
Ni 7.3400998725439885 8.5139043597083 9.628358658109743 -1.1014513383234965 -0.3935687882003609 0.5331920311533591
Ni 1.5977197587787084 0.7212497432780384 10.2805759382307 0.19835238136309064 1.3611502411148688 -0.758757482596132
Ni 9.270961832704208 2.6306199812438695 10.923747604534237 0.6273923658868679 -1.0993219506853196 1.8799649205006332
Ni 1.3192763021216363 7.651970339865995 2.0768884062203226 -0.20177991898740086 1.7595131082697633 -1.2039892463884232
Ni 8.617354712290409 7.47646455157838 11.733350548561443 -0.9094470106656207 -0.015724352713792276 -1.1915556486107608
Ni 3.3728655412596935 3.8404987939166295 4.127336289364492 -0.3335705532698578 -0.1336459423236408 -0.5272101025383114
Ni 7.898692626056595 4.847121620100572 11.598094199579494 -0.2569349668929898 0.3573717694545136 0.5255787375824754
Ni 6.901093042015333 5.348619995385981 8.291780662040761 1.038402489492128 -0.7282166336947975 1.7864821806594395
Ni 1.4819836281552203 1.9901655412673893 1.046618719842625 0.6672956298397089 1.512440378882834 -0.8683376422198207
Ni 5.822284278689937 3.4955648556441146 3.9294709443334352 0.8332639384451391 1.367859277703928 -2.2164122810976536
Ni 4.890895530329946 2.8347894777843217 5.938539618597875 -1.5526267212937324 -0.33734390426936095 1.3455295038584763
Ni 6.514165605961019 6.1503742101940375 4.082546332240953 3.556331123637572 -1.3458863729772628 -2.88229020465423
P 5.605763753390132 -0.05643161736320338 10.828642818780994 -1.5174802552995865 0.5146299518804556 -0.8090143218691551
P 7.999952418821007 0.5918529087701495 11.39698309740579 0.5634744841869844 -0.18233569421986018 0.9083072406342229
P 4.452280204109133 0.7106455694541595 5.795043036088932 0.34359322761318245 -1.580090216821324 -0.3228166571874634
P 0.2746421362585331 4.319327205471665 0.016217599875865348 -1.6593964080518195 0.1216759144459582 1.0421827824701664
P 6.521855869150806 1.132277065939469 2.3705669733711954 1.5198394995603826 2.4279801327097537 1.572382306654105
P 2.3110126430763818 1.7392858521887367 12.141958933892269 3.7773488078086626 2.302500785357306 -0.4869448272603613
P 0.2518165029581357 2.8589695295592352 5.113479711635756 -0.1256752654133384 -0.2783527704471335 -0.5177181038874761
P 8.73854393863029 4.085449989190793 9.65392575371816 -0.5284948827880059 1.7572916751384122 -2.0402963425352607
Ni 5.220048116383906 7.885092512124598 12.56018527505245 0.4537146044523218 -1.4449160107786145 1.0392671514852683
Ni 8.536266712911083 1.6772044548021041 1.7380777817531048 -1.1553105502357972 0.9708755502847473 1.0491566426848382
Ni 2.4433690637209455 1.4137593417478986 5.032222060389698 0.7354668874993076 0.12247012821247938 -0.5250699162668571
Ni 7.399589884273942 4.2128473552693375 1.2815446083766497 0.10109860451523879 0.014251881933323843 -0.21213477985916368
Ni 5.383911312278744 3.930787144530281 9.492924267883039 -0.13253676841986206 0.638283558878075 0.7862955401154007
Ni 8.664847913444298 8.37117307490588 7.438329235535069 0.4812565186263324 -0.2367322666928697 0.033050759807381785
Ni 5.416508706672294 9.03110019343201 8.314946531227736 -0.5690717757691037 1.4410094766353572 2.3072372716010263
Ni 0.3034027884352172 5.663529281859345 5.105920882035033 1.0852168787425052 -0.2897792671165203 -0.5941616288581961
Ni 2.355821243262199 6.038692945616073 3.0819675868476244 -0.8956103618928447 -2.245226377115869 1.8418933104398925
Ni 5.599956439490453 8.489556520372881 3.8518701297532587 0.5506508500597549 -0.6091511602884928 0.310431139038917
Ni 5.220775195812759 2.292807692761653 0.7017239320008943 2.1445733447784807 -0.17640518766803814 1.1795704512244265
Ni 8.346237979108695 3.7732066606232206 6.780504122280813 0.7478788880104151 1.0588381316386604 0.004812590897294938
Ni 5.813755077697629 0.7699566077862413 12.837547434097383 0.9177149071013678 0.26738444436108794 -0.8037926684588996
Ni 5.343194864263006 5.657554180399161 11.20887273471184 0.41742296911013915 0.1733113792340628 -0.16577161921359193
Ni 8.265905023751639 1.2895779039123554 9.27696955952338 0.8718315143056921 0.4522369914655308 -1.1666097772987005
Ni 4.216389537102208 6.899396523348011 2.118908004289311 0.6827942396959402 0.623445722534294 -0.4956549534398496
Ni 4.418750656601668 5.24756527630663 13.39633780407014 0.6161993253845258 0.5038277190586291 0.6914220905742672
Ni 2.2797668706980048 3.359060353642636 10.39377195161877 2.088577289028835 -0.13403109357720142 1.570025376386154
Ni 3.2472672306910018 8.67891410393325 11.772424542790464 0.2444993122327983 1.2745806834537405 -0.024272756504435618
Ni 7.636533884299589 6.347599166035835 6.3981321184941935 0.05269861594529634 -1.4749642363142468 -0.10453256989745224
Ni 8.30517663444081 4.192936564756147 3.8478721250476844 -0.020329969806603697 -1.0922221064157447 -0.29339038150654634
Ni 2.069864632506985 5.580232079600044 0.8565545642219102 -0.435301906273089 0.8858710231178937 -0.5966252599073403
Ni 3.2924393705912456 0.5550328607705702 0.30845319400640003 0.5815611664853662 -0.3900764587763863 -0.21399188767256053
Ni 6.4523731760397 2.2542165538456382 10.76012770060213 1.4900098177934598 0.2295951414274562 1.5732168867402583
P 7.60305094444782 7.851758716771054 4.992970957069033 0.5816048752391081 1.3673219171432194 -1.9299960169160955
P 6.41460233186393 3.6044403393491997 12.740177516277333 -0.6574485618422999 -0.44411230547586733 -0.01875131246557416
P 7.218696250987907 0.7194199267154263 7.401029128681825 -0.15585410298956387 -0.3717609482966501 -0.5609812854514854
P 3.4064603394851325 7.127205422857307 0.002841202691208046 -0.9177053940196711 1.8292414260038368 0.1754248260326398
P 1.5986612334237609 7.990285991029725 10.627926949527591 -1.0457324474946377 -2.3137257075388473 0.9658989230057624
P 3.7269252585174204 3.2594131857652933 8.201450364536983 -0.8541914326264256 -0.11632699142921901 0.06126450323743642
P 3.140852631206648 5.067818191350709 11.548228668750696 0.4909125536588577 -0.3314727902005646 -0.05014833871961686
P 6.933149787602816 6.669984320482784 13.05792241252322 1.122524356943712 -0.06235002299213132 -0.232222037527342
Ni 3.482095243148066 7.493317879877934 6.798622382355947 0.40707222200343446 1.3208201740372543 1.77339089469312
Ni 4.499689511482769 1.8121802256967645 9.719739492172904 -1.4421461613429616 -1.5708535287144045 0.15222961886309913
Ni 6.741564358100194 6.75860411702253 1.720723887231379 0.04376326112887947 -0.17576266898803278 -1.1293964014731968
Ni 4.722129209055924 5.143248021328581 7.59220813942678 -0.8320298089277218 0.4946907897543673 -1.391770279993571
Ni 2.8878942406839685 5.463983264763904 5.975676598656184 -1.8407517406362814 -1.1601488521647052 -0.25821126250225207
Ni 6.47273140004757 2.6959266284046426 7.699974360926308 -0.2337688131891716 -0.009189636919068045 0.9811131688523556
Ni 4.795498980652047 1.3767621846566758 3.6762981585945558 -0.4955102003318692 0.9916755177492341 -0.16680597401537722
Ni 2.2158025240212673 3.1485149298030164 6.336683653071908 -0.7319390768517072 1.1510314632444694 1.163775393173699
Ni 0.5497969567297187 8.05718662001529 4.505383102702552 -0.9274285348447061 -2.4117891247721883 -0.4173134401154684
Ni 1.2615200951835621 3.937750328291214 2.4333801109522497 -0.8778422392761462 -0.019969501143391414 0.4994583863463398
Ni 3.5461248405427774 3.535861834758591 1.273134722982923 -0.6614497125818931 1.0685116501726823 1.6489160773457858
Ni 0.5042976310864916 0.7550365650449434 3.822797206283414 -0.2606031597731963 2.782797254063214 -0.6473418124256013
Ni 8.21359259099882 8.737956682168525 2.499875253333262 -0.5384599644205179 -0.3929573798686071 0.9401061303123746
Ni 9.024724266132843 6.491141424047359 0.3733273221223171 -1.2546746885584328 -1.2318890581224848 0.33084338414668185
Ni 1.126227392230171 2.6643266378429784 8.690019776132415 -1.4527455341253628 -0.8439119050772885 -1.5113201492354615
Ni 3.3113714003348265 1.0674924245224875 7.711693389874427 -0.029675929797877924 0.22178130180999225 -1.0705549058549562
Ni 7.2660775937681255 1.9487220138227994 5.379913307573168 0.31678356361950605 -0.06656020441873699 0.044904830932490404
Ni 8.722734621818319 6.727171914021371 9.403467397846999 0.21909527033739687 -1.4794173869895941 -0.41393603900280324
Ni 8.2751613041728 2.4251920779996343 13.153451327943293 -0.5190193391974028 0.6360346149428981 -0.3113852754220702
Ni 8.209360615861653 8.809741793470996 0.11204387213927688 -1.9308439667386879 0.18450544817766934 -1.095971546155848
Ni 1.6320975656198344 8.872382482725977 6.240978560713306 0.868428402161414 -0.07599923834444976 0.44048936401129946
Ni 4.297561430261787 3.1154234942590904 12.178317566100459 0.5074756002238615 -0.6818285333485612 -0.8571307177604077
Ni 4.849172356951182 6.42417554434382 5.200753479079013 -1.2455076773471838 0.5671835576074554 1.60215670970306
Ni 1.2537552597446635 7.664060365753452 12.813044857345055 2.1274168876038524 -0.47207510923738055 0.9626565048090647
P 0.6182328418938988 0.1429298334156835 1.0840139063134888 0.21730141166176767 -1.7594017795028798 1.0349430701886175
P 5.400354493208176 5.0239417442788055 2.0089866447904146 -0.03652303462669839 -1.1905698876587238 0.8123359300432204
P 5.366834267231849 6.739317869095662 9.21995534646398 0.030706942165553572 -0.12409403696914759 -0.4934448331624083
P 3.064052536151323 7.211127167702931 4.611935660847766 -1.5575136170723887 1.9887364681800974 0.14910495719118835
P 2.7204981844874 2.165037465437543 2.818767630062378 0.14399823209224233 -0.5214606016490438 0.7308810679008381
P 5.981859570260772 4.670926038508661 5.706772796966902 1.4502986152467667 0.007822838478528462 1.194420885973698
P 1.2584812760322042 0.33085190118062513 8.155091593722728 -0.09134281068005559 -0.18934477854784162 0.8120081143901564
P 0.38833125864386714 5.98123502767445 7.175864747556701 0.04578363399301793 0.01861658665992278 1.0644932730419085
