# total energy = -340888.43599837786 ev
CRYSTAL
PRIMVEC
9.07450896661402 0.00000000000000 0.00000000000000

0.00000000000000 9.07450896661402 0.00000000000000

0.00000000000000 0.00000000000000 13.28146113805965

PRIMCOORD
 96 1
Ni 6.584808635441963 2.014631765638611 11.45035986905037 -0.29382849748522943 1.037831447480006 0.7738424019537125
Ni 4.233476284098857 0.4352025671001712 6.084888484331246 -0.2886896335967673 0.13777282000782082 0.4285638162183071
Ni 2.306967076345551 1.3366207436060247 4.660650632996872 0.038152085589689126 0.834595255662053 0.6558218248721545
Ni 3.6617912852093166 4.487435495815276 5.33408719499136 0.2719368396184607 -0.09659891687267236 -1.3007974510584244
Ni 5.144139570477385 4.261126313331328 2.891851856174229 0.006641930796549851 0.7674886918215428 -0.5596975336430554
Ni 7.6016890508543185 6.094104555774796 2.3307241411734503 -0.7104073734275185 -0.27695074789328433 -0.1547385013278819
Ni 4.7296885907906745 4.491509950401879 11.717449895436754 2.0522468300289174 -0.4106576253618476 -1.5897701631132493
Ni 5.789446061707928 7.903398329463176 12.492715153863552 -0.2911355240340986 0.9717070450471074 -0.13711564603979615
Ni 1.9880343794619215 6.474535200839735 0.21985448416000436 -0.31900036876516674 0.1761971854222901 -0.1859753478549765
Ni 2.853860516369614 1.579872034582596 0.28840151101141165 -0.5100595589009538 0.263613664464746 0.248609734856746
Ni 0.4500230553648483 8.852419565814023 4.469928952856535 0.5702891931159727 0.46058716320243903 0.6197479619677326
Ni 8.505854988716127 2.2765946943826103 1.4386481717876587 -0.02233131650734864 1.5544786869008067 0.6956502697230019
Ni 7.088189804324018 0.5540087626106003 4.9610105321023275 0.6886334720855366 0.6865161686322176 0.36423790044672755
Ni 0.8599576518717097 7.3720767470574 2.2809713301222954 0.5879575569300133 0.3024334655454211 -0.2298903040703718
Ni 7.25679418343111 3.5663365239699467 3.9298114487786115 0.5554379870357531 0.9068874774685607 0.19835032448056164
Ni 7.608104728789126 3.932311476036093 12.937963202539155 1.0504781897097393 -0.3998661911732984 -2.3659795226372413
Ni 8.150914639717485 9.10236784450755 7.259939408285712 -0.029103345123859554 -0.33955171055395716 -0.5885872200942122
Ni 7.018406829332977 0.8055078749095848 0.2688477587993578 -1.2626417659243092 -0.8904195617205245 0.7945089291641284
Ni 1.9669361458007812 6.7353728904551415 9.384162205442111 -0.27267294645353685 -1.2538143974406666 -1.0481189454489432
Ni 0.4347424894887218 4.8475755385291155 1.4385946321839593 -0.9825103063101983 -0.158587699870643 -0.13361508908570538
Ni 6.178678980601388 1.959250036591755 6.917861268487629 0.9159120495646742 0.32259939897033474 0.5270501799216795
Ni 3.6744955979515086 4.574614304754018 0.6232273031355235 0.12928046626609346 -0.0911108971749076 0.05153133511007254
Ni 6.111827072050153 5.629562285847442 4.665604407515418 0.3272602947811138 0.045081465719670755 1.0684278322096243
Ni 5.19771547221303 2.768424013178372 9.63759963288519 0.47488866742677577 0.7313621213023146 -0.560204555186461
P 0.06359052998013211 5.55217487222929 12.644522616623645 1.2503848029338271 0.9842247178981437 -0.5046311887965309
P 4.130299115614054 6.254650770799696 12.613709213518367 -0.7048512194959796 1.3234403852689207 1.0799522879094563
P 2.330624321573333 8.603033906684793 1.0963740225929817 0.7236035604028184 -0.30603609529501485 0.5333362700407073
P 6.710889864899117 7.862263579705778 6.081102599134072 0.43556904389154666 -2.0459129173910897 -0.5162746865727301
P 4.844717068162121 1.060274717936043 12.596576540334611 0.7798608402336504 0.04861287591169692 -0.16072351526672318
P 4.146252102614607 6.1491959005304 8.235715019820706 -0.708446907267038 0.31385327734658847 0.3829156793618889
P 4.346871349832022 0.8266959462108306 3.995023593535193 0.8492860249050084 1.8810694664187217 -1.9074757243263925
P 0.4583452876618943 5.7232112197756 3.5194412758348754 -0.18035285946187649 -1.4877516178869024 0.6502924104134931
Ni 1.1520270794619742 0.8850069267956717 2.315729422334023 1.574107773985644 0.8866899194747632 0.9741135976060709
Ni 2.138562336438694 6.291665693424983 4.775708148797444 -0.6113723363095277 0.811469468277867 0.9879970404563821
Ni 6.037152936653368 5.969783781083344 9.244362133125211 0.7671459637701432 -0.702762455287751 -0.15366609419930954
Ni 8.625121261838006 2.402757594421679 10.120925229201875 0.7886121040637193 0.6205378048588797 2.013111297480036
Ni 2.482640498042762 5.1626243455172744 7.215884481499431 -1.9072417539387152 0.5860297437796811 -0.4403289271740352
Ni 0.4250645255319019 0.10311999907746262 9.35997682378462 0.7607246336248318 0.06571791102309972 0.11856745072396355
Ni 1.4903792258229545 1.1438327977432603 11.48578130787742 -0.18866754997515894 0.5229333295398283 -0.9136667051739233
Ni 3.8455773180433273 7.039877117867282 1.5950636702695271 1.0386742550962758 -0.5151829961704482 0.36469092882374615
Ni 5.874065859080029 8.664205172538448 7.806776586353345 -1.274150023674225 -0.9723235955851836 1.1415273804087762
Ni 5.008203424135931 2.6739130008855647 4.893474405564835 0.42819691979719154 -0.12752208881409008 -0.16976865618812698
Ni 0.06665952895828164 7.15914339098916 6.446675550447019 2.076947418099391 0.2330576460547599 -0.07486872428443235
Ni 5.344123602057691 4.304348200182085 7.677667193208999 -1.4876269193835798 0.1684854186003292 -0.8938285874020735
Ni 8.266496662144126 7.23483387140532 8.923003819958732 -0.21781383252181197 0.5953106548609748 1.1250232121061656
Ni 4.7461860483373215 0.36317728091013374 10.369660246028522 -0.6245055312573761 -0.015606853299321505 -0.13351841560684105
Ni 8.06262874066835 7.107409614601134 4.401436373059737 -1.0759004864375858 -0.04914123761134117 -0.19933505699133414
Ni 7.355951344383919 5.903603386205625 7.118279061602989 -1.178645625417312 -0.7490430835218455 -0.7160136638707024
Ni 2.5346737332311404 5.1000374562437765 2.6633847554259282 0.8727164880138066 1.3894246625795297 1.0402724528213312
Ni 2.4026124022760538 5.148731272082777 11.441686453251092 -0.6605292576501528 0.4990904614839598 0.9003383634961334
Ni 1.2424091901135692 3.1771580521310967 3.4586257307380017 -1.244249893680683 0.3348990422732942 0.7572847547053474
Ni 3.7047590858052306 2.4707438166106095 2.418833087295103 0.3850494378754401 -0.5499957329742593 1.1192482572956015
Ni 0.9310446338206453 3.494021760939569 8.343732531460283 0.4497759315195479 0.14289394328447003 -1.2674548710422364
Ni 3.4081043087659446 2.8129707783579585 7.074357530100501 -0.17608277133161288 0.0026086412674406687 -0.07365567781293768
Ni 4.191597424595131 6.823903801250017 6.151840212482597 0.23606815074630957 0.5089573269757105 -0.13118153994354825
Ni 0.9265073792698624 7.449545831257467 11.50658008273821 -0.6221390879077285 -0.012340523843223908 -0.16785884075992383
P 0.33380400239927555 5.65928130315507 8.058527062554443 0.5219812500392044 -0.6732976130594146 -0.19416765385778173
P 8.526590242013205 1.8678334319025816 8.055007060473946 0.06661754001923365 -0.07544053762750233 -0.27399115104432814
P 1.5974039861668208 3.229708534338264 10.432070182374542 1.0461219696235724 -0.48765316618129567 0.793610328609259
P 4.237568887703663 6.275640110351618 3.864294400516217 -1.2971883935509272 -0.704115883991852 -0.6983812955009198
P 6.856953163397919 4.365065740580661 10.558682270614137 -0.6029334615135552 -1.9893154806120192 -0.17246188674957394
P 6.340450254355001 7.8912929343216875 10.055155002135546 0.9790614285296492 0.47906053941627824 1.2636092720439014
P 2.0418825164706127 8.339147182011262 5.888189425045706 0.841395566413338 -0.4125381302140121 0.3309410860668107
P 6.973469860262024 4.05950887011274 1.5890735868115835 -1.1834011378244265 0.19582190163175306 2.1825433962643506
Ni 5.37309850961899 3.0183904408901023 0.2598812363561007 0.18921905160325478 -0.7915483038739077 0.7073559881957044
Ni 1.43610458688649 1.006780486782313 7.1201384285179 -0.06654554913071765 -0.07190038568472779 -0.78029587088854
Ni 7.029042154000011 0.8024851559278532 9.494332190640582 -0.5239221758156589 0.2590373579479732 -1.7036888022112917
Ni 2.47833918072862 1.472166686056112 9.068183261271042 0.7811600186610482 0.35761808113736476 1.8793992778051503
Ni 6.327609823976285 1.5900264102672481 3.0180655734642663 -1.117148180233463 -0.21444054517420488 -1.7584918660941005
Ni 4.330727798140337 6.927480248135288 10.601859692370295 -0.9336971414622371 0.2514929699418121 -0.9287791353353294
Ni 8.166568167917685 7.487486353811113 0.13943799940374907 -0.6309065496877134 -1.1414651597122727 0.5658473552945352
Ni 7.483774879588573 3.7184706690576963 8.4740633535297 0.014614664589381283 0.8005075699497246 -0.2578664775683237
Ni 3.2406433178056506 8.519076548477107 12.303560641445054 0.34613579152937807 -0.5829325929115962 0.7220045913468146
Ni 9.218975286462669 5.023103768080702 10.270209070980822 0.28030398063623335 -0.4561144721430661 -0.15232269279753766
Ni 8.866113000048285 1.98651893644196 5.6927662417398475 -0.024121575638552006 1.4101140726080812 0.36576205040073784
Ni 3.659831191243378 2.492903767836633 11.348437705174314 -1.1498204736555038 -0.19944612864790165 0.07190295678788906
Ni 1.1029793577680114 3.3376951926468963 12.758875950517936 0.40626361005921 0.8836056241224848 -0.5197258783461243
Ni 3.34479145876432 8.301778353531015 7.9531248244379364 -0.5180744587856304 0.1920899453931466 0.8469707465082703
Ni 5.4789526582887556 8.122547724265988 4.328840300247211 -0.41855888248679535 -1.5630923967117467 -1.6022261294884148
Ni 2.9394331371973785 8.372033202995336 3.571756728256312 -0.05068029996368691 -1.0446245591424397 -0.4835126616503609
Ni 3.072964538626919 4.437199013429008 9.36548868061291 1.631058994559707 -0.8415205220269766 -0.27556595173061577
Ni 7.5044103132855335 6.227554286622421 11.355170990927677 -0.7802480483697402 0.9939892534840753 0.37384328474697553
Ni 0.44972087421176615 0.20544053390307734 0.12404127981112245 0.5999671797963797 -0.2513317617735994 0.34915812329546964
Ni 4.715913485974498 0.294529527007699 1.423958356454044 0.0391311616735068 -0.1501593665976317 0.38241842801049625
Ni 6.135547838841646 5.733683203278807 0.20191690201893936 -0.5060866902961348 0.18783014167552814 1.2086156894168412
Ni 8.0774020414857 8.987738645536572 11.368160243255657 -0.03647984009358878 -0.3732228775541573 0.5193111594062089
Ni 0.019070988327850567 4.648734895095607 5.503851296361631 -0.283794253177679 0.7075801883913686 0.1710197549864087
Ni 8.174127233999288 8.852392342286718 2.4706839248505394 -1.8581668507889353 0.25910189263732153 -0.14825392204480273
P 8.458041400259976 1.811507953909163 3.5992225449540207 0.5333871778833007 -1.847216779535335 -0.5487042678563454
P 2.059677628818783 3.423939327148177 1.4694742792056776 -0.0809280431046348 -1.861123362314098 -0.9221588018053344
P 4.485547997922151 1.3188437802760573 8.226709476988312 0.3611777734641651 -0.5902376112134415 -0.26121302544305336
P 8.575411100979627 1.9440320848284292 12.540196615286584 -0.6835290609794357 -1.2514996332645607 -1.4450517650255306
P 6.383762886296774 7.866564897019922 1.7260451346415269 -0.3103275235815172 0.0023844410717765384 -1.22164989689298
P 1.6398817632712503 3.2400988472595564 5.790093074206871 1.4534754703128516 0.026542526375218808 0.34265503206962916
P 6.818114264443218 3.9898801617764263 6.114492255373283 0.05544018324617549 -0.31394198040565285 -0.4309294882370062
P 2.506152551124919 8.539557715519342 10.270407802730148 -0.33083592794751415 1.2141201641748383 -0.6338023831782698
