# total energy = -340866.49848261575 ev
CRYSTAL
PRIMVEC
9.32029873331481 0.00000000000000 0.00000000000000

0.00000000000000 9.32029873331481 0.00000000000000

0.00000000000000 0.00000000000000 13.64119930643902

PRIMCOORD
 96 1
Ni 8.556127396198516 4.142266946252751 11.465987091786506 -0.8728167610370968 -1.3185095236262065 -0.25731343327833106
Ni 0.4195737499810981 3.3508337833806716 8.977355499196277 1.1482950381499126 -1.3545455913141575 -0.15395842862874776
Ni 5.651903685225596 4.840217513310109 0.9345463491866376 2.871219548662365 2.5302043661890035 -0.8465020344019679
Ni 0.853773844689219 8.027666460735443 3.635024602776895 1.045183259859387 0.5329354350578628 1.2130459572740528
Ni 3.518841487483976 6.420940170356621 8.355084825434623 0.3205108918724222 -0.4128188946792245 -1.4288108776866362
Ni 5.069366376789741 5.476132172317341 10.17451990444187 -0.06320722878610405 0.0428093818560424 0.1341449934472464
Ni 7.589398055651138 7.253885943573541 4.759769355206943 -0.17433596384383523 0.001058523171501403 -0.05360955779533993
Ni 1.4777333565726678 -0.358303970482912 11.650334211515213 0.5325096603743539 0.8126241507076004 0.1844062035956437
Ni 6.609816023216571 0.7121108968501109 8.217717603259624 -1.267517605959372 0.4745945332251245 1.8433475263879155
Ni 5.630877091391299 8.002371170103224 11.62898606737627 1.237286317878656 0.9306367573693586 0.0994556695951771
Ni 8.246870565517735 7.348580178217365 12.515664294544479 0.132164729792424 0.8078876644638795 0.9232515206488809
Ni 3.6761960901898503 7.386085060127479 10.442078650833972 -0.4607522280253936 -0.24417509612416016 -1.086432239206845
Ni 6.414881976211102 3.736964437618761 4.363069482259593 -0.3697079224223633 -1.345165178540522 -0.8604178731521117
Ni 2.5649741591224715 1.8851888542029882 0.5918110056278441 0.38941208571950997 1.5415725203620998 0.4581101624168562
Ni 5.131700534397802 2.7639345751600417 13.39904033988845 -1.3627600088041496 -0.788005837938288 -0.18190914820540285
Ni 8.648938930507887 3.9019803258440473 6.414937898003213 2.0432340850073456 -1.6433714933784729 -2.2381872108809007
Ni 5.364232666300239 5.711311269046437 3.300501374389821 0.0412032137111871 -1.010806325041414 -1.5391731668919877
Ni 7.654379178085856 2.3162433481047815 10.067137015167724 -0.04640224141362331 -1.1661855452770884 0.4737257574669261
Ni 5.761836608220075 5.917056862526989 12.55692805291442 -0.3466091316213708 0.1274809511635095 1.2625425213422836
Ni 1.8200213257945614 5.7023731026071225 9.876528518782155 -0.46649864359086757 0.632631245688304 1.3088951404648943
Ni 3.0964082698661928 1.9177166966150891 11.899149837250942 -1.214829531537037 0.24362102339290304 0.4931902939494409
Ni 6.889900319012 1.461488075963988 12.309094786660136 0.9866960622567718 -0.9966719425225609 -0.9321187412315237
Ni 6.698946039545203 0.6250518508893794 4.268481499020782 -0.405463739865734 1.6128568697293837 -1.9662668263226717
Ni 4.397223716792299 6.899229937996101 1.0514611079263614 -0.30490532412468135 0.2323210249990515 -0.4299964348997756
P 3.2904568884965486 4.269852514957407 3.907549204308583 -1.0377975089182772 1.9731504408163825 1.082725222668903
P 4.824028154493543 1.8434991581831235 4.810309606858479 1.538477426376544 -0.6411058588182185 1.8904640202597445
P 8.339272006684947 1.852921980154079 7.612375388000293 0.8506944752167607 0.5115471991900739 -0.5211325288856637
P 7.426935929265656 9.126212785590656 10.14841095173442 -0.13490089777666445 0.5214937688798245 0.7552785229085961
P 9.222165260557011 -0.12560593726387395 13.201761305733726 -0.3256261016118005 0.492958380444293 -0.016395153528571765
P 3.6687398512415177 6.695236560668407 12.310568325882299 0.016428320759352355 -1.5015021347037754 3.037552953916698
P 1.7382636657260944 5.152475480167593 7.575353297562085 0.03668887078060133 -0.5324980904101281 2.173282796898031
P 3.9381244441460894 3.9130621609810063 1.2631996534616363 -2.9066791750215555 -1.1571661153872974 0.03926177371410012
Ni 1.8124252823659475 -0.06313011111579506 7.147647586977961 -0.7035931787191625 -0.8041677924101311 0.2079081433723258
Ni 8.86297958981846 1.5017610865836695 2.3518515492324124 0.19337652541505404 0.523900321438788 -0.529772463948849
Ni 7.875111811852557 7.883919494110275 8.364783528246667 0.6173221261350593 0.0291478252085498 -0.6258990691707931
Ni 1.624332334595572 2.2328173545716252 6.888000842139912 -0.7841610102709011 0.6236411263745518 -0.12429278324351499
Ni -0.0950493380237384 7.7209633918944665 10.426404704534708 0.053332649984869446 -0.6813492797192976 -0.858052972464361
Ni 2.9716094704684757 7.1767604719517255 6.009248596973778 -0.5130834333289421 1.7970267889445053 1.061600524875146
Ni 3.330254563883274 4.038942115026232 9.56563224756261 -0.944822047730805 -1.0664156868756023 -0.29249743737863176
Ni 2.894204389886098 6.47819476518113 3.7827047354473073 -0.35758722789942937 -0.5133012057667031 -1.4868111083505038
Ni 4.0609193793264415 9.543240229970898 8.12802650495013 0.3394360109116993 -0.461866801245811 -0.33870710316547475
Ni 9.435963592101764 0.5631594754390076 9.147542289132229 0.0003802661575541838 0.08702181470719851 -0.23776096506770017
Ni 4.5886067299986255 0.821748366376262 1.4210445038783637 -0.8896055504596615 -0.4868332413831616 -0.780393829918985
Ni 8.934195992073722 5.410787558233891 9.190498613743442 -1.2489161888081006 1.3531314845754503 0.529938557213068
Ni 7.431232586959633 3.7727916657654994 8.293917569221978 -1.1218700111891649 0.42617320449894347 0.5972783201103068
Ni 6.13128392781127 2.5206934200680617 6.384708441246936 0.39335152998323225 -0.608187767933959 0.9341180310497397
Ni 4.918545303462343 2.7033433134061537 10.7145072532892 1.8883552014468574 0.08172122842989152 -0.4497062546238771
Ni 3.198167290913562 8.513542951504851 2.5302243575037675 0.09979402677120232 0.3474108015870597 0.3505071811241963
Ni 0.2954273714913602 0.905018710921372 5.157109532673982 0.029872619189716298 0.36517069667364205 -0.6275592304820353
Ni 6.48915543643518 8.320044230496935 0.1623074094273041 -0.27144164514959707 0.7467213773672043 1.891843417105774
Ni 4.328775443246605 0.31104166787903725 10.619100947825808 -0.23329855842097239 0.8810404344984698 -0.6430056469440927
Ni 3.8288066608648474 4.448280312991006 12.11734082556613 0.1636355467071956 0.6412385277413408 -0.18804174346570193
Ni 1.6871791086313304 4.099393572299838 12.927054822279782 -0.66959342473495 0.5173496648044638 -0.01742205213118935
Ni 5.124635747994256 4.392852496708838 7.999444596316004 -1.3260289719317033 -0.578107917829443 -0.8252649794000625
Ni 2.365706173228283 1.6844575814151892 9.153340446944428 0.40762166674900124 0.026192599234967796 0.7312618482790245
Ni 8.182187692640952 8.54499895956813 2.7626157528960555 0.16999594170758464 0.5099130060207605 -1.3515939648850013
P 1.3269868456347533 2.699372866166167 10.91698328599091 0.1250736272735975 0.6106560269687935 -0.9651551028612022
P 0.3715546391239676 3.3833336648967167 1.1769421531878508 0.3238474124448229 0.14332100351955962 -0.9511212504759556
P -0.02232304738143927 8.150237708747346 5.835500520910127 0.41789785186402867 -0.023720483545391406 1.0141307614289568
P 2.3932756167397424 8.722513368330558 9.558115426672822 -2.024957912405977 1.4180682944581513 -1.9519812629379352
P 0.38485843346753 5.819417413498574 11.703126247329145 0.14787648410072596 0.7608531887828961 -1.2377830550094167
P 6.391469385913336 3.886853481077617 12.145455506550686 1.0052368013734365 0.12568657826724805 -1.3653290550829067
P 4.86007906980873 7.315577000572309 4.678685552733432 -0.01599611831794019 2.48426903710947 -0.22975352138219138
P 6.584091998844824 0.7782141832465534 1.9004508433003564 2.2251550602872903 -0.4798169579663285 0.814386899034978
Ni 3.7025632151708914 2.324594335726914 3.209828848628754 -0.9245787241007367 -0.14298058946100536 -2.0673399769166134
Ni 0.9159709939066041 3.670445465900949 3.478000870674353 0.25951224070186274 -0.8825473580612995 1.349623985642824
Ni 1.1905935946723791 6.7326575598903515 13.450017713548329 0.6306170434717526 0.40301347855302855 -1.2541519832857433
Ni 7.321281023367783 0.0268834695282132 6.210170003854761 1.9671821390480895 -0.6591447185978003 0.9281749260924274
Ni 3.123185487989392 0.46265589862456385 5.160792914714458 -0.273437078313071 0.32048363817891257 -0.5921268578163544
Ni 1.9910674472693113 4.873015644384088 1.815520553559374 1.069514380405584 0.4712258738632078 -0.8948284894214976
Ni 4.451290769466395 5.486244696391017 5.450518127470081 -0.7304144126770646 -2.7753770503397432 1.5077159768239712
Ni 8.015447549158862 4.023228091442621 2.531819992638711 -0.734748007055412 0.42848359779967493 -0.5865053978645189
Ni 6.0185083137177395 7.986079288001118 2.904456718440055 -2.4799295291938517 1.9125528817389836 0.4364781859693773
Ni 6.575219074496308 4.98952869825047 6.1664764436175314 0.43870758952052835 1.1818096249675905 0.8052150027277228
Ni 7.148296279766466 6.160344619112396 10.864083134712224 1.7603052651537554 -0.22130179107041242 -1.9957455525080792
Ni 5.729252844015861 7.784835398785621 9.231818293905496 -0.8128138981209033 0.3857346368679228 -0.1920110125260951
Ni 8.23496854409646 5.3717075458459425 13.934075814044213 -0.14732421114168176 0.463362411954731 -0.8690845476881742
Ni 0.9874670051224282 7.12572251635039 8.103268063522192 1.049229919124935 1.60653529838673 -0.002860609377246686
Ni 3.720448868348204 3.2835785080667117 6.457716204909534 -0.18506209201208773 -0.595065114509072 -0.4641915927242457
Ni 7.704736751883158 3.125133430414644 0.19076973755282672 -0.8708982038581453 -0.7210998201443581 0.6041727332372949
Ni 6.000128684710099 7.406748162313045 6.603581675425897 -0.8330680203842492 -0.06874872742962354 0.746710835844243
Ni 3.456964024511501 8.742999384841102 13.134373682178433 -1.6383218467697074 -1.149813531676968 0.8628881890694753
Ni 8.542249471455932 6.157399404727805 6.949086079724127 -0.18854619390594624 0.4702138876589257 -1.3175445886097759
Ni 1.591757890690044 5.227876696532607 5.554027500610571 -0.4532698036054194 -0.9248751722952329 -1.6992834740547442
Ni 8.987107327710826 6.1961345660643925 2.2957051379215994 0.5374289520528422 0.2834245285430861 1.1663164144279978
Ni 5.765117353357341 2.9960006921282085 2.009662375176584 1.0453946045392448 -3.1008717685800016 2.208754764552396
Ni 0.26608054702059164 2.2197689364120428 12.65495429433828 -0.21258138047827904 -2.4038963522876724 0.7989111719968822
Ni 1.3978770374360256 0.038582308438147056 1.214363152409795 -1.2210472303119746 -0.9195730433560291 0.3497327648520171
P 4.532479891315052 2.3600207910301796 8.509857705404638 -0.06334272592270382 -0.9337722176745468 -0.04095304537359398
P 4.993685551464165 0.6555581205166137 12.817939289480016 1.1714326526086405 0.5258201641693202 -0.7367850920900988
P 1.819704435639257 1.3193162398166562 3.381230073483418 -1.0218903507697177 -1.7598890035519432 -0.35120163608805965
P 6.891838941138566 6.5395782523232775 1.7560859408723464 0.225381874677057 -0.7077822770998455 -1.5063676903261929
P 8.639059413901345 5.395949642726708 4.396626285646563 0.5348105405933886 -1.0716805348189673 0.7656804349682104
P 1.5832298173928885 7.071208089339392 1.7557858272546758 1.7665196214945837 1.1191824370546726 2.797164064307847
P 6.4201479449683605 5.919284413912804 8.340270210674156 2.017651608552551 1.439057752225625 0.3882296353756346
P 8.299698018466673 2.6060300748317284 4.123884521155505 -0.6082147645171525 -0.6782259035989674 1.939685733400034
