# total energy = -381175.32960826316 ev
CRYSTAL
PRIMVEC
9.20819389730710 0.00000000000000 0.00000000000000
0.00000000000000 9.20819389730710 0.00000000000000
0.00000000000000 0.00000000000000 13.47712254720921
PRIMCOORD
 96 1
Ni 6.677165398797139 4.782864920574319 7.256635210698161 0.9714440211937077 -0.5653971551309941 -0.3345401162719787
Ni 1.8027249880837186 8.403959618485981 8.871194436006968 0.29991584132988997 0.17751127624802332 -0.49130130445684417
Ni 1.729575094301413 8.938495284908795 2.2764211953915936 0.19900698422795404 -0.031163312976681814 0.5101611174758246
Ni 9.24861805337484 4.2250509395138325 2.890614186354008 -0.4465101162840826 -0.13330090027939623 1.257720674473608
Ni 5.776051525995476 6.676309036747573 6.431795571930609 0.8879420467143095 2.1376362513390155 -1.202485151039071
Ni 6.636004771253471 8.522828195882228 3.8664783370693154 -1.1107106521382355 -0.6339990725701081 0.6178705424393618
Ni 8.101083698761965 6.323773326342794 5.325268988839651 -0.994476477533139 0.18484329113306233 0.22335558827564758
Ni 2.89698993993594 6.270651254687441 9.311559743198554 0.39433729093526926 0.2470632163052326 0.9380749588149586
Ni 3.326045743156801 5.730148678499908 5.0223847817409615 0.9140611123988645 1.6184976129549287 -0.7299320737240074
Ni 8.262484924620003 8.141295882315255 9.97118412211957 0.44836773831811166 2.0404904608239374 -0.16887648339116076
Ni 1.2292386606967622 2.0059498314592825 2.803551632134179 -1.999877829508898 -0.02073980365051267 0.3179996954147942
Ni 1.345980145260215 2.742734272685036 12.198467631434815 0.0555823652509946 -1.1720201496809943 -1.571736702650306
Ni 8.481722817503048 1.6188649768612495 12.797067466539858 -0.8739452182145852 -1.1936600965482733 1.3328328822274143
Ni 4.011872038336321 2.184911083430469 11.514273949065919 -0.21976761381407314 -1.4645332707889103 -1.0537882279195787
Ni 9.159188072456695 5.143043432066625 7.341555018155258 -0.30516114888922924 -0.08319472765162446 -1.7775002888758034
Ni 5.906522427934233 3.762928511346816 10.388260985659993 -0.2246452536213486 0.11644063418894786 0.4843284726834369
Ni 4.1054825393674035 8.547496947826186 3.3205613427619447 0.3933098781120194 -0.26406412173860333 0.609983426381801
Ni 0.5794652078039818 8.501796680600409 0.1961446629464081 -0.3118401035713016 0.39734651007523825 -0.41331331781713976
Ni 7.762608900719419 7.889396525025633 12.344370545834519 0.6818748132054644 1.3345205543424823 0.198814922821806
Ni 3.023446069255225 4.388008350171619 10.959205851480494 0.2717800023256222 -1.0103952056459244 -1.519032430278055
Ni 7.536805565456366 5.802359336485915 10.331225431520064 0.26202960780707774 -1.1123965244810907 0.5794268937511827
Ni 4.197803893227095 5.372907580919556 7.207349272697103 -1.5659735749142836 -1.2082649909456415 0.030501768133282953
Ni 9.141038721922339 7.869460784839494 6.972672921617254 -0.024592087517067325 -0.6852270175071489 1.1200373288558
Ni 4.536849599302685 5.98686392129408 11.33062112221028 0.13616125254632677 1.0458052097141022 -0.6933085089637027
P 0.7482808715363285 7.933347235375954 11.333518940887682 -0.30948728706840894 -1.318705955907729 0.01659132869977788
Ni 7.247290735344399 -0.05462853220706257 6.1148136196933605 3.0309855851118255 0.5715446627896286 -0.7370925960281886
P 0.65295948804493 2.6911591776353516 9.98507928698834 -0.2688689993264144 -0.28379373895704674 -0.13359786269452475
Ni 8.859894140230326 2.699704381742851 6.910691646436227 -0.20114537072719552 0.5341752210022349 -0.5805643497897356
P 0.7512247311841385 3.0376174799464346 4.7835426436587065 -0.879799363002517 -0.38692840006570783 0.7056271784300557
P 4.411737866319278 7.780868749582752 12.668495294220676 -0.2867340525322932 0.6282719402783438 -0.2290323269454507
P 5.5409939556806584 1.4166622430287166 9.722126413523457 -1.3498175897108688 -0.7144720304151954 1.6269917664688687
Ni 5.140400680365274 9.12571628697096 6.233344256366821 -1.7599962185537688 -0.5094070129186195 -2.0862226727537294
Ni 3.4018015558641306 7.5869625986175215 1.2636146908412866 -0.577529933838786 0.4383561197183805 -0.8626120525899531
Ni 5.304352575983848 4.433146917558435 4.8262787932096956 0.6060264986165821 -0.19072443250418766 0.5948758813164013
Ni 0.7496059306646359 5.074276638667045 11.221429435974134 -1.344529344728736 -0.5758772287267115 -0.04855014099456155
Ni 2.4889656519969 9.575969352967107 12.446486655738552 -0.4506675900958819 -0.3373369622908255 -0.21310125753749104
Ni 2.289783205823052 3.876060383830376 6.678251044879331 -1.6401475871245363 2.1902667330505374 -0.128707624481759
Ni 4.053410201837325 8.892297775202625 10.447478881797203 0.5424847693091948 -0.26333727087490777 0.2906740110166478
Ni 4.16996752251915 5.654346824822172 0.17533322350313157 0.6521127514516835 1.4540452267733925 0.9643925136635648
Ni 9.105182014169532 0.8305956808878092 8.443659826448348 -0.003190739023155795 0.3202254994215195 0.35068741545580245
Ni 8.462625022978312 -0.4245355007463226 2.4112457314920164 0.3817753951098586 0.1515585609380035 -0.9058844901253432
Ni 4.291082899271249 3.020545488119597 6.493925099036345 1.5823365896533395 -0.09610089419033126 -1.4127252849786829
Ni 6.092758153229692 0.7316923098987627 11.791484790246376 -0.6399838293986333 -1.3486446524486904 0.15113355758544295
Ni 2.4507332301711027 1.302195182403359 9.772733727375188 -0.5353764403991876 1.1254713553871778 0.6106742818012386
Ni 0.6176386971876583 0.6995087507650094 5.867628857773394 0.0446250949085425 0.32619045875570274 -0.06150001628701021
Ni 1.2739812757380793 6.254785536285262 0.7525893855469957 -0.4664513352926999 -0.5127659020885234 0.6621781061074854
Ni 2.2531161769910852 6.685673770128313 11.934234818992623 1.4138599128037586 0.37239138279179734 0.6746487277706703
Ni 6.484686517914519 5.952001698502059 12.635880791603915 -0.007276221946439082 0.08912317732091747 -0.4324161000848617
Ni 4.948244086275502 3.9153793725577737 12.500907082759376 0.7058974013723069 0.029765404187890674 0.6080669260853786
Ni 7.030750843327192 5.3732482841005655 3.053255755954804 0.4919199118774496 2.299918112231794 1.341617827508896
Ni 2.414572652013611 4.443229890077522 13.08085479993322 0.07266888841963613 0.36857997946550713 0.5004929982584413
Ni 0.3161182236324173 6.509502600963779 9.107947234852164 1.2211588161891742 -0.7844536018106554 0.38392638001459045
Ni 4.683241468808109 5.288311901894122 2.4903699015943066 -1.0136404520560995 0.0419478051866955 0.14717303027579817
Ni 2.070223026147159 1.8826060717394963 7.530342334030661 -0.5263888921885966 -0.9352148636583443 0.3993437430109252
Ni 7.770168828060214 4.071937088329017 4.9475194014012995 2.169664997639786 0.2915592418350785 1.1964826535987327
Ni 8.328222222166815 1.3998388724420758 3.9232035750687033 -0.046829815869345155 0.32570323470663903 1.148243873197003
P 2.113262125283425 1.8222463595361966 0.7471712841495249 -0.11458069816207363 -0.9217283991361351 -0.45273707103040095
Ni 7.535009967610502 1.9239600713588736 10.453395146494477 1.4290880426074228 -0.030611040017637602 -0.5919044573929032
P 8.648059635388693 5.234738628728783 -0.22966525186077444 0.9652198946608667 1.9992697636112537 0.9625935127816132
Ni 7.72165085344554 6.839966270155542 1.0674341159379612 2.3046743959698563 -0.5512509455375991 0.09755511013835458
P 8.771578350796025 8.250624770643215 4.743866377000953 -0.12244236029833751 0.9706420941177026 -0.862054123203954
P 5.30253856174982 6.539659436580225 4.17510477399714 0.8496565208705495 1.159188802244281 0.3345604279869529
P 7.349649020752771 6.832249803515365 8.317999285097692 -0.24853800107854615 -0.044562874212039374 -0.43771745769311715
Ni 7.8275082526048285 3.684732527207927 12.28129809965485 -1.0068391128635499 -0.01350111981022836 -1.7551224354012354
Ni 4.300420008069746 7.741439262526378 8.188565225812496 -0.1981163540928846 0.9683841513214612 -0.6318146633242796
Ni 2.4035412355041443 3.9992291878626167 1.8946945889295026 2.0723207179606566 1.358149506615332 1.1216632944949974
Ni 6.3313792946539955 2.7261042741741037 8.310533281336527 0.17286580705621196 -0.5027226589199083 -1.8160064153708018
Ni 6.744910082653687 4.55194182940203 0.9985549825705895 0.1637571598867244 -0.9655181426275757 -0.10932227797661172
Ni 4.390678726455214 1.220398794378659 7.827175836798491 -0.05421582392077115 -0.3168303576970415 2.4645057384396134
Ni 6.296645986579114 2.271440483212987 0.09364917544622389 -0.7896641994773174 -0.2056517432379813 -0.014395349489723593
Ni 2.8675513434578392 3.542254140187079 4.384310339428546 -0.029116200639665985 -0.8924563896448952 -0.597326656849739
Ni 6.679329324406258 0.021812370139920073 8.283187707373118 -0.4208623338089913 -0.5747228034072941 1.179279402346569
Ni 8.153588821413866 3.9223776000596056 9.170643065893904 1.344327256020259 -0.34261569419126153 0.06227571811077017
Ni 1.70120464833675 7.79062022711491 4.7622892108995245 0.47568750917898717 0.3002277161433539 0.3284705130391311
Ni 6.5371271832078515 2.308844167571462 5.6465097308395285 -1.1942810179617238 -0.8731016392673674 0.4765634840260373
Ni 5.288367151058611 5.683978793375981 9.102341286295433 0.9447186893837213 0.29354207659306225 0.6007050864036686
Ni 2.0552689189590345 6.5519247510965934 7.00943847812589 0.12587092636391226 0.15169971450155809 0.3584560036576278
Ni 2.703249536464174 0.9120329493433366 4.607423961200435 0.46613380405228105 0.3014621027710872 0.42720627374914816
Ni 3.430558745980211 1.9692091370746652 2.585020007737174 2.740333428472048 -0.6237079750567452 -1.183534320968181
Ni 1.6552649680648566 4.433036419229459 8.93682860178007 -1.2695642040757555 -1.1673638818559058 -0.03628263648111816
Ni 3.7950098595262665 3.436037621458618 8.746733722345112 0.5936605208520614 0.08857784634040873 0.7758316644695993
Ni 1.1283905191177328 5.25614767996794 5.087425018995815 -1.7408070472198278 -0.30267874878700773 -0.45640217858681403
Ni 0.5559244596349909 3.5609559823663166 0.8032878605201349 -1.8985959053382593 -0.49815740814672915 -1.541086581864617
Ni 5.753933443812055 1.0854803346986062 2.2013127187281833 0.4923695978203585 -0.23203280433467136 0.7327597729807896
Ni 6.61267120745131 3.15675309497104 3.277744161103039 -0.7702078905249188 -1.4296991938288603 -1.2467289513487947
Ni 6.190770171031663 7.559531388449158 10.539675925036796 -2.3358906736716607 1.2046240517589448 0.21112433631677835
Ni 0.3759217609132029 0.6903825096109758 11.206806823772938 0.5452029395713063 0.9949554740520866 -2.0094348770697135
Ni 4.378634408596797 0.6750591538401886 0.29143105530029734 0.06967818122242839 -0.5276636451359622 -0.09579647557603502
P 7.218865040215249 9.402671140355954 0.6702911509448615 0.1597143572759185 -0.7563794692822586 -0.8000851377003253
Ni 0.1371339511760274 6.634503835618209 3.12193507151061 0.3282401421958798 0.08112678937900222 -0.01279920864719731
P 4.9841100022223905 1.3094328229513061 4.279215378739195 0.21106802915754616 0.13627412397510721 0.32963239455771615
Ni 8.06863402281926 2.032966672893986 1.60931700041829 0.44051558926354456 0.15083042452272735 1.0716627942071542
P 2.9321007839681568 9.31298333000353 6.672375296236016 -1.2849067479700969 -1.5717017356473124 0.21947913603937685
P 4.777643874530188 3.4533121935552455 1.1849665843730026 -0.5371564151177458 -0.12817257791389539 0.5817360015003336
P 2.4673356040997905 6.63016677620589 3.0111264263937763 -0.4586338961308101 -0.26769091985791316 -0.19492510084909656
Ni 5.783160251826284 7.774865007041707 1.5898554822273405 -0.8666535696491784 0.5584371788733931 -0.2976938939779067
