# total energy = -340888.6559647287 ev
CRYSTAL
PRIMVEC
9.10911025915140 0.00000000000000 0.00000000000000

0.00000000000000 9.10911025915140 0.00000000000000

0.00000000000000 0.00000000000000 13.33210362724838

PRIMCOORD
 96 1
Ni 6.675292746341401 1.8921535238263165 11.147038851255001 0.7857995743155887 0.10081166940243928 0.2715180069134872
Ni 4.9854707829795055 0.4679942110661067 5.736884033572802 -0.38985174436008985 0.25447339272637465 0.4471004415699138
Ni 2.9673200439387166 2.0582308248522185 4.808863350317693 -0.2521560574471077 -1.6893466745570067 -0.3500058160077456
Ni 3.546796102778271 4.367618041975509 4.240475811582286 -0.19687296860408676 0.47937832776701317 1.2808271785840843
Ni 3.789599440801824 2.743682274221356 2.3907926041394254 0.7724100403825601 0.27380783138892845 -0.3010286147780945
Ni 5.338293956555431 4.898223723456355 2.7004577234958123 0.6541986874464346 -1.3988498125481716 -1.065473377566991
Ni 5.5570674613129505 2.730665355443053 13.345703009502136 -0.4860536829046598 -0.7409952735167045 -0.857331263806988
Ni 6.010600959600502 8.104503060824893 12.432293339347375 -0.9728046489866601 -0.3589607112081883 -0.06027334296876072
Ni 1.9025834552476997 6.799131102388304 0.23055613907503808 0.9687423059918285 0.19109929934510314 0.486546306270362
Ni 0.942546981628629 0.15818061321000945 -0.023901394809229072 -0.8441044807040688 -0.02419768029212607 -0.18353202852080647
Ni 8.159321687282432 9.039535026363877 7.235452936552971 0.6995177230982083 -0.9615948963137697 -2.298026037415404
Ni 8.734680428215905 2.5162095690206736 0.9651120699404634 0.23129592616864683 0.2253502501081732 0.9308786981768356
Ni 7.253794130366905 1.1422186818528377 4.775906588848204 -0.001182450343875383 -0.4754103442582006 -0.2253844457802183
Ni 1.3463629552891854 8.000932475443996 2.806447688602053 -1.4247205096673463 -1.4245523595205982 -1.530466126036293
Ni 7.680765462693973 4.148999392094988 3.7856105613525455 0.6504317642048346 -0.8173387825744505 -0.21325835194064563
Ni 7.961653991348796 3.8923502062456685 12.467517358398332 -1.4461023177772319 -0.2950158329251113 -0.4712904085525561
Ni 8.524760978778545 7.287069710700803 9.205738033113462 -0.5173962017716831 0.5028506998573404 0.3209693195660795
Ni 7.388927783324302 0.6658878129379538 0.2191588201279336 -0.5574779002839173 0.1411273383023505 0.22636146498150694
Ni 2.2859768033652506 7.02792462859868 8.954040559683936 -0.6641851092351851 0.2882859704004454 0.545318639213564
Ni 0.5683173985852364 5.057551173667196 1.5396582782252124 -1.9536643070673128 0.016768477707590476 -0.5053253866500781
Ni 6.5196727040681175 2.281841267238344 6.882912145399808 0.26018972638486154 -0.0742028085656593 1.2284810608822003
Ni 3.6625546778900064 4.130744734829965 0.15652548784820566 -0.022849393794347743 1.2109278824897856 -0.001266268306933303
Ni 6.345433640113342 5.96732357603457 4.681475173943355 -0.317691420145756 0.345197853096141 1.4095664276347273
Ni 5.2119050495932555 3.4259728622776366 9.083041959512183 0.5751413790019515 0.5368892774992884 -0.4617464736178628
P 0.3159440291631635 5.5008642500728335 12.156198935502227 0.9648632826523963 0.9352344040423698 1.6496069327652234
P 4.166060755896081 6.2765960927322135 12.79541982770996 1.0274652737543337 0.3897275600773997 0.5871209199613308
P 2.6768851675724448 8.793042498623592 1.249008426853225 0.5205560875569035 -0.3636468038299479 -0.2412152421648878
P 6.718715875673919 7.990912453991139 5.9622370487806835 -1.348146372656033 0.35945384879452286 -1.1841035632080896
P 4.83172721745103 0.8103255112698491 12.507152919621673 0.2424984797526856 1.244300030192328 -0.844068742370127
P 4.272391401731719 6.546918053309477 7.9195899412897015 -0.16442873203245228 0.5671866429312491 0.3220090736845035
P 4.904736737400713 1.50231092553729 3.746481466668097 0.5272553539539501 -1.9945211931826747 -0.34325409910620885
P 0.2706990777483075 6.183173056349938 3.5101829443895305 0.7039137952833747 -1.7309358108527029 -0.8501504297878326
Ni 0.7656280173907355 0.5327900461575695 4.409539989912181 -0.12123471314348153 0.4485893674106145 1.5298012387587845
Ni 1.9505702488964738 6.912758145663704 4.804330656976837 0.7568247843497934 -0.592260040960109 -0.5807456125626063
Ni 6.0434028661929915 5.856074010576621 9.256199772061091 0.4887852229032098 0.9156230575693458 0.25502823678858016
Ni 8.992960144828917 2.714405593358189 9.920005242358933 -0.4504984115078693 0.5392058414476069 1.7374453298364465
Ni 2.6527278067606472 5.362496862919287 6.811452085131155 -0.8532455237733886 1.0754086344028317 -0.8066566202702559
Ni 0.5143058393101715 0.42150768790213755 9.21633648307746 0.9547094820478461 -1.1165961643847349 0.40122424786308963
Ni 1.72562076727983 1.4715130232353717 11.263321200215408 0.07817053496415569 0.7187125508591042 0.7964390563073057
Ni 4.47035058919853 6.999886786751504 1.6289293820818405 0.025490430961620618 1.4210338048443785 -0.5258155361836299
Ni 5.726861279386822 8.192387758076862 7.947867352740705 2.0321292333434355 -0.3931746380857358 0.3581320446593058
Ni 5.583028425986262 3.0973981406176256 4.867017733007993 -0.03837268624092746 1.3655141745105193 0.10504010566149008
Ni 1.0686079606159842 7.7536201277666565 6.894924329299701 -0.25457546552187765 1.6130304191927705 -0.270015968446664
Ni 5.327581642711286 4.898770270081057 7.099038542671691 0.6992297595441442 -0.22507719895244466 -1.2739957574845477
Ni 1.1133519109581973 7.444721084595892 11.152331244404193 -0.39169111156167385 0.37287063642106105 0.2047045488333636
Ni 4.81332681441942 0.30966329753430444 10.150317257274937 0.25449858953735527 -0.9983542153209903 0.1322071529945852
Ni 8.4579365447984 7.676274671261011 4.731763839793162 0.026978328361056764 0.41666500789819205 0.2968626563258629
Ni 7.731557862349547 6.272223719734603 7.030618192547417 -1.1396124227742501 0.9818796147047347 -0.2752211667966873
Ni 2.6931631478781317 5.491217702146855 2.1454022787589526 0.9049380670516737 -0.23744394804791363 1.026929970076154
Ni 2.583097766773702 5.494724709655355 11.56927982254528 -0.37109348991598023 -0.953811652823925 -0.29748640595279086
Ni 1.236944321023985 3.74921875434681 3.7082177374727587 -0.2884456359067613 0.6206308787933181 -0.32678412647564364
Ni 1.4143169189603808 1.2314424183353252 2.242366937269293 0.4697935122920554 1.5601361422969002 -0.16104181783809038
Ni 1.3221600489253296 3.4287055954011434 8.034498636400025 0.17119099045695033 1.2625337795915355 0.11710783545930152
Ni 3.8177101555322945 3.0915956372853803 6.901136742600472 -0.01720582235532521 -0.8173004731373472 0.39517521345553236
Ni 4.235472177233146 7.104313628511099 5.66246442333139 0.5547039370832061 0.9746067351924055 0.9655124862006211
Ni 8.71442176666031 7.1637505739473655 0.11077498080550091 -0.9325303748476457 0.353847558351339 0.5317838379519229
P 0.6234348038642803 6.0490687328690615 7.870020895162416 -0.23874466913720815 -2.8170111809407614 0.703716334560588
P 8.779743197422526 1.9150356091804777 7.922882884703527 -0.6795569637055651 0.3228791349942826 -0.148468352048454
P 2.2826064325129263 3.584844856967893 10.5849839660778 0.26409857452096447 -0.9910831355808738 -1.1050174584082
P 4.149054046757458 6.380521933419167 3.698871790190367 -0.2032811861232757 0.5579000754230005 -0.19434634552749108
P 6.896753438670368 3.9849260953596577 10.25685376900588 1.8152091162804866 0.07037572151008525 0.2971519054315076
P 6.622432578622374 7.964277415147362 10.276292610624422 -0.7996704187604099 -0.5507704063567547 -1.1524298862538926
P 2.421775421382701 8.896467338237901 5.6315071115972675 1.8131175238587807 0.3105177852154523 -0.40966260843842994
P 6.762193659668908 3.8800437980794777 1.22005238667655 1.3883113749106928 1.8018010704046967 0.4700148842742421
Ni 2.859258667124857 1.8385190817222956 0.19221133879703597 0.7573798855223149 -1.5293502672642951 -0.3828480593487471
Ni 1.6470820173102532 1.266548929861972 7.003594194689061 0.04437312679873648 0.06575133536419644 -0.4530219492606714
Ni 7.162739462691668 0.7691869468285821 8.956014503910149 -1.7128995221762822 0.9575533792545444 2.3956955616444353
Ni 2.9168282449267275 1.774491144638538 9.205670625696415 0.053390756916314494 0.8086736507002846 -1.2757114546240738
Ni 6.553148684831072 1.9931371218502936 2.2930154129803624 0.10121661815034179 0.8725385676750456 0.8479174266922558
Ni 4.101540926850092 6.971156652513038 10.587676619115497 1.098696658396495 0.42076643166107536 -0.45494359176341653
Ni 7.567001782762397 6.2039053916469395 11.468875563943488 -1.0856387967712722 0.0461520730760302 -1.1260125726026284
Ni 7.950549985756947 4.195601600961186 8.21937531949357 -0.1268993676284266 -0.21582791244003474 0.30916667050419655
Ni 3.0771850246140895 8.47822253368523 12.219072748296822 0.91458407478187 0.605132526047403 0.36729725609834163
Ni 0.702964625046649 5.247503453082134 9.99343833594276 0.11831085462846723 -0.7383778904985154 -0.7457788109482769
Ni 8.82557113190373 2.6819498329613434 5.912135119694316 0.7831878477243545 0.683051607122385 -0.7066098540582992
Ni 4.369530955161963 2.5149707300046846 10.997279610620598 -1.5367352468744566 0.4318759113106756 2.0900777848337615
Ni 1.2795931759715098 3.539754760430036 12.648100006843809 -0.18219634042851848 0.27378314879858007 -0.1704489700846032
Ni 3.5558778858587243 8.64704167694505 7.729900915165661 -1.742345081130909 1.4329331273851258 -0.33903029083284836
Ni 5.925285031484629 8.302070556544 3.66526190550436 -0.20528767503034323 0.07144350065296728 -0.22271846891228095
Ni 3.3686401213464703 8.896585756673254 3.4513617748170944 1.1606882696079428 0.3055977222060156 0.880783067072025
Ni 3.367510591655421 4.875833530064425 8.9380823091537 -0.14565119431463303 -1.0704829149664403 2.0292498549131115
Ni 5.330022884301618 4.797486071413494 11.454410296609725 -0.6751220678626632 0.13224957619674643 0.9299952671306176
Ni 8.192897868259916 0.25294542155592686 2.5920811714617087 1.4455492734872395 -0.11331622962735324 0.3576954713425195
Ni 4.880898195453324 0.45434967458043873 1.37191309908293 -0.24041357219919884 -0.458483743706191 0.12517749984131346
Ni 6.445451672433681 6.162103683967702 0.4669266233258568 -0.5035320421950812 -1.2968096700552698 -0.8363628890854369
Ni 8.170462129315927 8.84775181575619 11.480781171251563 0.5837108658385173 -0.7481449971876083 -0.8404542855459911
Ni 0.25278327939059886 5.298159216081532 5.573726202433846 0.2621077693431808 -0.7356509784856555 0.11773415618939079
Ni 7.470408775956854 6.246162554846763 2.5608842901237585 0.40281730338182237 0.4254697506740156 0.0608325579063404
P 8.828340301468883 2.2464614823993467 3.4177245627998527 -1.4322929226979655 -0.9531362240234554 0.18713594382198093
P 1.9466897678610948 3.359312392284901 1.508260996458205 -0.5240237343905298 0.34250359409342945 -0.36286133181417507
P 4.9075423434075125 1.5523563781391059 8.280356259144618 0.38058240324302195 -2.0145696271931173 -1.5383059337956861
P 8.827985046162828 1.6621302677103622 11.99636046419729 -0.4724358350109089 1.343039647557087 1.2500436175443246
P 6.883608992346303 8.126246507377592 1.615917928769785 -1.6910783125361326 -1.082469655014671 -1.575605955797725
P 1.8923539242553737 3.61552434083446 5.848553529020731 0.06696746715948468 -0.4507629780231657 -0.2734478769463484
P 7.2346649985023594 4.296284598341577 6.067254160894956 -0.5066736731478565 0.2803525744859817 -0.8047516899380592
P 2.489528984624839 8.977829912435102 10.078443643393594 0.6666518256081229 -1.8156654870916151 -0.35558202454394244
