# total energy = -381163.9062657789 ev
CRYSTAL
PRIMVEC
9.35367550475149 0.00000000000000 0.00000000000000

0.00000000000000 9.35367550475149 0.00000000000000

0.00000000000000 0.00000000000000 13.69004958521840

PRIMCOORD
 96 1
Ni 8.817167361326323 2.087038841358581 7.604685952888381 -0.01890763553778034 -0.152981152317143 0.3591005792201622
Ni 3.9358769829567697 9.005709397966166 12.98156211918713 -0.07110900013168397 0.03355135359288416 0.8622664963250762
Ni 7.757283685395685 0.8092107852859087 9.875850960692944 -2.541461684270378 -0.23562026457561355 -0.556027540990636
Ni 6.651875670906427 7.51213320475404 7.455080461166963 -0.11050035744511293 -0.4521734852174471 0.08410566950166806
Ni 2.435846753663804 6.791928253860655 7.7294153446721285 -0.6193898072973656 0.24049353350751485 -1.1996710786290437
Ni 1.078151404142059 9.194924899240531 7.388040798270446 -0.29606715700776104 -0.0727673616707134 0.8672030143947452
Ni 8.016801411573809 5.3495821412496305 8.780223149285028 -0.8316441434535291 -0.12463396863301761 -0.3139823467252851
Ni 6.58368737666103 6.9567213084581025 2.7159958818470127 0.6973076028207669 0.3125211887987263 0.07135042671852873
Ni 3.9281040786333237 3.7629088159902584 5.289656883922806 -0.5289646233355728 -1.184336505154502 -0.26028794252562265
Ni 2.411863929734422 3.318450218231891 1.726123531512722 0.201628223900885 0.0224110207053485 -0.6181268814245419
Ni 5.414880149771868 7.78141616813274 0.8821619710854555 0.5121699203757373 0.8872406497719106 -0.627800399958564
Ni 0.50367858795404 7.098092759654936 9.183381528331306 0.4345277471112258 -0.557091463478776 -0.6058259525700018
Ni 2.139662619606126 1.996298835532163 7.59760802665306 -2.206934423514206 -0.34325769865063466 -0.9658690982090914
Ni 4.330639502892669 4.418788540611272 0.2266273970896343 -1.040499995451105 -1.0781257762236787 1.5918959512070003
Ni 6.67692481384047 2.774496574398314 8.602060886324763 -0.43297608635338974 1.0886621569786283 -0.48354634310177363
Ni 4.742126394585876 5.428433625541633 3.843673126917813 0.35968756207188374 1.150634999136999 0.14528455500383367
Ni 7.40708207544402 0.8465646883132052 0.7344421803406995 1.2504971601419754 -1.8058436159051867 -1.577553309332083
Ni 4.271926481907984 3.597395528380891 9.309835737873469 1.2100043422342517 -1.7417964077162906 0.08793815587388082
Ni 0.571495541282901 2.095438441939153 0.7037284515362848 -1.3332154623778134 0.41910344213635564 1.0256896699111497
Ni 0.04350488002260122 1.3310747891071502 12.251211236501154 -0.4160062912682707 0.5991701378163811 -0.8537988251736972
Ni 5.565867179361606 5.459113681114321 8.074336804815628 0.21902482211077764 -1.7537003582427282 -0.7253172006598153
Ni 5.329424970591356 8.803829020092587 10.960335738502158 -1.5254676443804374 0.049850862083856085 1.5930082104345724
Ni 0.6182901089716347 5.821306703030677 1.7980645203604848 -0.06093874446690151 -1.028559535259777 -0.18120672282173952
Ni 0.9030777248251168 6.101795369633791 11.324792349884548 2.663929241379696 -0.8980891624506404 0.08686189209056654
P 8.32029076618096 3.900342369810232 1.3060144217625322 1.0827054251745611 0.4214243769600484 -0.6023678188180722
Ni 3.606412471543108 7.8749716302784805 2.115222400945797 -2.156852162145834 -0.6678291337456758 -0.019858429486823863
P 7.665683141425155 5.377615106661628 4.5738182287432405 0.18764425091696718 0.4980982727740196 -0.452783093776988
Ni 4.433314798630902 7.185390612904906 8.758976275433394 0.5184498398471782 1.497528751878324 1.0211195340419639
P 1.0019657173617087 8.499815859658586 3.0402859399854276 0.7084656763201154 1.0455745817605349 -1.8683029107816724
P 7.066626995341972 0.02264431296826886 2.655075393449171 0.16181494855868905 -0.9405722713155157 0.6202033043375963
P 8.406269751188324 8.464515088399034 8.405019164776718 -0.312634574448139 0.78461069621381 -0.15666605736789793
Ni 7.229979583915579 2.2423192079933996 2.423918946692374 -0.3649593519937843 1.4457310504807426 1.3752758818829733
Ni 6.230660956714563 3.612885214974907 4.544466395088638 0.7006443805034837 0.40276768109080957 -0.21242042942038256
Ni 0.7816221194591878 4.842341673673006 7.959777664380718 0.28345872421513113 0.06977151226718306 0.8345170941259499
Ni 3.2056635993003426 0.9794701278335635 2.7093566429916796 -3.8293982202057335 -0.1852140442089197 -0.5617330760158454
Ni 1.1253219895850675 3.828085226731263 5.924957587121419 2.1977566136696796 0.19359738317660852 0.46758262068366563
Ni 3.677968088961116 5.456887506350205 12.043752326571616 -0.13157363317564436 1.207723516619875 -0.41437749741559604
Ni 5.127900032385997 0.8423125074402344 1.7054650038487462 1.0229897544814834 0.1613153832144512 -1.782366358718853
Ni 8.660493297045063 7.556460272851288 3.935410234550344 -2.422530165338776 -1.6823936402779411 -0.7634335479155627
Ni 2.7933629378404214 0.1802827411914635 5.189706313851746 0.6183965901461609 1.752540533606672 -0.025754997476916938
Ni 1.9295790683370448 9.27074579267718 11.751483641069644 -0.9336477762815404 -1.1332844236736934 0.27363556747712225
Ni 3.408657064555979 7.412890707916776 5.067754963685404 1.6672698972626254 -1.3537140965517975 1.3834406770819527
Ni 7.167730873599652 0.3842742436207605 12.139569507448295 -0.3975041186990251 1.182714653280363 -0.663263111641548
Ni 6.360564801773557 2.6036423380901645 11.375048712868237 0.1835268863144839 -0.2232900251450348 0.08321709624912764
Ni 1.2188306833534115 4.199510326345864 13.42195748031721 0.3449541125164511 1.0561924664856972 0.11825120503512537
Ni 6.915256465057575 1.2811448693976957 4.696603926762352 2.2737658793164583 -1.1365070443760492 -0.28411564107283976
Ni 8.164495947394771 6.040575563620606 11.073703220680981 -2.133149933432888 -0.39307050840770363 0.11844969419917664
Ni 8.253720657793513 8.968753026146748 6.156689284920206 -0.9373193115958568 0.9109055974890184 0.8142634860832364
Ni 8.511975637781907 3.0559206085493753 10.202276462943322 0.5352843949060136 0.9897366488553083 0.06085878315858551
Ni 6.140070609695816 4.7913922033362875 10.408148054143997 -0.10880625757214164 0.6828999120358691 0.3524463071284382
Ni 4.21876954415811 1.9310663027382817 7.303299304529017 2.930122236535844 -0.015961408425262835 -0.22182398212246957
Ni 0.5699288006400883 1.6216560715526211 5.495076692597819 -1.4957652322199981 -1.5329197297831085 0.3137658598391048
Ni 5.196658900835642 8.615062495241236 3.56836639653033 -0.787287985935657 0.659428054166174 -0.8131152314114061
Ni 2.920189423666667 5.271619256128179 9.57082292646942 -0.9741279957837738 2.0623389241575962 1.1005442531281948
Ni 1.7888343133973357 3.1879851526441287 9.400108059925914 -0.6751241247451921 0.735523708879172 1.607205327870561
Ni 4.781982405803932 1.4755142458612533 4.0827839393023595 -0.06811906426542462 1.881240187668631 1.8524194067821969
P 1.012591492706396 3.3551353334624046 11.513879705804845 -0.2726104686467176 -0.39439334098418527 -0.7298055754484721
Ni 8.999479850096833 8.404342894039551 10.88657358903854 0.1676474960800661 0.12393668545567689 1.4170054004112758
P 3.2556122263607565 5.357906912426367 2.3206272437400437 -0.8693717399112898 -0.24972765051127316 -0.8281237890050963
Ni 5.243380509855635 1.3110485699055876 9.845048371971474 -0.5843330728035485 0.9138693081030325 -0.7229918949607484
P 5.063116476015131 6.155569649965312 5.962071100688894 -0.058199234048551374 -0.2867137408173191 0.7696862136934938
P 6.382929439844989 2.4592215886870203 6.35100534543353 -0.19120420035408361 -0.20401266497266157 1.971719621907127
P 2.2971878683560187 2.1073269634735694 4.530995231663093 1.4744741840517057 1.5639300621216936 -1.173527073243824
Ni 3.476284138272607 7.475457443199006 11.124178459670889 -0.7067492078496409 -0.2518516388328114 0.10292974418670661
Ni 6.207080340830799 0.4856203820733593 7.937052909803325 1.0700735953431637 -0.02715264915539195 -0.24184053445371254
Ni 0.48587386667885313 1.086859676013453 9.54346997326478 3.0492301331443095 -0.41568310360089705 0.12796354722688283
Ni 8.655068165266966 8.005193500303776 1.492406983777191 0.18088790602974006 0.17761386326415862 0.7525364413870846
Ni 0.8332787276621543 8.311442189177374 5.238196702904909 2.135814624749244 -0.2024815730401158 0.5204298463916843
Ni 1.8864025023237732 6.708035138485214 3.5845482551098278 -0.11501804280980837 -1.5838383710098465 -0.058277138474338346
Ni 4.016477604563434 3.3038491308084255 11.76861022087257 0.6484494436674832 -0.8925744032799984 -0.23688524733096625
Ni 6.598428769216688 2.9375124306546607 0.06075679907695088 -1.8953905110270843 -0.08768284532996512 1.1723273965087682
Ni 1.815183617223026 6.939127044881204 13.247108289211777 -0.00761200801930302 0.4185609393693243 0.5200786336998527
Ni 6.79684828716286 7.651334603239635 9.95696509908343 1.2286304419758711 -1.1960242259050757 -1.782243974208376
Ni 8.737773363856512 5.94854475057802 13.422025762148213 0.6061967056458591 -0.19282682355917113 0.7147147425536207
Ni 8.103388385487339 3.91544855570959 12.49467524945385 1.3701133638454273 0.15045452924054734 -0.7830898886939095
Ni 3.0508789774659366 1.4811358048244196 10.593510776488364 -0.21365327338621912 0.6572181909990488 -0.34183510727149513
Ni 8.374280181048508 4.058007923692317 6.306964499805955 -2.6457330300866433 0.3898278331006899 0.03512718272043628
Ni 2.8190200696806302 8.84628535309394 9.409746087139967 -0.6655920168850408 0.4149061162255564 -1.0749954581248133
Ni 7.314742591110611 7.757171441289931 13.1660353069934 0.19054316973131702 -0.06217210265337034 0.9035198465479085
Ni 6.140650537575543 5.710362758168586 0.30396171521886445 1.0406776586795494 0.35931629477539406 -1.6430943284576862
Ni 3.1178793549254396 4.396451963566278 7.393338720062022 0.004209924316289524 0.0480523754225366 -0.16999028528062982
Ni 5.266025758191452 9.201837265419865 5.882655589765479 -1.9537537814573251 1.2676068232390687 1.382675002560522
Ni 8.984691689163778 3.361159100471189 3.8235215684648254 -1.5547499382843222 0.7344021936802191 0.3795873863196043
Ni 1.7747850928271593 4.044220606035567 3.770787416846623 1.3619588530590931 1.4211582462373846 -0.6892775334274387
Ni 4.714196319604154 3.2335188448782284 2.4275743630697533 -0.2626654416188638 0.04014931852537602 0.11884050187969211
Ni 6.496155681524073 7.668882098439137 5.06860427741894 1.8309671504456917 -3.1117627044608924 -0.033132520887910674
Ni 6.475044435966891 4.773161889826785 2.2454695258948876 1.2267262829746228 -1.8152942197951254 0.8772030630302505
Ni 0.336329173848051 1.204659865002002 2.9496993344368727 0.27417035693466973 -0.22528391564661202 0.01173682882095398
P 3.3198626232292923 8.867144049413175 7.154748907401684 0.5996596758582898 -0.07193175314329547 1.1373663070525508
Ni 1.744385647518855 9.182615462309538 0.7604519457464847 -0.44853563135454366 0.17368598896466217 0.387496613864352
P 4.86898094143856 1.5792745679551052 13.194634169771904 0.369211442401919 0.727372026306315 -0.25804465501740076
Ni 8.972747045576485 6.601655787257108 6.71933624919952 -0.3858382523253226 0.07109614461587756 -0.20930348105795565
P 1.547836864668579 6.116508701163011 5.7913833598042785 0.1560505352710861 -0.5942585594473766 -0.22039007788942042
P 5.987016417825114 6.77299641469019 12.009417789989094 -1.975262087842747 -1.5556220564766305 -1.997920191561895
P 9.231928039437348 8.643759571612277 13.194072949243136 1.9328851655384325 0.8390052118042904 -0.715601001813316
Ni 2.622620945638026 2.1317494101504875 13.33439585341872 0.6845505602654146 -0.8224452505630804 -0.7530807439263288
