# total energy = -340889.9591864747 ev
CRYSTAL
PRIMVEC
9.11088751047934 0.00000000000000 0.00000000000000

0.00000000000000 9.11088751047934 0.00000000000000

0.00000000000000 0.00000000000000 13.33470481420946

PRIMCOORD
 96 1
Ni 6.1390616967406695 2.0820473187402317 11.220846822098425 0.8452869310479442 -0.016310821344881585 0.9821071573345085
Ni 4.48161817386593 0.6105150973879727 6.113722496735067 0.3314478504999001 -0.26593305662654204 -0.2940799513744032
Ni 2.4994352917938305 1.7574901772906477 4.91873212920492 1.2420603422285317 -1.3093913633750225 -0.0857203222869556
Ni 3.787204558869877 4.712242066337459 5.055920227149822 -1.3064402511664983 0.2910951577144664 -0.645999953685726
Ni 5.265938025614207 4.129345712979756 2.962077953596109 0.5771211284361416 0.2940655531967 0.2239132605513305
Ni 7.053967897431958 5.808637143812729 2.3701499775699335 0.7903524837935937 0.5125417018928592 0.7418445088908772
Ni 5.116218813154813 4.536228832874121 11.249823999438357 0.6906057653205591 0.9562099778527724 0.3563186455996509
Ni 5.645825586175694 7.424252582685698 12.687931108227495 -0.4145307351640087 1.4523927787716342 -0.7228327436750647
Ni 1.8823093345165778 6.502276333380737 0.293590146303948 1.3169838310102995 -0.7511711856084419 -0.3905508273096435
Ni 2.7574191790937888 1.4641378251475465 0.32358500976520393 -0.8951403642349616 1.2517554580291086 0.28224773462616554
Ni 0.32025953586830874 0.20127590201487577 5.180466057754089 -0.3965975477243557 -0.031328634909952496 -0.35901650414678815
Ni 8.883698300828037 2.129715481558193 1.509182052397546 -0.4435183806456104 0.9487123839241468 -0.49171268096264986
Ni 6.931599568913604 0.7921934806296387 4.951869337726556 -0.9257323780892056 -0.200972335484441 0.1011258582087484
Ni 0.9030775355944693 7.34804912056616 2.1945194013769225 -0.5647410096042339 1.4473655007603718 0.6126339766307707
Ni 7.801944419386496 3.905336324752461 4.0688849531792455 -0.9936742933468177 -0.03577227250360291 -1.1433834597809085
Ni 7.7508323411355855 3.851900970217419 12.529928276954246 0.2769309503989424 -0.6577480953605899 0.323017717454676
Ni 7.903184600050331 8.693945849182457 7.025842588062874 -0.8699525521154244 0.25364524039812447 0.5274039637166723
Ni 6.630202303206232 0.7394104656316312 0.24776967144842635 0.2845167331660003 -0.4789193858527236 0.19363286440023425
Ni 2.092497506575133 6.536278165115567 9.207200401518003 -1.28612519375823 0.9321601359924203 -0.8330741910318363
Ni 0.11641983014223758 4.785748705789928 1.45593620432019 -0.36610709244498235 -0.35371000433221017 -0.6930346864770258
Ni 6.676321615168105 1.6636844807360365 7.2238631700137494 -0.203515670731585 1.212012630913532 -0.12050374851472795
Ni 3.815894743257063 4.592397453625789 1.1480702085668035 -0.8250505493964112 0.1457262705269426 -0.45300703686233595
Ni 6.0987733527076 5.757351958701432 4.719498888142603 -0.0515552463694725 -0.04119267218822583 0.5166487820826974
Ni 5.57741193277354 3.1284782897755736 9.10719019065165 -0.014426459837975155 0.1296447915840477 -0.0870945769266629
P 0.2709413913442444 5.425943429935505 12.479070392461482 0.6912194876451581 0.3285993253075115 -0.2583752988839421
P 3.9047714497343584 5.792884419517573 12.744363944713436 0.5803483771241876 0.8346178813698722 -0.24792145054046977
P 2.4973215659196395 8.694574500412282 1.435761055286533 -0.7061863933676353 -0.33897475500456453 0.3747830229524255
P 6.317033770992591 7.849831243501788 5.76532580734407 0.18941908342920283 -0.1495186476898393 -0.14433324683415788
P 4.691678793501042 1.0753580384946353 12.567759414658568 -0.27712918245267754 0.5188131367238679 0.17983992438119997
P 3.9120874923075277 6.410757469560703 8.01023752686819 0.2954017555096203 -0.6998501667369624 -0.10858077182489688
P 4.862799480436619 1.3327314963395474 3.925337455836993 -0.4528342587298976 -0.7622130452449002 0.391757446023235
P 0.13140541771926018 5.827305352072285 3.381268060175203 -0.6461153962176679 -1.6385337056701976 0.9661336647243878
Ni 1.3911049518392942 0.726879351117139 3.0536742599589477 -0.5140805071348887 -0.0924329584204408 -1.3409269720894583
Ni 1.7267955976779357 6.845884340360205 4.6840019597872775 0.05249164214081283 -0.8989620519738969 -0.2805322945969556
Ni 5.9210472724151755 5.767446821928171 9.24443022065467 -0.5453980863012478 0.20083246747246705 -0.08792812857155179
Ni 8.691321913614496 2.348449665987399 10.10662629344706 0.39100616967950724 -0.24967699977899582 0.6031306651260258
Ni 2.231711865875294 5.344728979752152 6.874053381988755 0.4722874823585027 0.7417311232414645 0.4373791005170919
Ni 0.4183036172361683 8.953150595392508 9.33882721380081 1.1837605780463742 -0.11328203395530813 -0.10885742252505122
Ni 1.1682708680851488 0.9012070704135581 11.59375270965391 -0.034048862054592975 0.23557449893934268 -0.10452177126417483
Ni 4.342330927466659 7.117243010346855 1.4643510199124432 -0.0956326963046611 -0.809800050995244 -0.1117080045999689
Ni 5.535000751978891 7.931291687644637 7.92812200992209 0.19616617234504927 0.39848987965106214 0.003329835704181362
Ni 5.387468152492797 3.0799901470926248 5.190706695179049 0.3302633432734957 -1.6416645379896952 -0.26111815173640196
Ni 0.7577880365834868 7.645164269200817 6.8965226524669 1.4384316886058517 -1.3651344225735975 0.6336781988955796
Ni 5.114214417929286 4.4374577026926385 7.107504382817015 -1.2514939768376059 1.4011355232585547 0.9434855883075687
Ni 7.875223286654244 7.194375782980046 9.39072556163337 0.9664748501138904 0.2146053528868433 -0.507754564916861
Ni 4.625779745018184 0.18231432318140092 10.4908788801565 -0.30037221214101817 0.5060355253432253 -0.5272964916045306
Ni 8.221819664697225 7.126180790875223 4.7463550508984325 -0.5477408755018115 1.1223328097581962 0.007243568936290751
Ni 7.418157399022623 6.19155862987467 7.094955957616485 -1.082157265980575 -0.22495661421418034 -0.9992240195204535
Ni 2.328004834687035 5.361010135515855 2.7432690598903147 -0.9230561168086233 -0.5224692454192164 0.00179360156531304
Ni 2.4394492092262743 5.327372739276575 11.157054210779847 -1.7074423557164529 -1.1177313064304426 2.2899157496034435
Ni 1.1302784676740445 3.1900587776361613 3.4675035203984987 -0.5307649097691053 0.6243060136520603 -0.2866366077224805
Ni 3.4668839800560636 2.546547690481077 2.749069050801996 -0.923315541117597 0.2763485955329112 -0.28337233514891197
Ni 1.1143617474058913 3.435123426618867 7.889050880444156 -0.32193579724440685 -0.2502701532783045 0.7959009244156486
Ni 3.414459934021173 2.5379561236734824 7.170764007223352 0.7105642107203569 1.278656396185011 0.07553309734130864
Ni 4.227916403638686 7.278824598186407 5.491284892110172 -0.4964265414985515 -0.5714485035313964 1.4141597034323643
Ni 0.9905083442431692 7.503909071125575 11.632369205851143 0.2827490997426163 -0.41259186627008293 -0.6174661079120913
P 0.04352726449977226 5.861161409608895 8.211004130278035 2.381732157485808 -0.40936564602330144 0.004543910616940561
P 8.741368018040921 1.4420257014550404 8.039519918935646 -0.14811353981219652 0.6094764048383955 -0.19963896138499812
P 1.852671617840961 3.34816000649321 10.35253096624701 -0.785624225079989 0.6951769296310092 -0.7707542499466918
P 4.073732856358801 6.283496594514586 3.494572877919226 1.1849941933431591 -0.45658189869778787 0.48535537128605444
P 7.101016519907484 4.035713123285531 10.42560574963725 -0.8100365924860823 0.49141366166499234 0.9139140452980389
P 6.094819227580881 7.715217882332947 10.507386897016183 0.6951051958528093 -0.3120337076393465 -0.4818648416342928
P 2.367983408548888 8.659461140416022 5.504806360083821 0.4196945387531353 1.2140306897848252 1.7767531262971337
P 6.841274231341496 3.741240131993613 1.3979836718178036 0.9267901299297587 -0.2838559596535498 0.6515761622219229
Ni 4.999918335637367 2.6594133634529618 0.787686324638422 0.4091021079492696 -0.0876080262279717 -0.9400179414739424
Ni 1.606969206741043 1.0817356596667633 7.151455303580365 -0.8789665826885765 -0.7124969089666955 -0.03452374480848247
Ni 7.148748458937166 0.44458397190902926 9.39208581712051 -1.3827320810507027 0.3330272791718781 0.06376772927526436
Ni 2.76509054627512 1.678790332026591 9.545115014968239 0.30799784700707605 -0.5454981022142218 -0.7245569254550231
Ni 6.476428745858842 1.7804678352850856 2.5821585049287616 0.7315580393632046 1.2799375768902794 0.06308124473120104
Ni 4.004171231145665 6.889807928461389 10.735944440227943 0.8998208004297664 0.8230396896139697 -0.3844544846039185
Ni 8.514452256736615 7.1331597306150085 0.2434747991333677 -0.9173063588090395 -0.9113038613687016 0.7519566576242146
Ni 7.771186063562063 4.062608462857133 8.442561888706912 0.44469851699664054 -0.30586074605941516 -2.0379918627718
Ni 3.3519136920973764 8.428645919309329 12.816517617388675 -0.0944733858892373 -0.5085464646905371 -1.6038230416618895
Ni 0.13922347018754996 4.8131178115057445 10.254228135677307 0.11563973555420728 0.4960809852336746 0.3194878499245466
Ni 8.850170235237423 2.6020603273407557 5.832746374020849 -0.2551783892131993 -0.4684259425205675 0.9515619375577999
Ni 3.509668707233652 3.0143006490197077 11.67494711588501 0.23235470645046438 -1.303917741854961 0.8402527110581465
Ni 1.104922868071142 3.11702590432791 12.45954758296486 -0.9700774798634841 0.828245145074309 0.31355940025525353
Ni 3.1908787575011495 8.715338212771252 8.234819989912237 0.14669711908064412 -0.550183166394717 0.14997681827318043
Ni 5.651355894820668 8.135730889760888 3.4190846204597043 1.5909888660116989 -0.7113779648709039 0.5503664860501167
Ni 3.3117893440373036 8.42161231424521 3.550391640595166 -0.8118209380800149 0.271037724842959 -0.14502564491549216
Ni 3.6324288039097237 4.428647474587714 9.275646854114758 -0.6685094476421519 0.1419135816490717 -0.9485414055639211
Ni 7.430010663515391 6.2231096329019255 11.646944803495671 -0.1352690797493606 -1.9478183898094972 -1.0320737190606226
Ni 0.4052367825432173 0.01792567093737351 0.46046971516006074 0.7161581598683666 0.9789398153501205 0.15348431720580663
Ni 4.515310235429542 0.439592116708731 1.82542733128237 0.49216493800872013 0.590174362075674 -1.1431338056639473
Ni 6.023672307962101 5.35015906863585 0.22995333115971786 -0.4326094470425904 -0.6581962386416019 -0.07564751143198585
Ni 7.977019231448793 8.51959990811126 11.526438740359579 -0.5162939698464398 1.7154911941628581 0.3496697728245655
Ni 9.29073630580801 5.086508209380086 5.519047588161182 -0.054034561147900485 -0.11947299325736843 0.7684970784813991
Ni 7.941741875479537 9.019769403979078 2.7655242245148246 0.5919052287238515 -1.5818136272703338 -0.9490276011717205
P 8.528437468878352 1.6922015582628367 3.7778422109891934 0.5317856377241358 0.9047223514964419 -0.6360965785290852
P 1.8674950316224637 3.460606578645212 1.149023207387667 0.8159938385107818 -0.504621161494202 1.4299696738814276
P 4.840140703500789 1.301371821947456 8.431707177471951 -0.4167197723955275 -1.7290915585551125 -0.4184920338046018
P 8.279045148385988 1.5712727499519048 12.385380404176708 0.5933234492276169 -0.30977782172563423 -0.03032847578021228
P 6.660623556197281 7.740354820638519 1.2470135345199331 -0.43179852110552086 0.3193605803180629 1.0120782497753023
P 1.8152532033353483 3.5576648619976083 5.601963041020016 0.1736998729217331 1.41862159585846 1.2868258193696807
P 6.967469132563128 4.0378724035966655 6.296381211459763 1.887046252827447 0.04471379796760686 -1.0146012733074719
P 2.4398409773839904 8.720786523429727 10.446407727723251 0.19766204016428537 -1.245001427134727 -0.6484792684641542
