# total energy = -340889.48162301426 ev
CRYSTAL
PRIMVEC
9.11194732224008 0.00000000000000 0.00000000000000
0.00000000000000 9.11194732224008 0.00000000000000
0.00000000000000 0.00000000000000 13.33625595584722
PRIMCOORD
 96 1
Ni 6.41720736296242 2.236536584268219 11.49347868806509 0.47400497927024166 0.07171140960237327 -0.38766245001825494
Ni 4.685855362602999 0.4041048409745849 5.8533363710755 0.036271066516892374 -1.1833394313485555 -0.3306459234238951
Ni 3.0254216483184355 1.6883162731165133 4.5937262855317345 0.1606674652178072 0.21850288816903657 0.29613991922722543
Ni 3.4169438012240536 4.313204052619266 4.547943306168621 1.2225104451210624 0.9956041633796789 0.2880561137778265
Ni 3.8703634123471327 2.9476329539562296 2.407914089664069 -0.7052548826923015 -0.13833306338666498 -0.051300964266821326
Ni 5.4772644360638205 4.791553951639147 2.5328352427890657 -0.8525721518554479 -0.16615394225367516 -0.26059056136770603
Ni 5.135384172215868 5.0482921796290166 11.353367918739814 -0.16686176695397714 -1.6951411697515968 -0.3500875770882745
Ni 5.767215712074099 7.942301323544062 12.48781629574905 -0.3957459983573378 0.18148928705916487 -0.02061947602256449
Ni 1.9611553120397334 6.657926787544914 0.21067277825950337 0.4865049115094654 0.5784653011688619 -0.6648255710326615
Ni 2.7903516310809766 1.6853366663393736 0.41420452339593533 0.004714117646217688 0.03275456872320165 -0.45260028834222055
Ni 7.7490824803965195 8.693535821223817 7.506258195980633 0.4250807427657131 -0.06931205613226127 -1.595916128109987
Ni 9.179649099369456 2.4788141518442637 1.1587134927508982 -1.5971726262249075 -0.5826181469949708 0.21513114348332626
Ni 6.925371553648359 0.8983496209181427 4.733850722778008 -0.5384093136882405 -0.28311753882562857 -0.02247812649785806
Ni 0.871538627092284 7.3527127715109675 2.2591752174113493 -0.39602187772654374 1.651401048551169 -0.4453569765162459
Ni 8.053157274769386 3.9855110907652183 3.598655166087653 -0.9185983381475858 -0.6302889707083725 -0.10552090195265054
Ni 7.917380147594592 3.9770552036423266 12.565686997637233 0.4392449500812371 -0.2829043943735579 -0.5992107612463294
Ni 8.766659198552704 7.4535911404091735 9.344434110871543 -1.352601323103593 -0.9680313959677328 -0.20248465836390933
Ni 7.255533853229028 0.6473428077992854 -0.015025601148328155 -0.81911335797637 0.55136510251796 1.0354472635185459
Ni 1.8765964408108156 6.571837109164439 9.167862795497193 1.8766430552162516 1.4634989159871248 -1.1978659070995046
Ni 0.4172497361938561 5.044802303801357 1.191494634467833 -2.059938799356536 -0.18998549745563412 -0.7570667251572704
Ni 6.421517314049843 1.8847334097771329 6.994585905572373 1.7077588585156074 1.0429065480100683 -0.7653708741475915
Ni 3.4794244240706798 4.470403367968543 13.369062791527465 0.8985874422432976 -0.22925986957522454 0.41261706308106355
Ni 6.1934361604150325 5.823117508947958 4.877735660687662 -1.4946884542160517 -0.648389022743193 -1.260885445354835
Ni 5.200935521312942 3.050834869423764 9.123865757810897 0.7746394439337111 -1.2888888725462964 0.36839794536168813
P 0.1480846344343752 5.8619344045767505 12.191031970435478 0.7701143023698478 -0.06597733533207348 0.5594036565517204
P 4.09217554621842 6.409708230309252 12.557965533469195 -0.3832213835277658 0.7349542095289472 0.8209038742178895
P 2.4636974312226285 8.655065179593592 1.1902326297625305 -0.7980040868015805 -0.00440378549465048 0.39164843124919646
P 6.263142557494906 7.887410952823912 5.913775917720048 1.0456578855029603 -0.124348833292431 -0.42665348656947166
P 4.817131187796429 1.0207658997219293 12.787575671866097 0.7216014423711249 0.641329030572618 -1.3018600879949838
P 3.901936309848016 6.381005596217539 7.960584445863117 -0.8254526699308365 0.24391747158739924 0.022635478011328758
P 4.975742854981964 1.4201243273319513 3.633703360300466 -0.1475728368173781 -1.2792958295412225 0.046383215250229794
P 0.21445423640174488 5.678784263229633 3.3304632203030913 0.08858607387052486 -0.44416141354624794 1.1417670072234078
Ni 0.2527590405905514 0.039794607577376316 4.924572892356939 0.8405571296724428 0.38626042746440575 0.42102277064625554
Ni 1.9223201925162798 6.477583125975654 4.303690268411279 0.6366987308894583 -0.5867185423165896 0.9314960200458603
Ni 5.946748410330928 5.6484597025130565 9.009427900089873 0.44423906086171877 1.9362823641454394 1.1896183223787318
Ni 8.803507913558063 2.3811249645118044 10.117657559849748 -0.06458302608770813 1.1018994816045087 -0.11558060018149773
Ni 2.2692758110274327 5.385488902548986 6.627932079321708 1.2027006094839867 0.24715783290156793 1.5705588802921209
Ni 0.9035352301440454 0.3711560394267653 9.140216236101107 0.29216885039461943 -1.617830154574259 0.5801874260662911
Ni 1.9500934079802608 1.5000361054222109 11.34987439813322 -0.7267837579030128 -0.7188516475401298 -0.6233320797745652
Ni 4.498459053799776 7.003807196271045 1.3035588299092087 0.28293164806706755 0.22282285570062915 0.6860091470888121
Ni 5.4343016043995584 7.934929758153524 8.0495370980949 0.26203217891023906 0.5642183043315444 -0.031270270868191306
Ni 5.636131237774616 3.3342346553032685 4.44186657131825 -0.39083647687086237 -0.6438818789014588 0.05518898646731785
Ni 0.7464206559049441 7.471924378438547 6.8826820804040185 0.1591502572423324 0.025499429822685122 -0.2839750017299174
Ni 5.037950119408669 4.7186128132568745 7.120347180241261 0.016641465211422957 -0.8754907083248341 -1.6327276405113818
Ni 1.0172122402629553 7.811298856770555 11.43627934989134 0.5022071527360706 -0.8360564135886117 -0.6319162218991503
Ni 4.9548856075419865 0.43825824195952334 10.493592815651466 -1.510540847867276 0.23543977313369127 0.2651020760848144
Ni 8.137734369892966 7.176405702609208 4.748867211979005 0.5235753339992016 0.33711456186737426 -0.26373964851964904
Ni 7.42967227866608 6.024901582586362 6.812986617660942 0.8152942413405959 0.17712303967066917 1.7256971881615828
Ni 2.518660697521425 5.361533593016571 2.216925851223082 1.2362745887846904 -0.04109291338556794 0.6700446533397557
Ni 2.4332726390854136 5.664068468290549 11.298689856392468 0.015310147994509114 -0.8796430399303108 0.5852743536708953
Ni 1.4687730141305713 3.459387251890465 3.6105781491698767 -1.3856590248895104 -0.1622036993566755 -0.5113741639473194
Ni 1.5183328956622613 0.9638435647470318 2.943845117450857 -1.105652777999354 0.3523470625464125 -1.5374106756749264
Ni 1.0673552864238105 3.4253996883469453 8.187300629787789 -0.1100856385051975 0.1652651118908186 -0.8849474828623598
Ni 3.950138511227432 2.445655775507838 6.901392553052882 -0.6217979025182259 1.8799752049132785 -0.920162854421228
Ni 4.087610460605738 6.96377841164727 5.73993818654491 0.12078502720057263 0.3388973647994099 0.12614423462995697
Ni 0.754942149048617 0.3614345028196389 -0.13644412171940293 -0.24264400419161436 -1.0399073561724286 0.9893432700716316
P 0.223927016846743 5.56028338819385 8.091840224772417 -0.6190092840294952 0.8279468971075999 -2.2944108092603197
P 8.758622461007024 1.5412585551463083 8.044882715398376 -1.3542334593903773 1.0546554610158803 -1.9183157523646899
P 2.117261193709326 3.47126011926237 10.310179339026492 0.33939487326111867 0.27413256171819883 -0.13664821948507433
P 4.200325249086526 6.352102499284552 3.566407984484297 -0.03984824234518944 -0.8613365283116392 -0.5059067130748448
P 6.95327233637497 4.073304703296535 10.303871137889445 -0.5448411853565133 -0.004678636422591942 2.3258836830576204
P 6.394974211475506 7.908723797630425 10.07306095602909 1.0025440850326217 -0.92458515185864 0.42110144640299085
P 2.303436501570236 8.266385954255153 5.299521324262742 -0.5155190393536283 2.573961713780612 1.7934565550947434
P 7.242357977388831 4.1620368464029145 1.3865440678341139 0.4496129235791225 -1.0122124613603214 0.41034986431344167
Ni 5.50670513788932 2.7875724871451126 0.5212152328477035 -1.0108957994314267 1.1890372530642812 -1.7707711976820857
Ni 1.8453242375718453 1.1970547447290274 6.7780587011528945 -1.6469034177911313 0.3499381959946038 -0.5433268055945158
Ni 6.973455299712475 0.8284409386075282 9.340673610208162 -0.33218884243098273 0.8508806230856377 -0.5782040770876753
Ni 2.7689021070645032 1.7999011801282943 9.038020279618882 1.6605590609013532 0.04794078954533679 0.1928569054661582
Ni 6.6301717959755955 2.0617967703073408 2.2330093494565046 1.3512324677805245 -0.011023604804013274 2.0255196984467183
Ni 4.205154581171798 7.1097791437271125 10.397411655602237 0.5865426788603576 0.36063887024155955 -0.7118908999515805
Ni 8.220224829077814 7.394217691602317 13.431476897158577 0.31214580773717854 0.0067835985807367044 0.1300800793492534
Ni 7.376649857148723 3.9611275197082585 8.34517514043427 2.117680634152695 -1.033794301296155 -2.4754123580497884
Ni 3.0932327603535223 8.681590058273265 12.314511613492758 1.3832586429781337 -0.4637323936996401 0.7560076877651367
Ni 0.44977300980133195 5.017010864442715 10.098319274029798 -1.4431437493695405 -1.607488920549251 1.680749934026931
Ni 8.542623749532725 2.4840899693487404 5.78622779017961 1.2678929870209197 -0.1933220180280348 1.1399883180564303
Ni 3.9795063174742853 2.8758308089902953 11.572163086849905 -0.17856260033067312 -0.34884779114390246 -0.1257310583519383
Ni 1.351073990459889 3.572111152318584 12.445700875186544 -0.9733967740447044 0.46920087301337904 -0.43636711431280983
Ni 3.07127296728653 8.643338103378976 7.861242351284868 0.3070434535136067 -0.9931469600884378 0.15303668814542673
Ni 5.806716003752695 8.072656842057091 3.5451106299882467 -0.48582356917172465 0.07431130911906557 0.27042657362152134
Ni 3.2375660060718476 8.526823632861287 3.269036849762627 0.405379921902676 -1.2007324300140225 1.3610659089311785
Ni 3.7311146332393395 4.733565518826557 9.303158811852928 -1.7228147244074652 -0.2992527538245943 0.3555843385367876
Ni 7.231387192802666 6.135875989126985 11.216898283567884 1.1929286176988876 0.5765793970000587 -0.26363834705509437
Ni 8.179211954142323 9.222293012877143 2.4110613562720937 1.0173904060168348 -0.199980660995133 0.3361604254842211
Ni 4.499178897638901 0.4194757849267467 1.5799861536912594 1.618247958837968 0.37385202649772387 -0.24968959818448613
Ni 6.317704898111151 5.5680649912142695 0.1313514543562734 -0.9036064927244438 0.9724740051201186 0.16316452060804804
Ni 8.126517562728871 8.879182636139547 11.164286810875142 -0.6717297543516625 0.5534865197363371 0.5494079787915892
Ni 9.421115703633069 4.875812128606152 5.618324670300958 -1.2146580389561792 -0.10290454737572599 -0.42770635331401824
Ni 7.36481343756614 6.257702724938476 2.5283539870918266 0.324837287161918 0.36565894916397024 -0.6871869694469972
P 8.680186818384337 1.8303715320021627 3.714627475739167 0.4852682108888869 -0.4175780066307647 -1.1430816122697733
P 1.8964969337810698 3.4465576300488365 1.2503168104611817 1.9434565132963755 0.4649557245837799 1.2786975338355915
P 4.921235186049702 1.0662527407967954 8.122433587935252 -1.1219959952440677 -1.1054625163654188 1.6994035445723763
P 8.68035083343629 1.7981243503988074 12.139140341581863 0.23679294472747608 0.29982893804303845 0.9692143605322404
P 6.610845355687175 8.165626040672246 1.4893131658034404 -0.8896428314555002 -0.9368644834466253 -1.1158340894077299
P 2.0063141230106942 3.315245357066085 5.906681355528363 -0.4411848474164272 -0.620992118787479 0.08565733025950409
P 6.96818859415533 3.9417372957885237 5.948316576466541 0.14902165344876273 1.2858220606955146 0.7354002959274302
P 2.759307226525274 8.726994891822155 10.123098303600909 -0.9145725048176442 0.6632744244954577 -0.2078695768249065
