# total energy = -381167.62766007794 ev
CRYSTAL
PRIMVEC
9.22134252050879 0.00000000000000 0.00000000000000
0.00000000000000 9.22134252050879 0.00000000000000
0.00000000000000 0.00000000000000 13.49636688634709
PRIMCOORD
 96 1
Ni 4.120077407517192 3.096526827434933 12.525883497939779 -0.8373609913326481 1.3709386879602001 0.28824534697049714
Ni 2.4585021365766155 1.7191625551494247 3.852470358253069 -0.9739454474593229 1.6902023376890827 0.08693156898623738
Ni 2.597974942606852 1.2774602471263952 13.26560576508269 -1.9232407004701328 0.7677535154471551 1.715879944960845
Ni 3.8826555009479033 3.232421752556757 7.107456736023445 2.4763032452951736 -0.30311660765537474 -1.2412424743129267
Ni 4.2398718685511625 0.8494184359531637 12.005598752995859 2.4012023503952773 -0.6802583606479639 -0.8198006138513816
Ni 0.2803656988127805 4.985675611104118 2.685803619700074 -0.7567355670700967 0.17395981145133912 -1.3141854423295563
Ni 0.9622102094565976 0.44864690109551675 2.2073441181486393 0.3296696755535548 -0.5785648028612036 -0.9576631653595313
Ni 4.930614974753272 0.02948247639271878 8.695493644416588 -0.22973166700532047 0.6698183962615625 2.9865538371610114
Ni 4.163888005960144 3.3893321173442286 4.778780036903919 0.012673995923242688 0.22767812691040143 -0.8240051388510324
Ni 4.396726905283349 7.434670543514309 2.1860741694286827 1.4485654346057437 2.3637506333067226 -3.173844047172669
Ni 4.561752051512579 5.5169632619756594 0.8459060265768386 1.3149377471145482 -0.6769940880743954 0.11458069816207363
Ni 1.5418638019895334 3.341934416650316 0.7060938751408561 1.1833067783384073 0.018049658412859236 -1.0478237828060277
Ni 1.9304788409668725 6.706866861613983 7.9484155123235745 -0.0594719301133879 -1.650183374093984 3.268880504654228
Ni 5.8580515014634225 4.310645672602869 8.374968076675392 -1.5814804123006312 0.09899569923962305 0.8144082391912167
Ni 7.813953583833625 0.1837334059895043 1.5946089592267136 0.3824364257326252 -0.32934057434891023 0.04680924704405486
Ni 1.6538016791730734 6.03663202123741 4.409371210184417 -0.07169495454214103 -0.6076334380923858 -0.291468224783169
Ni 2.1435010751555987 3.3402469109641326 10.673129509036883 2.3483422691714524 -0.6670763147400511 0.8389769296695164
Ni 4.257899593231434 7.448576328075869 7.6489173719933365 -1.364805835589585 -1.4082189124678974 -0.46328502174957636
Ni 8.439409584799762 6.256109195209353 8.266322218781294 0.718042264264957 0.6863629308838051 0.23299156870351484
Ni 2.119857552863928 2.2874554536638976 6.11660780301722 -1.834006708602964 0.2571583957577055 -1.1471982055413081
Ni 5.153282733246635 7.294146504433662 4.986232580193984 1.3035426179037293 -0.13493123679396762 0.8833089188176722
Ni 0.054716680273825674 1.5348832456811112 4.302547489577695 1.868883722985807 0.03298905333151093 0.8878572003099869
Ni 3.4516407289373725 0.7514398271179593 6.9611287839434315 1.3612723685150296 -1.3043710273422955 0.004366761609127963
Ni 8.918845626526972 0.1517196710675095 11.020390515225913 0.5644201359297053 0.227477323753505 -1.799629516674675
P 5.24474000863228 4.920895679708256 5.999458945160114 1.8288627025081794 -0.8778270697674946 0.49088761395819325
Ni 6.826688986675595 4.2995523975182826 4.479592655817531 -2.0866440765618646 -0.7827816134248713 -0.145005333200518
P 3.0476905973036184 8.189990711576236 9.521012204755262 -0.13328701632232529 0.01847209066225851 -0.034416529806656854
Ni 7.838546904407683 7.520696448139504 3.7462672339997902 0.5554295023953209 -0.3515443641394591 0.041001896333658416
P 2.756757239931456 7.619088173120834 3.358409267245597 -1.378482304635413 0.1425751264924706 0.020034035832739692
P 7.391846628723934 5.497865861559884 3.0585063099775267 0.6820776732448898 1.9536437382420224 -2.788819291887578
P 3.924013222273233 8.19975611333399 13.253661360080972 -0.33788897813955354 0.07788359985135619 -0.1736854747440299
Ni 2.326627716805481 2.030687170430051 8.621168701349857 -0.6715402640486757 -0.6090886824816737 -0.6768935579407891
Ni 6.560810017004864 1.8825463024052083 0.12456558366802277 0.4617886397097079 1.021227777485054 -0.1061222829820753
Ni 0.2130526646191332 2.261359054254604 9.849459827878976 -0.668827493103203 0.07735703792392483 -0.5833205723786341
Ni 8.563095452388758 8.192692564942641 12.976027945065002 -0.7798443851734183 -1.3511260241096472 0.6277590051976673
Ni 1.3670271472898123 7.967553486646559 11.19375175511804 1.4364295705741585 0.08587047471157469 -1.345042794030045
Ni 2.247480933720686 0.8956256613241992 10.696207763030396 0.10189898892934708 -0.22452903975845848 0.08339990168389508
Ni 7.485470919608231 0.2855361055791378 4.94977876883539 0.2859886897258365 -2.6061035886204795 0.9823547545689405
Ni 1.0672228583869998 0.019990026374370005 8.511591487858466 -0.43925652004546284 -0.5967710414565851 0.1883819004139401
Ni 7.813732271612485 5.839332176092092 13.101962898101322 0.9963850074097615 0.3992265007067705 0.06505148108369442
Ni 9.051356318933882 6.287277333019747 10.71149951537684 -1.1965700711062166 -0.34873903348018004 -0.020469580708261523
Ni 5.926363207054959 8.992109193066492 3.4433820945518727 -0.4826708824753558 -0.36623719026494345 -0.5297439247037585
Ni 7.432734061579343 4.522367697492405 6.632897862369583 -0.047480819189782746 0.9511934984747876 -0.7697407210805131
Ni 1.9997772302109864 5.819847479289322 11.033320681745952 1.4276597948013283 -0.9481423703532896 -1.504132887458403
Ni 4.879860705372088 8.129074522707757 11.012954424595645 -0.7918861468293007 -0.6030568744652968 -1.0471758648093836
Ni 6.835596803576435 0.22666428835342947 11.883969244794946 -1.8003036599235638 1.1913954688838126 1.3225620964290254
Ni 2.360414715899351 5.075242511267535 13.0888713580867 0.8301850424094993 -0.9737937523728069 0.1553069722368422
Ni 4.075436888244969 5.92465725868368 3.5979151972306105 -0.351038371037318 -4.101896845864935 1.119910830580265
Ni 7.408057748922357 1.853167105049021 3.059504981375416 -0.4420284263636452 0.7008500687563866 -0.5000978197025516
Ni 4.267443682768048 6.026645307258517 12.153775584256637 0.20749393865304264 0.05948761384267175 -0.9534421852996483
Ni 0.9338361384380828 4.645048438743728 9.165679757434447 -3.5460230568433446 0.6231418181406301 0.5235637640349756
Ni 7.08538453050186 7.446473861975049 11.087009182325735 0.7808391449865197 -1.4980869383746394 -0.9948248620114932
Ni 2.4213309047678298 5.886167374890609 1.660890125189301 -0.9992900968716982 0.500514595524996 1.8124454374924206
Ni 0.4401143928363579 4.010039126898428 11.833209442608231 -2.0090504971471015 0.3044890625228691 1.0090448622656172
Ni 3.2476554104451503 0.5813171227284966 2.172010699909561 1.024438571112868 -1.4886196223141526 -1.609254754200422
Ni 6.970283732824543 1.1459362383720642 9.645056782569354 0.4848131256293393 -0.8838599062251359 -1.36426358993287
P 4.9268987737066485 4.195849179229619 10.67294047151466 -1.2158803413990544 0.31748161812779513 -0.25254635090699085
Ni 1.0019173104659331 8.49862904663951 4.123275369112649 -0.7064247346306867 -0.18848165921659799 0.8243545517706513
P 0.7281402609033082 6.344910723941332 12.850741252409769 -1.075067449013329 0.25506551778441877 0.20042829005551288
Ni 0.2790793215274107 2.4749898970514628 2.142642568164431 -1.005947454287216 0.83690462052152 2.0353459405085204
P 5.428401488149915 1.2937451380651985 5.337597083816629 -0.5898763712192809 -0.640989130734696 0.5692669224990454
P 1.9271407149646942 3.81469420637317 3.5127265905087244 -0.19564706661678563 0.148596392985886 0.14851514612598937
P 4.569728512816127 2.0092106636370315 0.9164631290786802 -1.002436870030796 0.35147108769936247 -0.8574425925738717
Ni 0.10379082104286445 3.8995397791522906 5.0277341544630545 -0.5713261190209192 0.012498389577326862 -1.2891130727419604
Ni 5.084288648306587 1.9553856871875446 2.966271675415131 -0.5049744310685625 -1.0518246764353048 1.9473576481229948
Ni 3.7274603058742586 3.644514329659913 2.1443568157440027 -1.1299988109438863 0.9565449925946883 -0.10400060865338218
Ni 6.843960561266976 7.187695326065858 1.614098266700757 0.9190205132866688 -1.107938231599421 1.7320632395889268
Ni 6.137836255695713 4.415390902599395 12.62680924785315 -0.9582295793859625 -0.5610054538212016 3.072376489353786
Ni 5.526203047208209 0.045019516450923426 1.1271274659780228 -0.9364595346987227 0.14420186346261618 -0.09619551078666659
Ni 5.760342155830603 1.8804346149618414 7.6734940941508105 0.3899414758604188 0.49831038878482564 -1.109471637524812
Ni 0.07348856729767705 1.1315970507107735 13.473423473537633 0.12235519990116993 1.0537432336142563 -0.18626896783599534
Ni 3.6678443263049707 9.147101518604092 4.568006888162517 0.6269660769827267 0.29704674731221103 0.7333243872350079
Ni 7.3184078566760125 2.3797610925639088 5.393944097452844 0.2178572841652377 0.8074611184494224 2.299105129412195
Ni 5.957798763799229 7.4893992115334465 13.189054789925 -0.3881136786230606 -0.6039282213266567 -1.7430631902438565
Ni 9.189381374184167 2.9651319174762656 7.356573149211414 0.7162844010335858 -1.6440901167120523 -0.48559396965942175
Ni 6.201998357140896 2.4431486012351047 11.237830694629123 0.0780761754781365 0.755234557044538 1.1833697703658588
Ni 3.485538384141812 5.9048590362342965 6.018151528638057 -0.8343882818575695 0.03195881229478367 0.5430185303254778
Ni 1.6243671537616013 4.513164797630046 6.564943022734633 1.1920449295423534 0.4296488217523697 1.0524792793001683
Ni 6.224028144486762 3.7058362576004797 2.0714759349202025 0.8235425973923172 1.5456608314988605 -0.9424162665027899
Ni 2.8495977166992192 4.171126759859896 8.604473460667693 1.9131678896151634 2.2224320049291726 1.0741521362879114
Ni 8.30926877742755 3.5163561109354022 0.4956324077775573 -0.2781131436325016 0.4812089532178487 -0.514680602612733
Ni 5.986633901945115 8.627912269154809 6.803613499084848 -0.11563562178914923 0.8394176167513608 -1.2448885557059464
Ni 2.1598966222049714 7.9621590012563 6.228411048599567 -0.012310184825920735 2.095752723731352 -1.8693552633055872
Ni 6.929479292052061 4.838770402980634 10.69862375477783 2.3626671704345568 0.7751863175761166 -2.5375952593364364
Ni 7.935887396338604 0.55584593034392 7.342847180829529 0.5013646022301173 0.5332766204473656 0.36978017042119543
Ni 7.5699660813705485 7.037258343746699 6.183171142061759 0.6497936164002035 -0.09386866242570284 -0.6203945944127961
Ni 4.006101613630665 5.9160721887720005 9.684534272149257 0.04073450160488468 0.70280436426928 -0.3902083563685602
Ni 1.6748632255514575 8.28163241381283 13.386398897514548 1.3429882254938612 0.12205772326540916 1.466823095264351
P 7.970725628482883 4.1064298205469605 8.595080601148856 0.31714583205493124 0.08412443855474545 2.5571523555327573
Ni 6.1598476003564855 6.749995080708423 9.028206138468498 0.3468433591193639 0.7615067632064949 -0.5848799464459541
P 8.012673515731251 8.457031570407947 9.065954626320755 -0.07812091267314288 -1.014381443987182 0.6210669378894723
Ni 0.17130949117532002 7.582617763345654 1.6777199974726587 0.04765436865316954 -1.6490616017847146 0.4962028555235196
P 0.6497173532084888 0.7475576419054814 6.373862051003318 0.2688013793132726 -0.7886943793648804 -0.35340301461475265
P 0.597144635076946 6.317329688381899 6.284853042064021 -2.119676067316169 0.9786500520238437 -0.05870497004037632
P 8.299992106824812 2.066862497243712 11.722309888595536 0.004477833265695514 1.3950042135498362 0.7343443438590901
Ni 4.309990957281999 2.245913305487619 9.887964465820122 -0.1864026652003822 0.1714416730151757 -0.8052016329912842
