# total energy = -340890.5686701798 ev
CRYSTAL
PRIMVEC
9.05196914442220 0.00000000000000 0.00000000000000

0.00000000000000 9.05196914442220 0.00000000000000

0.00000000000000 0.00000000000000 13.24847182992439

PRIMCOORD
 96 1
Ni 6.4787026430243095 1.9247654979642599 11.598242134350256 0.1607523116221296 0.21343344406592918 -1.141021130196319
Ni 4.39726565993876 0.3388269794904395 5.824876182904349 1.0485426632499233 0.023190322073534258 0.4304988284574909
Ni 2.6482441464689437 1.4674237996589656 4.540198066014689 -0.7479105125792991 0.5843091615441485 0.8203765409595097
Ni 3.3034256863972393 4.204078530550121 4.797404343275516 0.47069751216356354 -0.2926751006070766 0.11024813222499079
Ni 5.050401454799029 4.710047408083031 2.8861262796093095 -0.5655624770642647 -0.7215543911832735 -0.2767494305157556
Ni 6.9117488556544515 6.163196252112446 2.77628334741025 0.8558968453533066 0.9930939953633156 -0.5993971662255226
Ni 4.765898058834034 4.51275973658901 11.302059887558853 1.2989290303911178 -0.06623341720693755 0.6269300815384686
Ni 5.733942814630548 7.9608177889018945 12.716162156696933 -0.5381177505897506 -0.16777476568654975 -0.9402925352915678
Ni 1.5735219321472158 6.399778522457374 0.5550024901833324 3.353350242363534 1.054300648779623 -1.297137999928966
Ni 2.6566262700662584 1.6979050426771234 0.29795824317346986 0.09112786645577209 -0.7693835948514105 1.2645698361849576
Ni 0.31804546830824304 9.286234293750205 4.907061710103359 0.16855895215074196 -0.8823041317022418 -1.1759511093042845
Ni 8.590373203663887 2.5253998707247205 1.631946962974975 -0.02359527082143678 -0.22257551557651342 -1.0816499873268532
Ni 7.026401099157239 0.7523643878258388 4.856704699537248 -0.4856322790965249 0.6445246546917803 0.20461790265682825
Ni 1.0732376913520094 7.511016381046451 2.4326045123602427 -0.20460221892754438 -0.9627295241388453 1.7895333087809373
Ni 7.678812736471304 4.007406392970374 3.7419646340153405 -0.30411111035816013 -0.3704316879622653 0.3765645403328805
Ni 7.658654000778843 3.790702247268752 12.762491946109215 0.09116797566508815 0.27048262367043735 0.21319227458940057
Ni 8.119109576532816 8.641254323254064 6.949764411239377 -0.7993588010572621 1.2513803340778769 1.0951963585527202
Ni 6.786741159240942 0.9226219737108529 0.5641160129023128 1.1930088361175197 0.13434014017718798 0.360141876000483
Ni 2.0577208234473603 6.250583964000643 9.22149279872568 -0.18756043295390923 1.0565313378823546 -0.7724326660903794
Ni 0.17216664621619504 4.829460987452111 1.4391019980269173 -1.092540923207744 -0.2318451138038975 1.128144788454283
Ni 6.465387196143479 2.090398432719827 6.810336927687075 -0.782833292598413 -1.5240800200042914 1.29909358099344
Ni 3.3731439541580537 4.188418623613455 0.5911651076469071 -0.46948215169922375 1.0083858885253794 -0.6418339952334946
Ni 5.882902021884763 5.850749426833294 5.17546255783157 -0.8685261040815428 -0.3599834960457478 -0.9532930613162937
Ni 5.610510160880033 2.8505466089704288 9.267187139891169 -0.4092640874484306 -0.4937189127594012 0.3394264978300025
P 0.24376500800634202 5.517763683149925 12.558041451286302 -0.838296358662724 -1.9099987478585625 -1.8032295753211074
P 3.8334909062800957 6.111790118301271 12.774494857437553 0.21921379819313216 0.022836538278541315 -0.6364971564016135
P 2.555045070272457 8.50912272697977 1.165155008691715 0.342534704441681 0.36266978462865923 1.6826582067932374
P 6.361959394606856 7.858666315040457 5.986137016474708 -1.3266493791245215 0.10249959862782347 0.9293458064720768
P 4.840187571105263 1.0077014334205248 12.82191088316914 -0.5536274161895754 0.5093237091761939 -1.137666611901789
P 4.090313380041433 6.089504169816835 8.15932295027047 0.0497395333169724 -0.2161413299153955 0.16888085426653496
P 4.674916715122798 1.0876665304601292 3.7633082724927784 0.3636766286266188 0.8504826163162708 0.4139807761978096
P 0.06893527241398087 5.786299405221116 3.6775109916154314 0.8444580073887458 -0.5314341679219879 -2.095203021875469
Ni 1.233575224050958 0.847937795576943 2.577450504752017 1.9602234483420693 1.5827433381734548 -0.7355388783878235
Ni 1.8502315825211875 6.259038503352578 4.916600675380734 -0.0551182811303825 0.866142948561347 -0.6366889606974454
Ni 6.147608760930399 5.504285300821198 9.048401946441142 -0.14564708054957498 0.8216276397577915 1.3017217626449065
Ni 8.513205165146497 2.34901319640802 9.978881934725242 -0.26360158027988795 0.32151773587038174 1.4879354517629342
Ni 2.453717325619827 5.044381895196206 6.99128488934793 -0.16687642224199647 -0.18225573291154418 -0.16135163576902534
Ni 0.839714081442861 -0.009391418177336373 9.046520042017944 -1.3980964793219148 0.003979810583354436 -0.4324004163555779
Ni 1.3410854637543066 1.2020472148830905 11.137327623751377 0.721705572049157 -0.6197273931424423 0.374923919405664
Ni 4.174858773560779 6.976298448929232 1.7387031736333383 0.16158997703207656 -0.1641176285499367 -0.20612945420534823
Ni 5.405863238322713 7.833700983635065 8.08958295778327 0.6201935341455835 0.4263099871871239 0.1331273508160094
Ni 5.312374499107744 2.982596737520774 4.818800483175052 -0.4735043854847394 -0.43037207307163944 -0.14572189965156837
Ni 1.0820181015997359 7.536488622734185 6.858495214903523 -1.598013376958648 -1.726467233558388 1.6601479415058633
Ni 5.041168446084924 4.1986835568308996 7.289878580768193 0.03254270982271169 0.570387923477366 -1.153888215966974
Ni 8.416104690169833 7.061803351197299 9.339377500475338 0.17024071072853908 -0.013675440604563546 -0.7025498250563127
Ni 4.7067343873091465 0.5119920579234637 10.455535104393942 -0.24539482746387414 -1.5627239576287344 0.22318358147415754
Ni 8.029576547913987 7.185570927812933 4.814322473948712 0.7470641054186037 1.197224416860764 -0.33344431210463865
Ni 7.4758494802089075 6.16325056392841 7.0492736152541005 -0.7951907857225015 0.7266657442679098 0.789813323460672
Ni 2.3668093681059896 5.289518276555673 2.646196591007051 -0.43044097863636194 -0.30084195268858516 -0.2632287703215015
Ni 2.4382565620083665 4.906475142490934 11.272833794190982 -0.6394780934068084 1.0494248087445603 1.3007046342343018
Ni 0.9937704526254204 3.5558398510960587 3.907239110785537 0.5752069421325642 -0.6427462226351188 -0.5031281218884432
Ni 3.518600049282505 2.798932279864721 2.690088685079424 0.5326587843577084 -0.38719708034606215 -0.17159465365327223
Ni 1.0509155349902635 3.113108031285435 8.159058632766106 0.11081557469268657 1.4262222910238533 0.062347966109602304
Ni 3.422821161827666 2.3700590250945814 6.977850861668908 2.039293612302359 0.23021709128217124 -0.074190210160169
Ni 3.937950632320059 7.042549812437594 6.143767105147785 0.09415714020039913 -0.5126759134778783 -0.2902580065251517
Ni 1.0656792969635025 7.0689815628740496 11.291871896080691 -0.2619334485488457 0.6087878634118031 0.10859439867165169
P 9.512171448165931 5.611478721598082 7.741108389383524 -0.6565360773303597 -0.5734066556990318 1.7901861118735876
P 8.468497488637711 1.6062085933890102 8.031992518527511 -1.1638023897568923 -0.5506287385725678 -1.0343848836923022
P 1.8327250738416998 3.1417303582991583 10.289809839551232 -0.6933756147562122 -0.08055574736688062 -0.42730834654465116
P 3.8679155456327803 6.094156882051197 3.9974745722241827 0.685673103905632 1.8126015034543106 -0.02521635136462754
P 6.809190043173275 4.078029857663943 10.690576729559318 0.7989898477536175 -0.44718503086392014 -0.6772869367244658
P 6.559980275616409 7.697885235844458 10.306503481385105 -1.356257688909258 -0.5240216775080007 0.01737294406080879
P 2.224738709510043 8.508425725341548 5.561192316392726 1.6835460087148295 1.1652368082105737 -0.7399737742307256
P 6.816748437561781 4.164611944281989 1.726924751144326 0.6133114623137697 0.16325528054964142 -1.6181155470251618
Ni 5.363979776244124 3.1423368402441043 0.25274275118540923 0.305036707496223 -0.9827206225487914 0.2707001389978822
Ni 1.1536372829193364 1.159883141755348 6.8071705488162975 1.6074161583297863 -0.8476826849736305 0.7866706640666322
Ni 6.865755799501154 0.5302498800571384 9.33736434249689 0.19059382046359433 0.5245276706101417 -1.3235555706905464
Ni 3.0100513604912424 1.665743395656327 9.102243965198362 -0.3880056922902866 -0.36287830109503955 1.424309904492489
Ni 6.185871435277966 2.353186154268022 2.647004931868002 0.23114037442738902 -1.3773121955867118 -0.06745237721570319
Ni 4.291439086530336 6.681711159133344 10.431038664999717 0.09458060089106292 1.490772406991097 0.18935557718111906
Ni 8.073695846416483 6.960131631710223 13.73853321160969 0.8344471601199628 0.7114126747635813 0.4223008660277308
Ni 7.562857009385349 3.8610541528824953 7.991173568041844 1.1664477977995396 0.10325473162629313 0.4043931325093745
Ni 2.927805167181095 8.578868150648567 12.275054260183673 1.7178100721040221 -0.49440462597251633 -0.3838273925428809
Ni 9.080664070321474 4.7601047984644 10.039347279439435 0.17913724188722052 0.12957974267406716 0.28075495213072293
Ni 8.540895139319481 2.4746545306744574 5.778426907496943 0.6514794887430586 1.1515976201605846 -0.5446709783272362
Ni 3.6829113965162494 2.4002201868939883 11.571003853446715 -0.21640718198227246 0.6002137485895469 -0.8060698945288505
Ni 0.9790610024681468 3.212951252968346 12.474655615037817 -0.01799232281236256 0.6770352257249759 0.485962151632118
Ni 2.8946749594422507 8.625739247826637 7.850673426124227 1.4330331432980996 0.053235462285372834 0.310477161785504
Ni 5.769842924983624 8.20340151491099 3.935935663947746 -1.338525304626501 -1.469056098359928 -1.933252061959548
Ni 3.1470438642944316 8.35141026538581 3.6094800109372733 0.4180588029219252 -0.7670744871022595 -0.508294239470415
Ni 3.4433872361398663 4.243282609707753 9.106748225135751 0.39507288354971315 -1.0982742261470957 0.6309916532023521
Ni 7.408873959154342 6.091758110179396 11.604879943458151 -0.6673905035463603 -0.2097343979477872 -0.9265273631866753
Ni 0.7906849947771022 -0.12729693945644693 0.029742960816474078 -1.3976233963402382 -0.03068303090615361 0.4412807495643432
Ni 4.5785856575389765 0.48748385096911356 1.711014104657286 -0.13327776035094469 -0.7959189221377776 -0.4214326044901645
Ni 5.858126781835249 5.614339143905588 0.36944164495315696 -0.30904917108972585 0.14173668975157525 -0.007672686053909365
Ni 8.296881202156632 8.745623529600751 11.296376156018082 -0.4492259725533489 -0.5987855007834526 -0.2839446627126142
Ni -0.1503794612417074 5.037728697740454 5.664331360107799 0.6955029455118602 -1.5042079636707126 0.7500414428793728
Ni 8.2972975927457 8.836143222876283 2.489255357199801 -2.3629160532205695 -0.29783504754146123 0.04711777942340918
P 8.491580010422972 1.6926639524364702 3.557638477401443 -0.5589334017835212 0.8093591068030835 1.0249710465775703
P 1.7239928182791318 3.216825495840539 1.6332051867115047 -0.6034386832847478 -0.20736795459813967 -0.12259354116422112
P 4.859975176055293 1.0035375275298504 7.960357948860055 0.5800694124311881 -0.19941424696870172 1.3439958408227692
P 8.536088543606551 1.4876821070140296 12.373212005177793 -0.18801628954440522 1.2549765360695677 0.9843843834044596
P 6.5431164567591775 8.009988086289162 1.5193350333586173 -1.60636329158524 -0.415411080886433 1.0087435289751143
P 1.8924409154955677 3.102834046098662 5.9483124574425945 -3.246802184697951 0.702500716985932 -1.165363306486109
P 6.833557944603047 4.080102758639953 5.894470438685375 0.6908101680218813 -0.027725490939726444 0.5061761646861476
P 2.5368506119240752 8.482093546567697 10.152953115287957 0.735399781706798 -0.2763830483152724 -0.43667461825089954
