# total energy = -340870.88676425867 ev
CRYSTAL
PRIMVEC
9.28358476342272 0.00000000000000 0.00000000000000
0.00000000000000 9.28358476342272 0.00000000000000
0.00000000000000 0.00000000000000 13.58746470039776
PRIMCOORD
 96 1
Ni 2.8242893325803 2.72058240566377 6.2133845436012205 0.20060055396731905 0.023925143357029763 0.2828599142888677
Ni 5.088221480604001 1.6834667185739667 9.872475182623765 -1.4620701539603984 -0.020234067658687734 -0.8471540661636701
Ni 4.011019273916528 6.795287071993456 3.0792045052705634 0.4006526916303358 -0.6540331084028478 0.7890543338074605
Ni 4.469721203819469 3.2173934515807083 4.5862719704449795 -0.17804555148493853 -0.19271318079944227 -0.43627018372362936
Ni 8.346685511781766 9.176053135982114 9.757525834393485 0.7871272919880766 -1.0852526170764472 -0.09220233046687346
Ni 1.1771399981346538 8.579313582202895 5.108302803100925 -0.2121455784924411 -2.1749169900673446 1.8227828148626868
Ni 3.9779789952578635 5.858796161633424 9.523984259218208 0.42096826325923625 -0.9391147129333827 0.2795971843771959
Ni 4.06982150067235 7.787405223073553 7.972880109071223 -0.9630012897429931 0.5616896243724198 -1.1832532993926526
Ni 5.732316600957494 0.0973058951280649 7.148188626584945 -0.3248956512036792 1.475584386396749 -0.9463726800473765
Ni 7.472032560439819 1.4378044949534112 13.558469650686156 0.5801519448426653 1.651927353368284 0.16858903405772901
Ni 2.821095779374742 4.634142775981198 2.3709310341457277 0.7376140157492974 -1.4329110158979388 -0.8337059110785643
Ni 6.887185278917342 7.060816167299749 10.607706327580866 -1.4679271269618075 0.4428807470616114 -0.03994620137563443
Ni 2.0911832002067823 6.696713967526558 6.300398656509282 -1.0911021338786886 1.1005571086440014 0.9765178361721891
Ni 4.722438951963931 7.983001073329071 1.2149464692809144 0.7940985810995872 3.301828163224843 -1.1859287893422867
Ni 2.728575572262564 0.9799752220310577 4.273529347413381 1.1173451267356176 -0.4492599111150779 1.1987493381457226
Ni 6.879442769110845 8.911489533505407 2.673238907749865 -1.131112098612723 -0.5640028458866286 -1.513424340062658
Ni 1.6299004337016743 1.5057789035903135 10.70584867370841 -1.991862929624221 -0.02120825864649896 -0.060018546645477275
Ni 5.908574743866566 3.9416430439597434 9.306747444202587 0.2971781306837527 0.613058465762699 -0.922683821070869
Ni 4.527595072085305 8.093754241184607 10.325644095926382 0.31642540894913895 0.33759844348232826 -0.9053175618782796
Ni 5.411271667949935 3.9713412320544514 6.748092111437949 0.033299899703710396 -1.8264504935222607 2.1228454661830862
Ni 4.832068806046584 1.6286842840797904 2.1937371058787476 0.36118394411175214 0.038399425713804836 -0.462022610097385
Ni 7.004177015825596 7.043409445612479 6.173899600305062 0.7339625350396392 0.3730056193370286 0.387768636578816
Ni 6.366747509430216 6.220855972728643 1.7726754709523584 1.3402800825340788 0.47969354501458683 1.6613136796791905
Ni 5.825560927691862 3.7279534867343656 13.28246681489582 -0.8033278130073391 0.9760259841374352 0.5248202621498962
P 8.858833039953302 1.7660163555036765 11.71441919394807 -0.03723008799605201 1.4401167896177585 -0.39235085663285973
P 7.65058374881916 3.069970123370655 1.4037207413520012 -0.18583033763667997 1.6279603010297252 0.20506321772436298
P 0.5438240482084078 1.1808627156795046 8.696100151884862 -0.29176595852924586 -0.288507085272316 -1.0845152246897902
P 8.966401938188183 6.979426978482524 10.41293021787201 1.8396027146335028 0.6546877112677113 0.22059859435580073
P 4.167735470611357 9.04918366474039 3.003576709242202 -0.21018459811132836 -0.09953254557969955 1.223233696440332
P 9.142065931663662 6.98049459074601 6.4887486687504445 0.6094463229314084 0.1710117845666087 -0.02229300707024548
P 2.137712527724968 3.0549771337573537 4.242455332036511 -1.0460726044428759 1.5339671972110163 -1.5029656066231794
P 1.1107530825156304 4.87707562564119 0.14532895145664065 0.06843582417489505 -0.8833138039136788 -0.004469862845895528
Ni 2.375595107199426 2.6876535300239044 8.486689398939838 0.17319850780528237 -0.936100351587091 1.1113305451104214
Ni 5.260237025213829 4.10621315347987 2.585381845332895 0.8850927501909723 0.404348138204052 -1.0411569123088134
Ni 7.049573745985998 8.94914375385931 4.911610561468733 1.545841580051099 0.7216127552250347 0.7564846274015552
Ni 0.22258787335191033 6.4906555170888796 12.485670648316693 0.31778629385240753 -0.2396026462621293 0.5804141973651166
Ni 8.258862798628927 3.8321524436505894 12.988583794588322 0.6813935026936717 -0.20692649618534686 1.080851402684958
Ni 9.028184195696866 1.364287786131282 1.9041607406063021 1.2973596290214688 -0.691293792526519 -0.4340983728832911
Ni 4.417631008946257 5.942682634788716 0.669128307036013 -1.4240733630016509 -2.7538425187020765 -0.705647747255346
Ni 7.977263817860946 6.377377214140576 8.568635602851057 1.2340176744297136 -0.3227089279650055 -1.4409202593556605
Ni 1.6960923940378 5.967544075150587 10.313891077443136 -0.6844585147722405 -0.15383527278732215 1.2772206921797489
Ni 8.477045610945845 9.129904435444823 7.10086369584084 -1.3599407941878 -1.2912614865435312 0.7658151607738618
Ni 5.247045051071104 1.0798387447990387 4.567045666117334 -0.3457421556353852 -0.2943064655629125 -0.5447558247315586
Ni 8.35555133536115 8.192819375651199 1.0621349483949725 0.3234702316110623 0.2014464469073821 -0.5162973122805495
Ni 3.508879450267059 5.221292386558843 12.021577740662394 0.5564941962144093 0.10345553478318958 0.0032056514214912537
Ni 8.173565220568854 4.938662927866975 10.908560391789683 0.004127391904812246 0.38922748051252964 -0.8596408857767711
Ni 1.0785111921583563 7.610376542617791 8.615634679765176 -1.1658137637599664 -0.5435042117126446 -0.6556163937295676
Ni 0.6057223505283403 3.6544924794216356 2.4721573871770106 1.3216501261377174 -0.48383276399394093 -0.9160642588718223
Ni 1.2834556124080498 2.3127266702574563 13.57024959156561 -0.18434269734755993 0.7640796661399937 -0.970308879148
Ni 1.6759562983899658 7.446530552719855 0.8995747350056694 0.37561014683941113 -0.6407163366892836 -0.5892824463890238
Ni 1.839041034326112 5.023338505738757 8.275962233656012 0.6625385747706977 0.1893506920851126 -1.2020028120860138
Ni 1.2686854288323448 8.723097745132195 2.884346700014587 -0.377395263764292 -0.47573018949146456 -1.3268866919463085
Ni 7.340706968446152 1.85358841186422 3.14230503183503 -2.9555681874127746 1.1870716446974783 2.1142628667203973
Ni 5.255028934084998 7.230399412665809 12.34968748177876 -0.19856475448421287 0.10541240139924427 0.7967241916478923
Ni 0.9914311657975063 3.8673557975909247 11.6220651630056 1.4383494133046906 0.1114454949672016 0.689830063496799
Ni 5.726096599074576 6.206373580284834 7.909684889940778 0.2983646947926861 -1.1586853802453012 0.31990642551920384
P 3.726263874282588 5.711883430592864 7.189114382257564 0.8089834686312195 -1.0978777620396254 -0.009408437798093474
P 2.715559986232936 9.215155595580397 6.456491924657331 0.8115129199212927 -0.5444912582162623 0.669859533912143
P 1.8695097599675097 6.326233944927151 3.1110407029677134 -1.257510358235015 2.101519193901484 0.34266043138626795
P 3.464216123313749 0.5131900747557924 10.943955915937446 0.6131265999964731 0.19481737162663867 0.6151390024408115
P 6.020256270212091 4.969846489545664 11.280884134350204 -0.7523677770197043 0.19182794998101158 0.9885989357064393
P 6.568953272134445 8.892885229366053 13.213904755334756 -0.8678121087336539 -2.6041585490789667 0.6733940294279628
P 6.398042474127702 7.105758001800055 3.928027738345583 -0.08859327295937647 -0.5319427321272903 -0.6138758194576718
P 6.6076472539971345 3.638051250563953 4.551936631692784 -0.07817516294984601 -1.1854665049938873 -0.23900692165965934
Ni 6.600925938529623 0.4724202833094908 11.212063062770433 -0.4175579520261067 -1.5013177866071112 0.18665951840619463
Ni 8.019550547079888 4.73850883742562 5.78566472158464 0.09069540690404379 0.21085437048484332 1.171937360159201
Ni 8.877780836733953 2.5476013682243543 4.770667175518795 1.366794840995156 2.517776681948612 -0.2451001790415908
Ni 5.596878380853184 5.458738637543008 5.219067111258343 -0.35669891175720503 1.7369876734737375 -2.082961485503955
Ni 1.433125568163873 8.150207720960761 11.205541344378272 1.3077337731669412 1.28799207176364 -0.10274102521466821
Ni 3.4411278476677536 2.552846593692785 11.816705732374919 0.22087781615911636 0.9734787922355492 0.5817416579272885
Ni 3.2758150513556368 5.248623260504083 4.957821462024852 0.6660404172763691 -0.38733951946119743 -0.4311344051589607
Ni 2.9908554128539 0.3520781006108702 13.451617445205548 1.3106915702436845 -0.4152079637366914 -1.3750725076229156
Ni 2.590797888763484 0.03470018363876172 8.874571501434065 0.08844954829266058 1.4536770448006964 -0.09680357668431071
Ni 5.129793373785652 1.4112905764793613 13.104199704214414 -0.03343076885461985 -0.292911899208231 0.05426981708715815
Ni 6.836738278571408 2.71224574642368 11.209712459073785 0.8683952349306334 0.9693184902102726 0.055382076314730425
Ni 4.416906889324067 8.231327685815891 5.246949430146635 -0.43303085085072524 -0.6699976021519042 0.1489000402692339
Ni 0.7513205259470774 1.260645844309051 6.369871435749024 1.8108258996111264 0.0560778168301744 0.5843389863408195
Ni 2.16706722317838 1.8319762262173056 2.15345006084724 1.5686470079813888 0.21073404285689515 -0.20283715660732163
Ni 8.706378008727517 7.081407158607678 4.052800976116916 -0.18520401690659072 -0.19824722324379404 -0.14288880107814744
Ni 8.768503758877497 9.044114827385055 12.478129592302524 0.7120227975437544 -0.6744533239304127 -0.6822494229360637
Ni 7.061410316733341 1.7598427715452583 5.915398178767976 -0.1529585266093237 1.1850589851428237 1.1915841878558509
Ni 7.233676518135467 6.14145347107999 13.091087568901829 -0.38138355898807863 -0.2630590775128566 -0.0636646280384968
Ni 8.188651046031154 4.615687009200242 3.2898787541204615 -2.96315679839331 0.8201837082224133 0.3932016346689293
Ni 0.9819340584449318 5.136496122083363 4.720326008040719 -1.0961404676335444 -0.7621212568620422 -0.17462804116295733
Ni 0.5738285946048115 3.442863878044031 6.982870260121888 -1.1334926830297576 0.6816323581773551 0.17030755941073253
Ni 8.950081395934198 5.979714854954327 1.4021453169944922 0.23574444885830367 -0.7302442056477875 0.07904316737709613
Ni 7.309152063371469 1.8301659271618294 8.78027441617205 -0.3152529859075926 0.48654656338067814 -0.8826766845503121
Ni 9.23544022858663 3.119925093716896 9.571091954075657 -0.26871293336452434 0.00861242425935936 -0.338995580940171
P 7.87170945754934 4.136978953838064 7.981236263839603 -0.3860405981441158 -0.3630017140467813 0.3808909356223763
P 2.821448555600938 4.047086001252551 10.144455441076984 -0.3720563680498818 -0.11315810678293416 0.7656742643206232
P 6.377665005272472 8.227020102422347 8.697187259676637 0.36097054254936545 -0.9393286287164017 1.4146289297592993
P 3.129812111635265 7.4614028557294585 12.733886786143207 -0.08718739375078532 -0.7238460154309275 0.07244545955492039
P 4.473694578156617 2.0214820447785025 7.526232914160772 0.9023739058689233 0.26414151194375796 0.5392302669276391
P 3.667684453564361 2.8211514808841414 0.725901142132723 0.30141453736260343 0.2531852700425704 -0.6534121869893973
P 1.2127703969803831 0.3122088168998567 0.7950592078443599 -2.3343220436329606 -1.3895537319582263 0.7194229466625673
P 9.114558669605326 0.5682278078347155 4.22734536925347 -1.745408293437265 -0.37426803098921996 -1.1841210467095866
