# total energy = -340862.88747605734 ev
CRYSTAL
PRIMVEC
9.33030644096388 0.00000000000000 0.00000000000000
0.00000000000000 9.33030644096388 0.00000000000000
0.00000000000000 0.00000000000000 13.65584659817933
PRIMCOORD
 96 1
Ni 0.6574507161435473 3.0629716734365924 12.068395020355386 0.7932220920319049 1.985785870192206 -0.9890594202826257
Ni 4.02550475101948 4.829347975909228 2.4795326804529148 -0.9190691071364173 -0.45157930327687384 -0.34113962386636737
Ni 5.027766273614563 6.8223574228971735 2.856051600462326 -0.147110809579295 0.9204251069436793 -0.2488431910237908
Ni 7.4391933149124725 4.012806203893694 8.056102916349001 -0.9712401327130177 2.254519886602653 -0.739698666192468
Ni 5.714066297409049 8.487136018057038 10.537438212014775 0.7126917985863209 0.11596138055968415 1.3465098654938743
Ni 6.728559851805679 9.290550048848488 2.428146017487988 0.20501179566113725 0.4711649387182853 -0.3892997285113618
Ni 0.5432001802067662 6.474588909289963 12.214554271439466 1.3559157321888067 -0.062201156119092875 0.7926088839279382
Ni 8.936558220815927 8.026237538321869 2.7801803472200395 -0.696722162630942 -0.34328212413066683 1.379895640043172
Ni 8.12955202202784 5.043543821880325 13.232897510291714 -0.30524856639671305 1.4675674296295433 0.7618124673723718
Ni 4.252744365456301 1.0771838836678664 8.94597250005907 0.2919526206187552 1.4792106702954266 -0.20265563672413486
Ni 3.3620453174997342 5.547109793170394 4.692790543228634 -0.5839034414652977 1.7727396342623665 0.04403348407113061
Ni 5.440305774839116 3.025893035466076 7.3652403726834565 -2.401200807733381 1.1293601489186227 0.9947978654282997
Ni 2.360147676857559 8.487108027137584 0.7596157060905928 0.25136929987975415 -1.2587254615890386 -0.1495916670196198
Ni 7.845658786615435 2.8381019568469057 12.884496401904837 0.5640871780703188 -1.149969340528542 -1.6565368271158374
Ni 0.4105176238093018 5.039737056834536 10.308047961933214 -0.8424726015276006 0.36088775302757203 -0.04752967014984718
Ni 2.073352716128387 3.6852844553584574 5.1970329617388495 -0.5368355414432173 -0.22196744967886936 2.0669813080256145
Ni 8.885138901778305 2.7666318091734903 4.544119573638851 0.2119730574703188 -0.8982274878007175 -1.5530064732306543
Ni 6.963935493497227 7.110160056726701 1.3847163835901106 -0.25141583684697344 1.1937169179281377 -1.344519574536723
Ni 4.690205115301702 9.01096741503205 3.8418535293876075 -0.3361347144526082 -0.029662817171755364 0.8302002119181509
Ni 9.215413090726551 7.965058718701166 0.4907694559461927 0.22321726292557043 -0.23934784993884586 0.43879295014548303
Ni 6.635060850521698 3.915994943807616 5.490305954260404 -1.331700568395184 2.8220438582686627 -0.10664447403413246
Ni 8.349663282310289 3.1108454760099993 9.792238762473817 -0.8678211075947182 0.06723563321920678 2.662663487293395
Ni 3.315253830478562 3.0446189605810297 10.314602502238772 -0.8815132603698304 0.8652389486898389 0.392349313970963
Ni 3.5039312882137863 3.4407277920858856 0.5506914832833961 -0.11957352339097473 -1.5010017980285892 0.49402590247685885
P 3.2428133309307294 8.453416290421043 5.443370780519366 1.1899014008367896 1.0677580598361094 -1.894044538522151
P 6.272410498071263 7.307635993477073 12.830896590241721 -0.12718887384438743 0.7276306792843403 -0.8942150242072148
P 4.534211721182663 3.8830962831422813 5.072573204446423 -0.38843018142221486 -0.1845149612593661 -0.049841863222791584
P 7.049811634383143 3.477834420975856 3.4441277557689394 0.16044866433878174 -0.835594900571161 -1.2947674428142604
P 4.515728384036313 8.97761156934896 1.613766077484978 0.2866990855292998 0.5120891877364728 0.06862222915408826
P 8.104714746165355 0.9567389572558397 0.47554052970173455 -1.4387307079035092 0.06180340646004195 -0.6711887942465279
P 8.424511000931194 0.9489574816475332 10.308157126519086 1.4276644227870185 -1.1194200069867755 -0.028637975451666808
P 1.6652637710970737 2.873155918310225 1.6485205361101356 0.41367712891446173 -0.12059142313252778 0.5788987891618546
Ni 4.997536080603875 1.7534165067652765 2.6621939565667523 -0.08163432514304005 0.7166032178255852 -0.9056705743423242
Ni 8.497511318868114 8.72747538279849 12.136237544867518 -1.548521183765791 2.5682556645347705 0.9707487948988959
Ni 9.040628459347165 8.559212635651965 7.41923485631088 -0.8950169512832199 -1.0018100350800747 0.5815369981156501
Ni 0.4990239780932777 3.991038598864703 8.214565109563914 1.3678855029561732 -0.4303970127723039 0.01691400214651926
Ni 6.2885705889029015 2.5530984149628124 0.7707262350526691 -0.9390023557252344 -0.07910770206644441 1.4456953121468004
Ni 5.704810633376148 0.2532497098244417 13.411338688782486 0.8140912221714303 -1.180803038079947 0.8653829304668709
Ni 8.901616223030427 3.216445884804741 1.4288795232745204 -1.159778356199164 0.0025849871183568386 0.25596694655276564
Ni 1.2288573458844523 0.16996366201870036 5.9819571241694085 -0.3418595327515273 1.8069409627344237 -2.0282201280970167
Ni 4.357607680038744 7.987479445184093 7.324777632550911 1.7423165418858189 0.9851238326736452 -0.1991684495064828
Ni 3.8772741718957784 1.859819321917709 4.768648734041842 1.3868273341659987 0.46477626158312213 -1.229763784249366
Ni 6.599157831168263 1.441317754849381 9.281155363248962 -0.6946699080876036 0.13445224027502006 -2.0029276720788154
Ni 1.6604400026444424 0.30574014804651783 8.473288910202976 0.537266715443365 -0.860424043799699 0.11273233209942521
Ni 0.04171113514020959 7.979613996817423 10.259159955044913 2.8873845884580014 1.2386276623978991 -3.2928323874841356
Ni 6.67268064626833 7.999814110356972 8.396146869217462 0.2823312954789073 0.3058887710838732 -0.45168137607237696
Ni 2.6145384831650893 5.797609861673771 10.839983663120906 0.2551081980968961 0.4778768035208222 -0.2551236247158638
Ni 9.017088096086065 7.526385029012744 5.345280335414224 0.9293625186426251 0.12449101529725012 -1.6318395814794735
Ni 3.350391764700244 5.635281189451566 -0.10519920561589602 1.0117134102367156 3.7795509576663036 1.5848287599475737
Ni 5.556309475364388 4.004026385491517 9.958157736631364 0.8340506960124926 -0.5840705631707812 -1.1561086206570605
Ni 1.0392468575007505 1.9882136694547685 9.882353661595769 0.03602809726815085 0.49792832285505856 0.2688270903448854
Ni 5.226109928868018 6.935963234655857 5.348203520435906 0.20667401385490855 1.0368516000652401 -0.81764165852685
Ni 0.05558716694437461 6.381267183829193 7.544664032447076 1.005637379245965 -1.083936469368185 1.110199773940088
Ni 2.3364860196121566 5.397386365009127 7.194965078428165 -1.2629055611086573 0.6424060656868807 -1.1701910668920557
Ni 8.843628368227519 4.4099227084989066 6.129440345743681 1.592013450621471 0.1732051926735017 0.9523404675950372
Ni 0.92333459397903 1.1556797521243218 13.151468193476445 0.18116224273704928 -0.9506926475789691 0.7477577890515187
P 7.792158809231705 6.263145503731876 9.060804314089854 0.506450758503773 -0.8440065216736239 -1.1344596749287172
P 4.9264484754963345 6.821088501215244 9.23405597611379 0.9276596770189056 -1.913337582423808 -0.24840816036890123
P 8.760243419173039 6.019288613445662 1.61771279712804 0.9089944965092345 -0.9496521221295967 0.737313196679427
P 4.283161164596684 1.2695001609321546 11.230117366352909 2.212087685580371 -0.46358275549565325 0.1838621581667156
P 0.956860251240142 5.772660622133469 5.15820955645568 0.7201356564588759 -0.6514378368718459 -0.0611230925635657
P 1.8791330563412039 7.044334744476577 9.198428200801658 -0.9510042652821171 0.15432095417448907 -0.9500143905650219
P 3.015890946914392 3.8592853409931225 8.280263529645845 1.6223941197958576 -1.8277219040355168 1.1271777965553234
P 5.491986342458313 4.7858594173836675 0.13453835435728714 -1.2786142300931655 -0.7560776217711237 -0.815640311826105
Ni 1.1507720109133275 4.470709655247249 3.098579855105107 0.13118308260544506 0.6649204447393129 -0.2380496999527126
Ni 1.931662681850516 8.44212661957446 3.4978628568760852 0.42455186684543655 0.1264854200194596 0.06522065967170702
Ni 3.5650541259955806 1.1719611369402632 13.378660223350193 -0.2599344158409459 -0.2841904601748332 -0.8066833597431332
Ni 1.0737410005749828 4.936431903435049 0.5743596717433379 0.793244460629408 0.0796337497732435 0.07119050410189676
Ni 4.6453450017228795 5.601962664994416 7.163624578945789 0.8646077428637432 -1.104073349327376 0.68494933836573
Ni 3.6580959422618085 8.400074928247555 9.537338521432217 -2.5178774691925345 -1.2241284403404595 0.31957526743203024
Ni 4.833024116664231 5.542836512800365 11.537729173880273 1.2969922183797211 1.3407637070387166 0.9840645381711955
Ni 2.4176037041908347 0.4059187157429537 11.000098253614272 -2.0691276649446557 0.9597748123858956 -0.2594101679063597
Ni 2.760492467506505 1.0184869255721147 1.948975998563674 0.8939370879554798 0.9326404180629486 0.8223493484151644
Ni 8.209139536343013 5.314449270665917 4.05827185436338 -0.2576523046749885 1.143865027403017 -1.4328521376355452
Ni 5.004757737823095 3.087668994701805 12.334055903865881 0.39469827381911377 -0.17291054425121832 -0.6317809818728668
Ni 3.6673049547622862 8.084607935690654 11.992701042936309 0.5666127727056499 -0.9161354784293899 1.246595511094724
Ni 2.1592008660948494 7.701039036101342 6.967295336862396 -2.1411062121654867 -1.3336330095312063 1.77716578835452
Ni 7.620173269797753 2.2344311272816313 6.442623279273107 1.5597767020749524 -1.1572599606526845 1.7238596207322117
Ni 1.8097808882398332 1.840589560252577 3.9527535522657042 -1.6541744975312478 -0.6949594143035644 -1.1517066349346232
Ni 7.024974358520659 8.59966884456997 5.907683219397317 -1.1597773277578993 1.1309151521105685 0.28260691773779717
Ni 0.3759180482717916 0.8182025665698243 1.8589973219163998 0.17419146784617098 0.1648236534780258 0.6881940705552729
Ni 6.327170066830438 1.7340467905028727 4.633551494326118 -0.29575682485619387 -1.2589931134281285 -1.014197353000834
Ni 7.320558467958493 6.21103574201438 6.437885349640135 -1.3267895042468119 -0.25177630551018576 0.5174208843620314
Ni 3.1927282457204296 1.4139799568489748 6.746561745137413 -0.6504700736419378 -0.18945019377745437 2.005799594309971
Ni 8.735993952619094 1.229715734081052 8.09188090959554 0.8019916106944188 1.5110614962574362 0.9672196986997149
Ni 7.868368752599389 6.774810181050734 11.16278054445225 -3.7523684837142413 -2.7618407064162045 1.024004568899243
Ni 6.733131701983221 1.1372337362039113 11.554334320331236 -0.6348259393467776 0.6689159390519511 0.778848339808736
Ni 6.482435697043663 4.932774423293016 1.9122416489024463 1.0170258235885647 -1.2061787978405745 1.1305729382798013
P 2.4955770754841424 4.2888526515524 12.370039163855084 -1.4049597821006512 -2.168641441471278 -1.7647525022918318
P 2.516346337719263 6.6566045281950545 2.0408254016611465 0.8037170780259578 -1.3183233757573296 0.33035744564919883
P 1.3664886968414443 8.449469570777982 12.49367972023815 0.8896050362390292 -0.35832179207260867 -0.8161751012836524
P -0.08546560740058604 0.6286303324427099 3.9908669212253827 0.3999047577207177 -0.724842575016242 0.6913341588461512
P 5.892480418011016 1.096852169737783 6.885031890647387 -0.4213099628693712 -2.9080734842659206 0.2198791996912729
P 6.951339579742775 7.515263303682885 3.8886384851942406 -0.2350682487268855 -0.10962052594332088 0.5742232380630562
P 7.235260806074633 4.3464859547088865 11.346506408536001 -0.19981791016502362 -0.08858118877451841 -0.7457358735254834
P 1.0791619086426398 2.337036507694758 6.979544163215616 0.21288811308542047 -0.8837449779138264 -0.9055291636684534
