# total energy = -340863.5818207761 ev
CRYSTAL
PRIMVEC
9.39409984068147 0.00000000000000 0.00000000000000
0.00000000000000 9.39409984068147 0.00000000000000
0.00000000000000 0.00000000000000 13.74921468700250
PRIMCOORD
 96 1
Ni 2.8295216647069044 3.0435098653176524 5.728857461310683 1.5643290973323254 -0.838864315351052 1.0189706060197612
Ni 5.610767050255872 1.1722521445810976 12.41213104329086 -0.8645097838332982 0.6922898378912014 -1.0428486981889393
Ni 6.633089361141569 2.102859858576556 10.103335606499778 0.6229194177171787 -2.296821218474025 0.32390963314132604
Ni 0.8629720738550982 5.244594431984378 6.252262886505322 0.5960652736388121 -0.20829946527347354 -0.6317750683355958
Ni 4.865213709315909 7.025565459008747 11.35927133200456 1.325820198355007 -4.109006203216207 -2.918980360986412
Ni 0.9098984208637847 2.5304417076041172 0.1271763844351485 0.23814714476252533 -0.7790990223669614 0.19761396053516933
Ni 0.5654806590378932 2.9757971935584764 7.000467242424536 0.7471001008628618 -0.9642919835299587 0.43059575904667136
Ni 2.7393758824925514 3.0945761921327026 1.7190235143465749 1.0337439076741937 -1.0728002502457072 -1.4303813074975493
Ni 3.9689508243925298 9.387683685400194 6.14012457711902 0.09387226197012866 0.40595816300364923 -1.1633429336219707
Ni 6.2799275711700835 5.090690894050058 6.628428008793219 -0.5868077595962862 0.5434437907883544 0.6147967886100444
Ni 1.2961039570773487 4.7591637160460225 0.04222366062097238 0.14278030052474122 1.3957500905769253 0.39445144791563036
Ni 4.0755268872543295 5.280010188439997 5.811903182854171 -1.3034590570509874 0.024672305935699447 0.811743290764544
Ni 9.102535178383265 1.807734817512977 4.786596366444351 -0.4005156518318393 0.7884303270702163 -0.7097530276729712
Ni 5.681899174362487 3.9495332199910016 9.18336201354086 -0.6673102851277282 -1.042366359235882 -1.959583757875541
Ni 4.556279341464595 8.515300602309756 1.2168440577756672 0.21123463664239747 -0.6610043975143584 -1.4250123298761523
Ni 3.4769254503555422 6.5018068156595366 13.240562890796884 -0.7588330730290739 0.4090889953231471 -2.2079206986868747
Ni 6.6523472658455525 4.107213186067274 11.203424154810117 0.23247786229188994 0.42967813232840835 1.3399419824683698
Ni 7.640756876252527 5.524388302083615 12.940664707596671 0.20406125882240983 0.5936083274578874 0.5444202957690107
Ni 7.955515586014314 9.126330433317504 5.648191265260618 0.30773122360925065 0.6291288889620004 1.25804797590604
Ni 0.6721516023082347 0.2102343183084498 13.379828542336204 0.5884519800679285 -0.6332359691518384 1.2873482675320538
Ni 8.303266374468972 6.10178725560831 7.578663755026971 0.7467383466480688 1.2283908151612393 -1.1043669693083948
Ni 6.394394677910588 8.583868137155791 9.932034195632884 -0.22767401314534336 -0.12576139736924147 0.1439072150403328
Ni 9.345457206549266 8.30747493120428 4.065601081346902 0.45779983026528903 -0.8888555596675144 1.5573938036650727
Ni 1.0858452141092743 1.2978324714507794 11.419259235452474 -1.003489993885659 0.5986700582515109 -0.7954769495043527
P 1.0853379327170718 8.448029453243791 11.368427761133816 0.7710810371584914 1.0635039125454457 -1.072893324180146
P 1.4603879753521092 3.2361170946570517 9.088464695619544 1.0127819607105462 -1.061750677299765 -1.0997896343503575
P 3.209766644562089 4.154672178537773 12.861771178189361 -0.2854492722825987 0.900545594410933 0.8230049797212922
P 6.957561570154048 7.3849179607850735 1.6092215175943612 -0.5378734957894286 0.9198018715373836 0.3764287860859646
P 4.553075953413836 6.0285696413337515 9.057996811557873 -0.5097517978525479 0.49982502565713915 0.06346356777128424
P 4.928595701041653 3.3145860107508915 6.643002015309199 0.16333729874048644 0.16446189926323287 -0.2719661501944994
P 9.32686628293503 7.1450396209722875 5.979148221403418 0.5794425774804667 0.8675231167383252 -1.1539483797809482
P 3.6102934860055176 6.248335213355695 3.9208906095312726 -0.7787439530203879 1.7203006997363597 0.024642995359660785
Ni 4.283794081053017 8.358935810213268 3.3940619743492517 1.859370384178733 -0.46446387254902594 3.0678922283301873
Ni 3.522618352053188 4.052445583909116 8.488338596314193 -1.1930723423656033 0.17773444800242294 -1.0758796605019794
Ni 5.546135643249333 6.130946541560099 0.5708813270448786 1.2706466385066566 -0.17441463960057058 -0.49010059928052363
Ni 5.493115343664318 5.096627965158798 3.98826227546569 -1.1742724360502808 -0.7751999444228714 -1.7002838902948008
Ni 4.689816470911972 2.5396948959618846 3.7706667405103906 -1.0839878914314105 -0.274652695887727 -1.6247405085408468
Ni 9.1165135989684 0.7170901577874759 9.306141959243588 -0.5730068491574518 1.1144498074656937 0.8561462423599513
Ni 8.260025332833639 8.891834912721977 11.527726330615208 0.09300245777066564 1.1805356433511736 0.7279960330435592
Ni 6.100669357725494 0.5674045706883204 3.158277583253537 1.0515608812509567 0.025897179481736043 -0.3342953472510242
Ni 8.087258442389269 3.922769429502393 5.910086556904977 1.6080661332089596 -1.7261656431575692 0.36935156752420906
Ni 3.489879914056417 5.637953575237983 1.428502521622226 -0.3791402714798567 -1.467578485373137 3.164293941590389
Ni 8.78645190054184 3.546977252978763 12.370979249463412 -0.39078865435206245 -0.7405556148761245 1.0815481716416662
Ni 7.658953247672827 1.8596654015147425 7.258293010011449 0.40285946947366746 0.3442735415096587 0.37688772800025416
Ni 6.166766244309507 1.878284507428545 5.204476928551032 1.0651525038924623 -0.7408173531779434 2.3256941927546335
Ni 2.160699331387495 8.351448712628352 2.8563446380246034 -1.260579741188958 -0.2549814427110447 -0.9375365698129854
Ni 6.786805017078778 3.0378921936040024 1.2984026933120143 4.193943624590551 -2.2816403969685286 -1.0442854306354659
Ni 3.075092829032185 2.032714114954779 12.429510128023724 0.6392212402009958 -0.5070081736691398 1.2381494372098998
Ni 4.309073603764441 8.638156640221311 8.518119771676421 -0.7129093139137658 -0.20822490328179624 0.5943886572673376
Ni 3.0995644591560274 4.146546282162678 3.711339242282325 -0.8681368390629242 1.6952265303765515 -0.8094820055341929
Ni 1.1062679871953522 1.0984802784150585 2.3015638587222402 1.298675262509099 1.7182350754565827 0.24221514418431192
Ni 8.974286927154592 3.429682522181722 10.137447461895437 -1.3014194009131395 -0.4438721644406033 -1.5020402665954324
Ni 1.008869959892475 7.161723542315836 13.073082999751247 0.5271584233647695 -0.7734917034825131 0.4398663857153199
Ni 1.338414982826978 0.3915535972613579 5.675895405144772 -0.7783539166708208 0.58979075348401 0.5334787091558425
Ni 6.125638875141683 7.549004702962867 7.348666129442306 0.32648433584703773 0.34261672263252607 0.15695247826006517
Ni 2.639122048833572 6.135164492395263 7.53040344583879 0.8976890987987444 1.2998566844117099 1.0163858760117206
P 1.5020226259121352 6.632065404257308 1.534508362622791 -0.6641825381320239 0.05888134771724053 -0.8450020528176738
P 2.7311560451189005 0.6363713547782194 4.1310065621815415 1.2249123696943356 0.522490585575455 -0.5243584920221291
P 8.563069600075488 4.4810044193216605 0.9975810700959987 -0.07948925377557924 -0.47342262440421046 -0.21498073394839104
P 1.1671699365592172 3.5989548074798066 4.7039226512551435 -2.034861030452302 0.5264025190353515 -0.44798952904308653
P 5.174129288967511 3.869147907526619 1.9013930536633392 -3.7836004451453293 1.5541680976389232 1.4242710808347534
P 7.718370929259507 1.5460527719353396 12.261082372302656 0.6988345809882546 0.6760818606727711 -0.03425712141065713
P 7.430714197581131 5.196581187622399 4.526420195073566 0.4743963011713894 3.0888531468525704 -0.1816219559822872
P 0.3187878391898537 6.005845313783052 11.179253135881652 0.5124918224915302 -1.310608266501259 0.05114978340093771
Ni 6.735898389961272 7.515279884481257 3.9934177574664442 0.3290425834925172 -0.7332279708664597 -0.8104397414617721
Ni 7.015203766868018 5.616187445872554 9.334878510701872 0.2656864878333747 2.1141901045009335 1.2346180270178737
Ni 5.222865879018372 1.6550806948594516 7.924304628654062 -0.30440781566297254 -0.6502327608201511 0.7009966216365798
Ni 9.324592910769974 8.539152221843127 7.617243444313956 1.0588802977305054 -0.4522997263826662 -0.890210273923196
Ni 5.83325691123594 8.333045671011229 12.804616535257894 0.9332042609862187 -0.7320648037962941 0.8666584547451849
Ni 2.5532505820535176 6.991718517229014 10.160545674620392 -0.015133770317644905 -0.6233714176529328 -0.051126129251853884
Ni 6.928731077697206 0.41491108714232566 0.5462894524428847 0.46957599696461066 0.6700449104500719 1.0939054076554386
Ni 2.605585112349074 1.6211022356817406 7.499990047556279 0.3099356874597372 1.4866666123528396 1.7740105305549898
Ni 5.240338904749791 3.4333180388258397 13.347751448969268 -0.7857610077681693 0.9501773985054475 -0.7890005977513895
Ni 0.8842609829478625 5.3503344199590295 9.027596565015159 -0.13248277525347504 0.07204153924828238 0.33100433520457834
Ni 8.419941094675544 6.041242282038959 2.790733426403125 0.24989888598181478 0.24921548676154504 -0.669327315557757
Ni 7.446129915444173 3.3437734790022455 3.656947404118392 -0.23155252226414316 -1.6319797066017634 -1.563748799348823
Ni 2.107199932709844 0.04511422514654098 9.507980770511088 -0.12582850316175104 -0.7550869757230801 0.7969555909324081
Ni 1.313473647710356 6.222435680053802 3.6905228564122976 0.24660658838378816 -1.3295768371839618 -0.19433426134263307
Ni 8.306206727723776 7.983444244885017 0.03558015320309095 -1.0564884004595612 -1.3831203176280567 -1.0299738991088003
Ni 2.158172318526338 7.553391747595432 5.443258976910669 0.7225049280220008 -0.38291825046505024 0.5266038364128801
Ni 9.003333483908111 7.593908500272642 9.728614357359687 -0.2892341932463277 -1.0078819523057674 0.20548564997376226
Ni 9.229064309338362 8.702431071433338 1.9679530693702332 -0.6767302928900474 -1.050397971291107 -1.551839706616063
Ni 0.6338884941863839 3.8552634279400397 2.5936658784522866 -0.45595506374706635 0.1934400316631378 -0.0425854387706944
Ni 3.514661549475494 8.525079860259437 11.766440741455884 -1.9839740137944475 3.4878667602175866 0.6513568471222653
Ni 4.80987306706656 1.4835350373963112 1.0629705809608845 -0.6090511443755189 0.6627897715495553 0.3671794995735547
Ni 1.6767247009267576 3.7797912297001366 11.189331126206744 -0.07723362497218311 0.8150469012164802 0.7058830031946036
Ni 4.121435853248655 4.209392810196652 10.961149380124166 0.6181801032599805 0.7974250743696589 0.03772656801649631
Ni 3.2325003662126446 2.1708167769319777 10.023246208180847 -0.14141504474609842 -0.05129119407480844 -0.2178809383143215
P 7.338295043201723 9.358843798843498 8.170278799863148 0.05090501437998331 -0.013470780792925187 -0.45720256300092227
P 8.285953048435099 4.041764492373297 8.058785865136926 -0.7934329224911303 -0.7798448993940504 1.048557832758575
P 7.106072894771252 6.883846068587141 11.33004065089387 -0.10002234073192452 0.2159479829576668 0.005178973097778177
P 5.931876171520045 8.907203660085742 5.4221955262144395 -1.6070461765848774 0.4887818804691001 -0.6278983589890089
P 2.2954482997162438 8.980937949852358 7.456804431110093 -0.37500310938303155 -2.5331554783975276 0.14885813128770495
P 4.732061737962613 0.7030600696531348 10.230199167409735 0.3562955056711993 -0.5771753787128446 0.4507624638025334
P 8.34235522396813 1.210129155198883 2.7147689773307886 -0.9481315717200122 0.226599549134242 -0.026858257843424712
P 2.7952144120342473 0.5099577712513457 0.7907727800048868 -0.48399448638278586 0.7655503371482493 -0.14577152194258122
