# total energy = -381169.4367441711 ev
CRYSTAL
PRIMVEC
9.20944223405810 0.00000000000000 0.00000000000000

0.00000000000000 9.20944223405810 0.00000000000000

0.00000000000000 0.00000000000000 13.47894961422896

PRIMCOORD
 96 1
Ni 2.059452349581542 7.782338005035403 5.1399417650396515 -1.7233433432174257 1.5123838146132857 1.7380801352069681
Ni 8.346646588732185 7.288242210275452 3.2012905924994643 -0.5215991841094372 -0.4434294204762299 -0.5943320929977892
Ni 2.0046469577972985 0.8055618999121381 9.647774110412971 0.6419373535805784 -0.7741324223903054 0.15109036305233334
Ni 6.268278044439697 6.665591808908837 11.051094209800677 0.9553129199597999 0.09027708841970258 0.38477150162370505
Ni 8.586580191850132 2.7103204824936 7.421698082132927 -1.2211945545231162 -0.4768720164053917 -1.8772346660536636
Ni 7.577998896833622 1.0860234962454987 8.902711800527424 -1.3402430586485563 -0.10810357507816222 -0.8535465999535752
Ni 7.021030238737922 1.9207028902265737 12.864903101969828 -0.5205753708306131 0.12044152781822484 1.3063286652892987
Ni 6.835137643684156 9.022555195558098 11.82529795830543 -0.3158445967450044 -1.8129447457263423 -0.7806288287479265
Ni 6.9458719792267125 5.634999946531488 8.774310991609013 0.5901121413791708 -0.3319517867195122 0.28960494632218514
Ni 5.513416887829491 0.8247230657912001 5.173005505181441 -0.6907304638238813 -0.4276765285173474 0.6324566677836527
Ni 4.658228065600472 8.652943433859418 10.744906957038127 -0.7357448237510426 -0.4170298474367785 -0.646041348446623
Ni 6.792976816329381 4.093827387479587 13.551467033664567 -1.103417460910932 0.3616570270934288 -0.14399231855497138
Ni 0.2860489650437455 2.364883507122199 9.456493991549127 -0.47760220970319683 0.1518418965063772 1.966211547604704
Ni 4.5588858103195715 4.087850459355242 12.90511060658936 -0.782243224422898 0.005183343973152363 -0.9520455620624378
Ni 0.9517958731140325 3.3844885047039495 5.761199698713815 -0.39276583268309134 0.6189473204433082 -2.109482671722935
Ni 2.579012252606228 3.9227896230337835 9.453596700966816 -0.004716945859695102 -1.0311784609398627 -0.4130464373089983
Ni 8.97890243853284 3.4289148548916812 12.241986547717552 -0.3566477468042955 -1.580956164366045 1.021253231406351
Ni 4.686814174842329 4.740293406919477 7.778378865743176 0.6485502309114056 -0.3167925624805705 0.583124397207428
Ni 8.707785663413304 0.2559304045847989 4.09601002533085 0.8858098308626551 0.6668534000959676 0.9481004613717605
Ni 4.2610248144402565 1.5986394796927486 3.4775020311604283 -0.9260766488025018 -1.6216695829250072 -0.9581894701766466
Ni 0.7499506819169849 1.9326291181480317 0.6008820423411717 0.6983273023345329 2.3843353994366097 1.13799597021675
Ni 6.041421849544506 6.475803619715474 6.628246598990455 0.7268945724492643 -0.1729570812184376 0.7607259191764125
Ni 3.9218870976775646 1.8264166188289785 8.645533516496016 -0.6354807993219571 2.3926192367119565 0.19323794295466074
Ni -0.23149959575851048 9.17898678434102 10.115789685210933 3.029819846938498 -3.15701771964395 0.8261586948589256
P 8.033230844621718 1.4205288634757636 11.10514534825151 0.09930988804593219 2.7880911554723014 -0.0947873175852303
Ni 5.561932230447437 3.23303922426505 4.443794487572659 0.3959768834212213 1.4907248415826133 -0.3467528562880867
P 6.246571388678402 6.792120338185215 -0.12614633741634698 0.6020286903110986 -0.17192863995392324 0.2846452883240646
Ni 1.677831474979711 8.078937307304495 2.8924206291627668 -1.3351605019193264 1.7295908667890343 -0.6969625607765223
P 8.625361153840293 6.6018532579865115 10.18699985676081 0.17309694923041158 -0.18988599576329232 0.008622451561688374
P 3.5865252523031335 2.072713946652507 10.819391085364897 -0.06981419257966041 0.1544011725931212 0.6380747853013785
P 2.8335336125022366 8.006827373231124 9.509857184651903 1.0529145670653737 1.4885129215329589 -0.8190948460336086
Ni 4.903245280928956 3.861169243865849 10.046036447450382 0.0013025208615074341 -0.5465167732867233 0.14539048445407865
Ni 6.761508151613071 8.86364626676678 0.6587523365595942 -1.573969962856199 1.823191877375647 0.44209501793552247
Ni 3.020153753506424 2.322372720955829 0.47657667246266217 0.13785689508119484 -0.3984788239074685 -0.7077539949650714
Ni 2.998391841090667 3.1123863192465016 4.367058650576548 -0.6942338489914495 2.3454574914244897 0.014620835236968367
Ni 1.9741268656492588 1.3784693399875025 2.8495313349133293 -0.4617809264002241 0.15439371639395344 -0.1099534838027074
Ni 7.021389406991928 4.041471707376507 11.128073176076423 -0.3824806487069993 0.25835627272054856 0.5760785461042401
Ni 1.5378203220145186 1.6822980545487511 11.904204460877672 0.4796503504814772 2.051214017889029 -1.5974258798862941
Ni 8.852880428589033 2.317206223763599 2.796019869787745 -1.4936988366092727 -0.4379398581165684 0.3780799485361424
Ni 3.476932887619466 6.964134303526519 1.6253321275750292 -0.39941701945102176 -0.13634148687793293 0.8386234029848396
Ni 4.355789976843193 7.975819180635333 13.150589214982604 2.5215698304424574 -2.997897801418921 1.029001507893202
Ni 3.665367288778501 8.452011819349481 3.710552497020849 2.376128695256101 0.8454594520700665 -0.4136853564445779
Ni 4.197645431771938 7.754442603974326 5.864704621964214 1.0894861955418205 0.6858973041012961 0.7282102059368942
Ni 2.2251025902172668 6.1660900714539855 10.141858853842031 -0.34304686819140917 -0.8873740900259814 1.4149251208434792
Ni 2.687453436988596 9.082895462230988 12.399232251209554 -2.4972302252558283 -0.9282659431443367 0.22917810849469564
Ni 2.7251200564471 5.958361888445179 3.9325783393717892 -3.580647846006066 2.238696289306835 -0.9272452151893064
Ni 5.6362432212568905 7.740867885861407 2.3285154190435606 0.37665684293637064 -0.6954705496120281 0.3779094843965492
Ni 4.770039905905044 6.775285477459018 9.079097488180942 0.8904270179196923 -0.01818052756376869 1.3842796280434804
Ni 2.7295221699192678 4.576881060789478 1.121486296135196 0.37018229095562055 0.0070003425772331065 0.7971659071710013
Ni 8.223120337681594 5.729451987892471 12.495202008679767 -0.8936581232624803 -0.7118343356820321 -1.8731453264756386
Ni 2.633384800597183 6.342404846400943 12.932216758435867 -0.20649789328836052 0.23655974567074745 -0.9641832258662364
Ni 4.36627953174863 2.6362028899747636 6.432397675746814 -1.4127566524372508 1.0642194505552316 -0.33501577035681657
Ni 8.110498066444908 5.111903617621212 1.5283916948747591 2.057262023855322 0.08821969167004162 0.3829370195181276
Ni 4.935773031522461 3.0579493051586737 1.7771184736061492 -1.366589409852569 -0.4780840344356218 -0.4819589440099958
Ni 1.5299554581960437 5.700819831438561 6.023890754972084 0.4663713739843839 0.17721199984004965 1.0460317239026113
Ni 2.0001159121313856 4.167420041781031 12.106630767890813 1.874032099955966 -0.8238148772170975 -0.7775357916448996
P 0.6290353077897406 1.2105996237308738 5.8919857532165185 -1.7906728217020191 -0.8386205747713621 -0.950818374523556
Ni 9.170422002899356 -0.06846852054430176 7.545947274412733 -0.007405034214819505 0.2262709621502297 -0.1689117075044704
P 2.7914004134746926 4.2402667312472335 6.923395414079909 -0.44549504475600693 -1.2981692694069578 0.7060110441320357
Ni 8.292310878510872 5.353301522082412 6.457253039868221 -0.8007222570636919 -1.2615639594790984 -0.1917284482886698
P 0.7291447096234268 4.957332336205189 0.05024855967958185 0.13242338277044935 0.6958166200975372 1.606171487289408
P 7.004407195187165 2.657366188633845 1.7218277442068777 0.9674127885471274 -0.03867941884806887 -0.22799900058492992
P 0.31216049710993043 5.849008969264181 4.393261356122596 -1.1648259459254002 -1.0090955129978945 -2.198852674947336
Ni 7.736834150085656 4.322682031377832 3.8766401861710666 1.1934878326364673 0.562923753889837 0.17600640956772268
Ni 8.869107466116144 7.458285354940934 5.691958505951281 -0.06098476721348852 1.0306344155109346 0.2758749983306023
Ni 0.6896665928427987 6.777919377988391 8.043684482701753 -2.044320376092989 1.7634939472943822 0.7663386373774995
Ni 4.945194291108292 9.244622480399885 8.318048507215194 0.97014484276631 -2.989302346440426 -0.15294052888719467
Ni 5.926414332723528 6.04246251653688 4.310406765589021 1.3099248672809891 0.7294649042796019 -0.9075901599625402
Ni 3.9711299862459315 0.37670855802012826 1.4322055155079 -0.01822037966276862 -0.523438294200705 0.371562716242915
Ni 2.477238704528984 8.891283803440368 7.366798754036098 -0.14769444999690692 -0.03660376726596277 1.297470186457404
Ni 9.077692127269117 0.39267957304823037 12.776103816360346 -0.9737711266649874 -1.7062521920630938 -0.468265248572987
Ni 2.9446271162987983 6.558753067505876 7.8204328635659905 0.047633799827879256 -0.5634048072913136 -1.6753627015730888
Ni 7.589989590851952 2.3009055106972047 5.258260076407165 0.891280109948607 -0.20206016923198103 -0.5081518003552797
Ni 1.5585231485530802 2.18785039566723 7.5787826203827455 2.999969853456601 -0.6183677937907543 1.178351748325977
Ni 5.891731572605991 1.5314105500968855 10.367280217609682 -1.0722960569157791 0.8712098215612931 0.42731117475812863
Ni 0.5789460714638586 7.460569296658711 11.90555180230231 0.7193357862653998 -0.07909818898474764 -0.6056506033344021
Ni 1.0747235104079473 3.954599037119278 2.958130921705156 0.8546855986540247 0.8427410246976389 0.7358080728888102
Ni 4.725908257874445 0.8267141472403269 12.650115881353457 0.9951269666329443 3.638040267882605 -0.48815144597395294
Ni 0.92895645593626 6.182436831732431 2.1046301902699622 0.3243444066858995 -1.0939964247073481 -1.4134912166104303
Ni 7.149326980957096 3.3797732701898284 8.9913628141141 -0.8331022160562942 -0.5085624055301371 -0.17884567878873067
Ni 2.6965984133021155 1.0952789858679428 5.57700992956173 0.9791565593466168 -0.7920866928758811 -1.3779040635344397
Ni 6.244351913057498 1.6679129055037185 7.180074546332673 0.8938784668034024 0.19720721201505392 0.5834254733876145
Ni 0.36869450123460495 4.480587130946417 10.321034081601656 -1.1154638505525047 1.8871627238006534 0.1707449040584672
Ni 6.018425871845757 4.977353664005382 2.32559050013402 -0.4715025245633621 0.691387637791906 -0.43045537681406515
Ni 8.962380698848595 0.25150526750660546 1.685178768134722 -0.8732093684898253 -1.1781288336818936 0.947499337452652
Ni 4.242679605158756 5.373193917688859 5.449053936711742 -1.1471650383105274 -1.603298279506671 2.1351826475922002
Ni 0.6865464337541578 4.557651745036579 8.086534176348826 0.9903058910952169 -0.8702222608370432 -0.4457760663315355
Ni 7.258762785119786 7.915690731137882 9.012645835524516 -0.6023107403278917 0.5518482128019657 -0.6883089988665824
P 6.518756459117543 3.911793548795775 6.867336617183611 0.3821577181499418 0.07090793986447143 -0.4887978213087002
Ni 8.310278500653546 7.324039312924646 0.5206677989466558 1.7472713147879326 0.6100903842733106 1.5094100766969425
P 4.445342594841846 5.592682558655736 11.182850939533434 -1.8367544465514303 0.02829781850342868 0.4769283235646237
Ni 6.366598051613044 0.861894217248025 2.9129493972397715 1.201145349181725 0.06977074093623468 -0.37418318458489747
P 6.454161430051053 8.57877979412853 6.86632542040695 0.26948272165101333 0.5238748675174913 -0.1521545426507896
P 1.353778824885241 8.415975271197617 0.7196976635988466 0.8374890322700802 -0.7051762069355662 -0.9067704922747223
P 4.067147632816681 4.808369605217097 3.2291657327872394 2.593227246878443 -2.9060795937643435 -1.9596318375046573
Ni 6.754757630326253 8.183722343049936 4.669727896338329 -0.5757761843724729 -0.00594953271521556 0.4156743618501486
