# total energy = -340871.3009719982 ev
CRYSTAL
PRIMVEC
9.18065131320773 0.00000000000000 0.00000000000000

0.00000000000000 9.18065131320773 0.00000000000000

0.00000000000000 0.00000000000000 13.43681119133554

PRIMCOORD
 96 1
Ni 2.465087544488838 1.8354417443435076 10.000212812714393 0.17254647604358025 -0.10135160106630932 -0.5346279922689373
Ni 2.2351764898253665 0.13824684010102145 2.1823666283973955 -0.16759581690652428 -1.729800668806995 1.460106088255492
Ni 0.818072245029309 1.4944631682441594 3.7694827673668945 1.4366933657585064 1.73242165136961 -0.5165086569604073
Ni 6.985236377691249 8.348186713684711 11.037211462928083 -0.601303639219616 -0.08772424009086183 0.4233907566577999
Ni 1.8372411520308471 3.557364733309712 4.540500501372279 0.6775718149547363 -1.3823106772425677 -2.280147871583402
Ni 7.509534202264031 7.87010428859186 5.079987713795586 -0.6295973439579866 -1.9462726425889316 -1.1624592454654366
Ni 8.49816183603357 8.232639034333417 9.2032083266693 1.0377759116517224 0.3152442441568442 -1.2074736053925978
Ni 6.621150101851936 3.1681877370137723 8.809388674926996 0.4177554127488935 -0.3278750455469773 -0.5420489673233568
Ni 8.517753346262051 0.3443304319495913 12.44380386179555 -0.3555892236327941 0.36453383442059156 0.7750713892648071
Ni 1.6501761977592786 9.00003132907487 13.093823363674266 -0.5546350315184835 -1.311951925013347 1.254930513322981
Ni 7.032847236194015 9.024571210443534 7.069616663380561 0.46881160799476035 0.8290959231103787 0.6171370067074468
Ni 5.133168473542784 0.14692347380155438 2.5373401895915406 0.511121681616881 -1.2569148907428611 1.1345563484075816
Ni 6.5649828761828415 5.366338659476692 4.265690552649103 0.11312931042752775 -0.11874357129051162 1.343309356278706
Ni 5.5245855487964315 5.36712819550277 8.18242729727033 0.14118930188853746 0.2819158052080435 0.5519289454412301
Ni 1.1126398737725 4.437311815024537 13.36026147632558 0.5170131074006515 -1.383624768068301 -1.6184215083013547
Ni 6.010269553303145 4.452138567142155 10.57149170309937 0.21327300722866496 1.749835733080999 -0.10769168435172422
Ni 2.5430496367382567 2.633295440649207 2.06703836661614 1.218643248856172 -0.42206869541226666 0.9532809771314358
Ni 6.554030358983883 3.708404811228628 12.61199247858784 -1.1365353265108233 -1.4832478164792777 2.6933969118215098
Ni 3.9090112264125723 4.011513200030655 0.4331183484077377 0.13877066514471584 0.26235459524666427 0.9054047222754471
Ni 1.9406611907955318 6.6753985713646316 4.879054467419452 0.31219722980040426 1.0473632982298413 -0.791778931827475
Ni 5.8082125951875705 0.30262915879550095 5.052443005202094 -0.721505540223209 0.31144698189794107 0.4865092823848395
Ni 0.9566881473192642 6.2546125920711955 8.359040079847837 -0.9478384659596257 -0.44846775423108565 -0.49586449834749435
Ni 2.669779349575159 8.065101325730067 6.6742252841072744 -1.2545780150795685 0.132138761650495 1.0389156816831204
Ni 1.1412284224376779 3.6931006652347773 8.165818580703156 1.347034370538777 0.11836356224327359 -0.7385686663530829
P 7.858297970806563 6.562632629407542 7.450214340881507 0.025591475315859154 1.219266741372784 0.20609037343729666
P 8.35897397915728 5.228959390939209 3.057089919428057 -0.47192264281991625 0.18197265445348662 0.5708283534488943
P 8.623358380075647 2.9115793478871232 0.18906266403057376 -0.5537680555324979 0.5716109972511897 -1.2286417548297808
P 3.7525637447801716 8.166116033810656 0.9272944555205167 -0.44063128890580244 -1.6703976442583295 0.11692040203884378
P 5.560224837787511 7.332907648709324 4.1216075724111345 -1.1154437959478467 0.8476299773588241 0.3364612445540915
P 2.553699192438837 4.7630596903417635 2.57726133442637 -0.24304226807129758 -0.8141452153378171 0.019606718487333974
P 2.5020396666395577 1.9870969259106475 7.879937684377111 1.408526416405987 -0.643318293088505 -0.3347979979190557
P 5.9350432951905985 1.1159081856944022 12.3211393414278 0.41745819322344885 -0.30412268032238593 1.3900324713668577
Ni 8.841049987637849 5.887478339945163 5.30985194713658 -0.13110852061376777 -0.3776857984215173 -0.053942001434094194
Ni 4.569403028317594 2.7278561507491847 11.284248104836262 0.008411363992146806 -0.39069378064541105 0.30339505812774203
Ni 4.713631062848726 7.385678033335991 6.278363855478928 2.275277687975294 -0.0640495221817413 0.044296765034846294
Ni 8.15524614247489 4.322535310396389 7.300743236298133 -1.019342130426567 1.3758302117245467 0.16584129610926276
Ni 8.386020178376167 0.29231194267799065 2.834683129272909 -1.221294313325774 -0.8895752114423583 2.447796396104733
Ni 0.5768028883720812 2.3663129153659574 11.351794747997484 -0.5333635237342168 -0.9354328932064212 1.265116195606731
Ni 6.938194719579377 7.20088069997653 2.50365454323243 2.476969675234579 0.24941063349148662 0.8799279181605812
Ni 8.844648803012527 7.020774679516202 11.244568411134988 1.6325093538529887 -0.46027425994771054 1.234082466229378
Ni 4.762205889755424 4.64675001691879 3.01633608950526 -1.9731005614150536 0.9694969247696658 -0.3109386748029548
Ni 7.468184548061089 3.2090232747346175 2.2059618207302063 -0.10342288177304124 -0.04220594394408861 0.75218342892304
Ni 1.5635659318288715 1.0450151950738167 5.952157865653548 -0.5113399682752742 0.229096861634799 0.3516994016600846
Ni 0.7095349111374661 6.649692747259783 0.183022713431081 -3.170010275248876 2.3061165277330216 0.3921981331050794
Ni 4.047317740748123 5.264699667096414 11.808524813910672 -0.36490073084170704 -0.874760515027029 0.20214218742282608
Ni 3.7812808225658734 0.9997270413919535 6.412100241514695 1.7934609259701177 -0.282404571919004 -0.5608876972964147
Ni 3.9008679885622146 5.279746754849216 5.03279824719511 0.07129026290455465 0.9550797209030714 -0.8572495027264592
Ni 6.101855732328133 7.888970527354525 8.723406365556864 -1.7767852650866496 -1.1643873157260851 -0.42242273631757576
Ni 3.2562118232699464 0.9072328959369756 12.01052117972657 -0.018793478557419245 0.7608781284835606 -0.11421560151317103
Ni 1.7345188427775795 8.491772102613222 8.957327528780691 -0.39523460593855797 0.5960454761444701 -0.6774998240662203
Ni 5.1123559366693225 3.0390067902354434 4.730832849500602 1.4352558619810314 -1.2734110886256713 -1.5814701278879861
Ni 0.6238326116370481 1.5532927828383982 1.3647772856351992 -1.3560684557165872 -0.13803738652311712 -1.6256738189883937
Ni 3.12566295942318 6.712497583938807 2.5992976521402515 0.26099551011560856 1.4123483612552385 0.39916016624520934
Ni 6.778313674298686 1.1107670208734326 1.1596154311938174 0.3794979119295916 -0.48860575990255206 -1.7783292125350019
Ni 0.6174024833502495 3.9030162610052628 2.0851646448706442 -0.7290753821506669 0.5761173697619755 1.1983019661956587
Ni 3.0093165633943433 5.756130759420854 9.66480321979433 -2.711086872902105 -0.4120948720290064 -0.6437535808537106
P 3.415964339430113 1.7748953479251237 4.232622764133655 -0.5128178383723813 -0.748206446553163 -0.25287879454574513
P 0.97569209585392 0.12735583326688513 10.989108521506738 0.1549614159719654 0.2846656000390388 -0.7442929704313698
P 1.8189991975678708 6.403137171488423 11.746608664293559 -0.2903212556629194 -0.9831204290903715 -1.0248041819824028
P 6.901114068308132 1.5069029509806129 3.7452421752360228 -0.8313520661344069 1.6550630707837883 -0.7881372213098298
P 6.937276654432775 0.6167433125749895 9.197389629770138 -0.2882684868989487 1.2372053281290756 -0.35445588135929923
P 8.769973383987944 4.103714482703867 9.528218077608658 -1.5747965725225523 -0.24595584217366678 -0.39242130485947896
P 1.160911739180819 8.640443572453906 4.395127639603334 -0.2796969431798538 -0.5202038464238073 -0.11295113297845062
P 8.900834389984553 2.4869650369323573 6.558292935459554 0.20142433542019503 -1.0596701406216524 1.455771979656512
Ni 3.8673218881053875 0.9839730434762677 0.8044711098824043 0.40336674812738915 1.682357130613051 -1.88485772981656
Ni 4.759598584739074 1.5894461883115742 8.631068291176808 -0.05353705268619166 0.5138179975021215 -0.197731202839324
Ni 6.609628384262084 2.334768196928722 6.5758408326717 -0.03051410942845712 -0.05498689775884079 -0.4750059097309304
Ni 7.439935683500154 6.041199168092156 9.661914068777975 0.7169240915001137 -0.528754821317612 -0.6602009277764566
Ni 5.232833625857868 6.516518217093736 1.3382286777257704 -1.4424698632309674 -0.0645143776333018 -1.3979278149545344
Ni 2.817780631858824 6.19369896959417 0.14975845897426054 2.8379870118614803 0.5057606744152838 1.4718256906852654
Ni 4.7536036193317655 6.81495365429956 10.275156798948972 4.661956905053732 0.17966508936623252 1.6186215401273027
Ni 0.4735894142653818 6.888169349741048 2.5995124793845563 0.6322499510894853 0.3381581726405402 1.0708958341341428
Ni 4.955825829173728 2.538376685142054 2.0681134209028103 1.3094468992033061 -0.2380219320385707 1.2922176798092133
Ni 4.986636095493682 0.227089840467964 10.588825691132358 -0.35160169973995575 0.5940973512791639 -1.0709858227447877
Ni 7.867607151393103 5.293012796217612 0.4385450314893006 0.07861764980390332 -0.5481023726062882 1.6112049359482574
Ni 8.415692043914335 4.4448399492266715 11.550740383331226 -0.1557774841153575 0.6681772611137138 0.5085739754943628
Ni 8.414342488148831 0.735719047183694 5.44467624037107 -0.2778290367331796 1.048586372003665 -1.177119932801405
Ni 0.18092677070138924 7.945771217974775 6.568733172306709 0.8413405448056865 0.5574411335087109 0.6419280976091977
Ni 8.551051569129296 3.503410044643928 4.841188870447864 -0.784036825988211 0.0537864496928364 -2.1883492043128507
Ni 7.0459755677904194 7.623521170866101 0.09505003882311686 1.8545480230894253 1.265296172828021 0.7505950013899977
Ni 3.61591892835997 8.511822645415004 4.247376071039545 -0.7335686420353301 0.3323657343284792 0.7325599982651577
Ni 0.48635602819402546 1.2101292116901379 8.149466004311886 -0.6012208496978226 -0.22296375215386763 0.3196189761857721
Ni 3.533219619954086 3.3799394630774615 6.345789314040799 -1.35402674269621 -0.6857877751066254 1.6111146902272964
Ni 2.9186668108188885 7.980777042014698 10.808705047938911 -0.34990014366781674 0.7895641835643433 1.8907563546891826
Ni 7.22042630694768 2.097255562851389 10.785862669026315 0.21272253404183367 -0.43043686487130384 0.5768604185755872
Ni 5.029638266960507 7.929319490547671 12.490779419216869 -1.5157100507730412 -0.19684340091773195 0.42438525936058524
Ni 3.295330579166646 5.589024541436407 7.275120038056478 -1.2124715728278217 0.8441623305251977 0.6396339022583822
Ni 1.4189798518905652 4.3978625556750615 10.690824565050104 1.344431385698291 0.6240257634074801 0.11341984508475304
P 6.821517820097763 6.089709730438592 12.116416322126494 -0.39197933222605397 -0.19204340842592732 -1.695148368840448
P 1.6006282217971834 4.9307259280656375 5.96562220909361 -0.06010622126327713 0.6746536128666768 2.9173425682726726
P 5.9077400377306635 4.471555644992782 1.366255370521228 0.9277131559646603 -0.7651888400437724 -2.335101345001146
P 3.7441083647799696 7.554142987737409 8.643283147952344 -0.22673658893273857 0.589542642028946 -2.3808597821831836
P 2.618964443710754 3.053787639095731 12.475488126135069 0.03340120116826505 -0.8668569439092362 -1.2975645459434233
P 4.1400698625092955 4.022373910714954 9.599741778984958 0.43241892829833917 -0.7449604288120396 -0.4404191728949963
P 9.050818692984878 8.510959664177198 1.2544552330983623 0.36034242204706324 -1.1325084647396173 -4.2531592157187585
P 5.561721283976472 4.443270057825983 6.3117676558380325 0.6150284450048763 -0.37892121349051516 -0.25155981862400545
