# total energy = -340888.6274144086 ev
CRYSTAL
PRIMVEC
9.07481595822538 0.00000000000000 0.00000000000000

0.00000000000000 9.07481595822538 0.00000000000000

0.00000000000000 0.00000000000000 13.28191045131704

PRIMCOORD
 96 1
Ni 6.366346433720105 1.7764406108459663 11.52636033117337 1.3043144630727472 0.8397130365045925 -0.22678415434122234
Ni 4.547099915687295 0.2642250658096825 6.085505379769844 -0.8827612738443185 -0.03350713061851003 -1.1513893608045205
Ni 2.668812644600088 1.6551375450485253 4.831108987911656 0.9153834307547138 -1.0741914741662792 -0.3802155068219065
Ni 3.3613027806019513 4.497923487651362 4.948468138664916 0.8708066725856035 0.16724691820753776 -1.2462736089789312
Ni 5.263438668201142 4.332226421862817 2.896811044840579 0.9690297553252603 0.03181534473838391 -0.4720128885408774
Ni 7.114192947470483 6.090971141461307 2.3827880557367203 0.16551476600777945 -1.2066133142748316 1.3093258002444095
Ni 5.316036301878255 4.3784626095068635 11.442950067167192 0.014273222089562514 -0.37563791475355307 -0.6311477191642421
Ni 5.721898373751132 7.508330357039904 12.64238665073713 -0.1897669536869248 1.0583244252270354 -0.4801707417613214
Ni 1.7760503937569192 6.284019702747233 0.38236374325943373 -0.2736527938683029 1.6140879139230073 -1.1146881487287446
Ni 2.713669460208433 1.6516528156951762 0.3779524751899988 0.6506014570134795 -0.6835599142173711 0.2532266648034671
Ni 0.5770911455098627 0.13051854147016478 4.996708045687138 -0.5486047661640036 -0.35855756223249863 -0.8703107067857915
Ni 8.862229384160244 2.1908239349657044 1.3589782016491672 -0.47396178473713213 1.0976245083782388 0.7123287588199474
Ni 6.940364846524123 0.5990794247368545 4.82206411878019 -0.7980184849792837 0.710724390447305 -0.5543969473657484
Ni 0.9939918235947548 7.606356519734896 2.679665217083604 -0.652224080218567 0.55416837629471 -0.3179541868888395
Ni 7.775919457149811 3.960939399042701 3.8019204903664736 -0.6855826010743549 -0.32578936666254216 -0.8023443660481473
Ni 7.738277120280822 3.6431756411341807 12.555363702471658 0.09252860345804065 -0.6066661890831101 -0.43318614548166684
Ni 7.847238436285152 -0.24585763817640505 6.998703208818238 1.5051176199691756 -0.7903038899438454 0.5245742075773611
Ni 7.117795649432148 0.45515102762751286 0.3494566453919481 -1.9828738387517335 1.107304968890796 -0.09853264356027545
Ni 1.8216604190952852 6.6061847464275605 9.353426488518064 0.9988226703169765 0.8646799908625753 -1.4689936205531087
Ni 9.127086964646823 4.613736289754073 1.3000608660926996 -0.34279644274349996 0.5194042333406473 0.9322673509942462
Ni 6.3612010130343 1.569743526259424 6.9251481950145 0.6082507599614106 1.8322796986095282 0.9352616577358795
Ni 3.097162110581295 4.382491827821673 0.5004516017394486 2.906512310426388 -0.004636984551379111 -1.3489318446718057
Ni 5.8422485838660165 5.759241241691318 4.744616916383609 0.792868308236912 -0.12320726348882009 1.160840478915091
Ni 5.282949522653487 3.0866171743610047 8.982755645706002 0.9867276868256554 -1.446460215337283 0.8680823316759049
P -0.10829703947134729 5.472540579034137 12.506884220306393 1.238329671541506 1.2840551986030788 0.062002152734409344
P 4.102225209725753 5.868393128832159 12.478421059846031 -0.04537714258321863 0.5513303926252828 1.125747748977016
P 2.501600084535478 8.386073787362779 1.2886946590222053 0.104866041977471 0.19308444809593198 -0.16395590616109182
P 6.196656448880848 7.93481948573612 6.015310770339921 -0.18393954837187032 -1.192170142266308 -0.9911823801628993
P 4.842276456511217 0.8555391704745038 12.713338099823483 -0.5465396561048588 0.6286336944931368 0.08686703429688909
P 4.060090838924712 6.356146340508739 8.34483873082975 -1.1172083440474374 0.31067899338366495 -0.7840203709279787
P 4.6874328706877915 1.1303046350964647 3.8477564786238454 0.5373160806240617 -1.787390808516638 0.20071522516831236
P -0.0094940725246714 5.9349659791867655 3.6025186503819033 0.5818866681455849 -2.1870798506821236 -1.0706052994769175
Ni 1.5403592719725898 0.9776390051188821 2.571204830923818 0.24907304764640975 0.799202992205688 0.6438772509157685
Ni 1.5735730986216983 6.786056674846134 4.8916479930916745 0.3556213624223101 -0.8348438813377493 0.49957408598859776
Ni 6.110146227720752 5.6329833263445845 9.03257547819806 0.24846652441066241 0.438994781743644 2.3954579917123326
Ni 8.991754233275744 2.5452862488766823 10.223418210992943 -1.0441435057409632 0.24854802838087517 -0.42388466557508286
Ni 2.322327093974511 5.284555765089796 6.903459384716312 -1.9007767150396622 0.1597236132472991 1.3443362548813234
Ni 0.5584868651783499 0.1530812565514977 9.31067230778256 -0.10496502944918053 0.08175902364636242 -0.29906506329382043
Ni 1.3853704890927743 1.2571070394046597 11.541316535463098 0.6708170127294061 -1.0117676605134187 0.2555332014494567
Ni 4.479347339249524 6.5346751961557095 1.594400708879176 -0.20937418639489103 0.6514236958044587 -1.631764248156848
Ni 5.377645227867544 8.217917446431636 8.286291647767076 0.3180506032573877 -0.29577225147516156 -0.37320539405266046
Ni 5.225397039427081 2.8913906572292363 5.064472419385741 -0.20071753916115753 -0.3148454660565287 0.06023760463481883
Ni 0.9126179483044389 7.523485299800562 7.288302367713596 -0.6207794885560405 0.09011613736180608 -1.1768625653749603
Ni 5.115265072155611 4.693476698160007 7.234762768133157 -0.07222665867589496 0.08311990854963104 -2.0245167111035003
Ni 8.237165131219276 7.252484068865501 9.021312724030244 0.1176343973867329 0.25725044125087954 0.006055462165460539
Ni 4.780585857177709 0.27874114152222734 10.526206707498085 -0.7622500691304227 -0.6333447268155609 -0.4132770652625656
Ni 8.033272164784256 7.415322567606375 4.583654182114967 -0.7120022287184641 0.4113775342470076 1.0145364815078075
Ni 6.994414450765133 6.199841709305394 7.041126158768853 1.431124356311161 0.4275325467403153 -1.4637205450796276
Ni 2.1605412738924596 5.451441631777531 2.53673867966335 -0.02098123023735741 -0.36348199611730947 1.2653709919300142
Ni 2.226261091540778 5.475126901601075 11.225724381029202 0.25653361768951305 -1.0621036897638096 1.815465455265667
Ni 1.0657100946351659 3.4214052871311993 3.7037799849895747 -0.011606473890676785 -0.347749158763085 0.1591307168583066
Ni 3.8506259354507435 2.6504361421507863 2.667061205107389 -1.289166294577399 -0.4407055937871637 -0.8099969974973986
Ni 1.2653832716188638 3.3869391358707306 8.187792687157215 -1.1398168254755725 0.32275366516001186 0.2645256347560541
Ni 3.459292644032846 3.190124525934702 7.147022909401761 0.6114427845361471 -2.5504227501184076 0.3978746146645664
Ni 3.937680645572301 6.671115055081761 6.155408687605385 0.9243414112789501 1.965315003932364 -0.5488431074270548
Ni 0.6217755396137453 7.4574297139593435 11.290195503992571 1.2889927451140122 -0.9603551103693977 0.5886376137161734
P 0.15087970618399124 5.577862893812703 7.8830131760163304 0.42227361233422117 -0.28077680650759385 -0.4630070854978413
P 8.421683365442314 1.7173181844473482 7.873954694660827 0.25686091912194475 0.18823329065121774 1.304605769060921
P 2.046879203187519 3.4023663231121195 10.356582968815806 -1.3144497517345364 -0.38101074902969223 0.8767988856132964
P 4.060072689292663 5.960938102648445 3.536906823044275 -0.8088104333884651 1.514809650445959 1.1519002390026678
P 6.991846277830242 3.618020251114692 10.255573914093613 0.5437325256733667 0.6968111228003225 0.3232367754440175
P 6.527860009321426 7.73683422453295 10.203947285731104 -2.6370758686322775 0.6067422937366841 -1.2152879592306942
P 2.459719808583118 8.550173685531037 5.930227110258851 -0.4720632821628386 0.04525861472748334 -0.2523056956510945
P 7.020259526802471 3.78831824862758 1.698291925170703 0.10185399462402459 0.6614491983612608 -1.498852098675438
Ni 5.4075830459318635 3.0169044376619745 0.3118769247535265 -0.5963578651785666 -0.815450307302486 0.29116020662444697
Ni 1.2435492642642858 1.169662112194056 6.9711566047763345 0.8546290343844765 0.3582318034619637 0.7796109290063735
Ni 7.079772170290136 0.6790231090217335 9.38958055555906 -0.0018504229451774587 0.5754537680360476 -0.6211229879383884
Ni 2.7554589880005493 1.4631870365015462 9.364198295138964 0.1301628688710468 1.7741038615997449 0.1368492797522869
Ni 6.353750589078311 1.9357671557854192 2.5771824122390554 0.27485349904462336 -0.18724958658170976 0.37879702920782504
Ni 4.530293356410206 6.644897911587423 10.47019694299582 -0.5375829611322032 1.1103301288703653 0.4726253253138958
Ni 8.576200257888864 7.18853384034193 0.8841366382120271 -1.2099380077726904 -1.6534103656717136 -1.504924530121763
Ni 7.466921971520811 3.957745063802131 8.083224489590272 1.6394703585518537 -0.9604494698554168 -0.7302208086090198
Ni 3.3770294367721445 8.12837623671941 12.417457353276074 -0.8585376254102632 0.19231106026501718 0.38094801411255685
Ni -0.08884244887835309 5.17848024058121 9.99975122044087 0.2805338372588524 -1.7381097028933228 0.41112839435067905
Ni 8.659026103743075 2.5289878792969556 5.778946297206584 -0.30400260980475385 -0.27281821378214943 -0.21763436952115423
Ni 3.765277290741764 2.5054750309778733 11.517979738574887 -0.3237484249731134 0.059041527444188634 -0.03331378366078134
Ni 1.1840547704086697 3.4581310675817294 12.611984202092364 -0.19762938715413705 0.08827059951263508 -0.40416147611454273
Ni 2.8235745570792945 8.630993997043868 8.100677175768295 1.4570241068960585 -0.8346942431337624 -0.04954901457272112
Ni 5.693929790764096 7.805467058125084 3.581161978350206 -0.9947878381259706 1.1448921831159509 -0.12497952489789443
Ni 2.983935631045523 8.390956038383877 3.7456711507211637 1.8383832404041047 0.12866263017643648 -0.18699479025842636
Ni 3.5507123406621135 4.4819518114485115 9.285263730395991 -0.6553004051510456 0.6006968588735526 0.4622758637587716
Ni 7.214242794138904 6.102242062963546 11.273751937356455 0.47148915482692344 -1.3584737227239703 0.7576742768342822
Ni 0.4395414365840343 9.148412782304039 0.6118313562142664 1.8817829475459786 0.3504007374533191 -1.0064171948347829
Ni 4.824399068943254 0.07974948322195781 1.4969644092257668 -1.7593976657378216 0.8709362561849323 0.2622247545370193
Ni 6.2829035003762375 5.3527983815928835 0.15683187801436016 0.003567919856916436 -0.010440478607033631 1.0520897571712333
Ni 7.8393887204240915 8.563931106623947 11.497498786289539 0.20912273250571725 1.9843437384290403 1.353165166026863
Ni -0.11943728362283518 4.932189733680443 5.615180352268021 0.65224182083038 0.8501296038522264 1.3309120110556176
Ni 7.815830498024887 9.037863373495448 2.5873026470694067 0.94643952872957 -1.1154430246168983 0.07819547466482017
P 8.628335075948735 1.563636175075039 3.6666177058882727 0.33551662125263504 1.3312848210140038 0.35946927541349055
P 1.9935555842284582 3.278549533275935 1.7504231133041646 -2.242933210206318 -1.580849720695168 0.34624712029626176
P 4.544767687969038 1.329877989103895 8.04283429842911 -0.6604994328534819 -0.9905894837739069 0.6474037760117882
P 8.530835252583156 1.4814001922624098 12.510576762946702 0.8430179325081094 1.3020711755645253 -1.4159934142069937
P 6.460352452916311 7.848744855745193 1.3810526916283903 0.029296949191904384 -2.371688400096561 0.48141566991201606
P 1.854747198320053 3.2885318309027163 5.827384942699739 -2.7107516010498736 0.45392672046312793 0.824724019294928
P 6.837647003944545 4.077305764922897 5.856300028998114 0.23925940399009762 0.0770932427395769 0.444957169974666
P 2.405289062069087 8.644824016664973 10.473384018383568 -0.028929538550156626 -0.7051412399325727 -0.2932695396579659
