# total energy = -381167.43442850356 ev
CRYSTAL
PRIMVEC
9.28270279264216 0.00000000000000 0.00000000000000

0.00000000000000 9.28270279264216 0.00000000000000

0.00000000000000 0.00000000000000 13.58617384700852

PRIMCOORD
 96 1
Ni 5.565797183344913 3.2736101077521016 12.906035910950761 -0.23997879865462543 0.7558660199809498 1.1964641416559718
Ni 5.407489970450786 5.471930493020918 2.7417038133576006 -0.8223172096256482 1.0962145154045895 -1.3181649958025943
Ni 1.052250054229314 3.3553628709723777 3.779265847007439 -0.454824549687049 -0.3661873108636145 -0.18125583089212008
Ni 2.78020660787163 9.23098882438691 1.4344421336759818 0.6715582617708047 -0.45534982606289964 0.1460962522718516
Ni 1.8583042658188929 0.8930776934378175 7.692681601242553 0.8707588500668036 -1.4805998373334692 0.1683072411512521
Ni 5.886830175647629 8.766008960362063 12.779236976039895 0.22311878967449317 -0.11025764530668752 -0.1786029666503053
Ni 1.4204391765603024 9.042206498326873 5.496014465335556 -1.4537852882437867 0.9407885010913798 -0.470128527033971
Ni 6.449259853262399 0.7865150505469581 6.536511689598571 -0.8245149886079154 1.0979826630486058 1.6537512939509003
Ni 3.8289663658626316 0.8673581088966096 6.140977581472841 0.44544156581025224 1.2529651620664937 1.6096136802017378
Ni 0.1274942093477005 2.6275339955537156 11.423132499238244 -0.7649093611301407 -0.17802883931439017 0.11545075947185278
Ni 1.9897194888130387 3.8226262798765465 11.021226743937042 1.631994104779467 0.5044316711912151 0.47106312303309844
Ni 6.309258130213893 4.38816566291641 7.773967444513928 -0.33511912870390026 -0.9466490736372147 -1.4039781349136724
Ni 3.205354394347005 3.386580600359205 13.297318541211737 0.3499243120375328 0.483370993866174 -0.7935951591006075
Ni 4.4654070325946105 6.48712399782644 4.697596205037562 -0.1546955639050884 1.0046523896248762 0.009469630053332078
Ni 4.671566578224121 0.762812597315818 8.446904913693183 0.3766277894706481 4.110270928861245 -1.2942812472064613
Ni 4.70708219898951 1.5285919464342022 11.731946669896036 0.20095382354167976 0.39496232611377785 -1.7224933365123047
Ni 1.5987227657971157 6.550998275528123 13.138903648965577 -0.2297036419808625 0.4879033345188888 -0.26877721094355644
Ni 5.3015000703203095 3.981731805208161 10.148844836305924 1.818750553774842 -1.591885152573723 0.33174712690787383
Ni 8.169307544151941 6.9751435301052584 12.956277611376947 0.3661461732130339 0.7504214519266109 0.1544911612037662
Ni 2.9455779575672376 7.78802981092728 6.295303443152574 1.3761762822100556 -1.728934721262274 1.1949667311748389
Ni 2.9359703602091147 3.057360264220872 7.65419180251239 0.5629854603657078 -0.19946798302477262 0.45765816248110214
Ni 4.7164205979675495 7.999619737672251 8.237867730207615 1.9225794127370504 -3.216496591735874 -1.4127404544873348
Ni 6.393526505882527 5.042401270842129 4.595196854335223 -0.5399262645533992 0.7855203525122729 2.5762970467820083
Ni 1.748963309991525 5.569083260122474 7.996549947869033 -0.506656703866992 0.25171768435810843 -1.1691813946806187
P 6.508715564449621 6.5601138896398865 7.115310485262919 -0.16715435849373148 -1.3441403368204334 0.004670408892475827
Ni 6.923197525452066 8.661773491053506 3.7361838952211754 -0.566988925098146 0.1012137899368644 -1.048356515381046
P 3.818644000391876 2.473459695118819 9.58971887260396 -0.32017253469639695 -0.19603838851793334 0.768646973795702
Ni 8.138433274767289 0.6562555240466154 12.494660870562582 0.7803994863459399 0.11550860929298173 1.2426707221190212
P 7.76121208264939 3.2609763492937396 0.01587434999239167 1.8814448474802694 -2.6819012524770844 -0.7514961730480283
P 2.8718640149383954 4.274675338954665 1.7329710696740628 0.24632736658047255 0.14526192929601434 0.094764691877411
P 0.5079699170537719 8.481846863427911 8.860780714205303 0.85720759374493 0.8082956985355757 -0.29609801024569654
Ni 2.224061320026376 2.211789586975711 1.4231785021452128 1.4647358737180194 0.11335762438824995 1.7796934398723803
Ni 3.473977246858455 9.021756704143353 12.445696470036374 -0.8151536019976735 -2.041039391348872 0.9371845857902052
Ni 1.5899320462820026 1.073154700848147 3.492013538323993 0.09518609568554576 -0.6719729807107202 1.5112651276278102
Ni 5.051024901707535 3.3083459814855267 1.9270222578215106 -0.3863627573702249 0.02869788215532477 -0.3345910241145722
Ni 8.24981642520218 9.334128934769616 5.567070770163787 0.9228272886272687 0.23270566203197987 -1.7791028574762329
Ni 7.870311688204959 4.349428944292791 9.970784031935386 -1.1242925045877283 -0.007887373167876738 -1.9849235221919104
Ni 4.584095670102779 1.2744408275278856 0.550286045862214 0.019751728705630498 0.19297260510841605 -0.9086448264792997
Ni 1.4995556521963205 4.403454274364552 5.881998528860284 0.3528921364166051 -0.3784242192494386 0.1985696395802193
Ni 2.0689380741794325 6.985781507469904 3.774660698167473 -0.13502765316251583 2.0821233058733752 1.1780000214135133
Ni 1.1360450120571135 8.629089094630364 11.04661864907077 0.08367141017772688 -0.023126301604818236 0.15882809801622325
Ni 3.22078224633657 2.648392228658741 3.9049657099113473 1.881214476637018 -0.9224745332735405 0.5224155093631455
Ni 6.81216711772211 4.818121889422227 0.7387100595956583 -0.6566916290716174 2.8699435101634188 1.4034929677471377
Ni 2.064138916851752 6.275190611079294 10.821482474185983 -1.0539622916035978 0.1506959558273921 -0.3749162060961801
Ni 7.049330890574935 2.2753018392696958 8.727133001197023 -0.38846566264584065 -0.019502588809301894 0.32919350724808466
Ni 5.474158341683672 2.6344403264082503 5.6245260589059125 0.15246538902298903 0.6855219230397483 -0.6460302927030293
Ni 3.5992473206245066 5.132527031953251 9.41790811200272 -0.5668997078184496 0.5453842023441768 -0.3196583140641398
Ni 0.961363111491751 7.80512854941391 1.7366665136434045 -0.7117291775627355 -1.2692232757965691 -1.5486631086602942
Ni 4.170504848565436 5.291892472962187 11.696798644160001 -1.2820312261945146 -2.325069414686441 -0.3099120333106534
Ni 8.46441394764187 4.4168863452604015 4.993910288156757 1.2342801840624806 -1.7090937752769468 0.6312618761446032
Ni 2.713111232311717 7.569422160894636 8.782550736683005 -2.556812198584519 0.0859874599054132 0.39185360528146707
Ni 0.834333037282124 5.323379400729097 2.4988237521442627 0.7855684321413889 0.6872196224571454 1.1868405025232787
Ni 7.148052434443179 2.830546704947088 11.454217485975583 -0.37246440212157794 -1.1605134345929755 -0.4152616997927623
Ni 8.909538110459929 4.966914331985846 11.789184743393543 1.2050752803637503 0.8123888947683428 1.166872544041784
Ni 3.088169554686194 6.604262423973442 1.491734975119781 -0.521467029406947 -0.4783781686372729 0.20871521265465345
Ni 0.7804822220222781 3.012469113666398 13.588755492300056 -1.7368490910133443 0.5323811052162896 -0.2695541983188971
P 6.455098673299364 3.1905484834424587 3.646692142708661 0.18140726886831984 -1.216617476675395 -0.6798492981350034
Ni 4.284190109285173 7.312690450620631 10.724463378004193 0.7440111775248929 1.0168733571711004 -0.5315935763179876
P 6.640372137715566 0.7753126848544147 10.745290978190106 -1.601494907749345 0.8672102134835967 1.0229851264957932
Ni 1.612600406425515 1.7575962235596931 9.930813642114767 1.2651064254147182 -0.7271928204159734 0.15980614565877638
P 4.288200236878128 6.905662499935648 12.996859731309549 -0.5805237263597873 3.8385240937664022 -1.2031680360387085
P 0.906830945849213 8.692267169624937 13.245174814989728 -0.17777404299110672 0.22877830195311563 0.706489526430351
P 4.239883769004671 7.876141225539163 2.779187367108421 0.7243800335575268 0.08928772792323977 0.6522420779406961
Ni 2.9524471576107256 4.96958775038115 3.775611246930248 0.47192110015801947 -1.2375388002090946 0.3149308266814834
Ni 3.5729865545123047 9.12989090861173 4.303692139516747 -0.2570511807558799 -0.4958423868603073 -1.5014265442708337
Ni 7.783230653599599 8.586416510035884 1.2072814013189186 0.0730740942778548 -1.221651953775509 0.1363206609423265
Ni 5.955206564188625 8.03482902924651 5.829025857281673 -0.8615262757249421 -0.10241372378223652 -0.6354725717918411
Ni 6.239183007067548 6.173433623408049 9.154513277686531 -0.3642337866816695 1.2301862164987651 1.5009164374036346
Ni 7.076027943716926 1.4558155567842688 1.6218766112950531 0.6062306442075882 0.8615597000660387 -0.8072297191649065
Ni 7.627633989911821 8.212991943347424 10.897606206451703 -0.7180052403794344 -1.513476276346516 1.514667982661772
Ni 0.5864468144695245 2.0336823690913657 5.913314654896382 -0.29589052222058077 0.5031564040232174 -0.72653024713131
Ni 5.133009732496848 1.1492914288977327 2.7617841559712146 -0.7191249558061744 -1.0962512821797958 1.9385981567628097
Ni -0.020406165480541843 8.344184381475296 3.639627077636906 -0.5155900018008798 0.597510747836087 0.05518204448878239
Ni 8.129568293630085 1.7855278761689595 3.9636843744993087 0.22510856641101232 -0.0073908931474324325 -0.30331792503290345
Ni 8.685806408502954 0.8337352312242852 10.043714514451159 0.7451262649659426 0.5890932131963532 -0.08829836742677696
Ni 8.406109291597069 6.775574703436392 5.229277858025236 -0.7547812715572033 -0.1701260395275457 -0.8032259973221522
Ni 8.72849755850296 6.80010888683496 9.632787828606359 0.9704132659363479 -0.8207246683275479 0.4243466928131659
Ni 9.15014576603726 5.108865422614262 0.5856642826267324 -0.4798077019949479 0.720601797462017 -1.3315820405394485
Ni 4.016662615699576 5.490059611514071 7.195142657281846 0.8595658095644616 0.585841796138591 -0.9903110333015396
Ni 6.47545564045527 5.898350009774615 11.548927045710318 0.5430732948228131 -0.13175181062472147 0.3714781269489086
Ni 0.7089357904882398 3.0077070871497633 8.310744373047372 -1.053516976536063 1.3076586969546318 -0.39296560739872316
Ni 2.1249220545338647 1.629114334638172 12.271616088609955 -0.08523824044421449 -1.1075016582826347 0.2021262465832261
Ni 3.316848937215034 0.1539350598934747 10.078685240564448 -0.42460971666656544 0.25559696480785654 0.8413480010048542
Ni 8.250865370614227 7.891021398065801 7.218497009159432 0.34554598046417906 -0.9618520066298982 2.1853867792504165
Ni 8.54999118439987 5.29683087083129 7.894422580357604 0.25344777967533766 -0.26740707006890724 -2.0607867491791283
Ni 8.80529335844861 0.871512118382368 7.684095101188193 -0.3438104858303111 0.20838405456747983 0.11799538027057745
Ni 4.567526045673554 5.169518602457714 0.33496075952602655 0.018853128150761077 -2.023138856919367 1.9470336891246725
Ni 8.55503169199935 3.420796642737987 2.230007819415374 -0.6964570818950135 -0.36838920361093974 -0.22065747261819416
P 8.230833298054971 3.2311138945100875 7.08232254445948 -0.7191272697990195 -0.21571889766599625 -1.0405776427665756
Ni 6.748478494075657 9.071307771484085 8.854680121950464 -0.017560377481266532 -0.3838577315601841 -0.726699939939955
P 8.011937884236723 6.424595712025171 2.210593046589757 -0.008984205776481301 0.633696967948657 -0.441602137459504
Ni 5.518362572233796 7.287441499109429 1.1513586868027124 1.3187108410037351 0.6576532216539384 0.21251658867861464
P 0.6986514840988061 4.829149740302854 9.641917366772265 -0.3326809515760529 0.2312229068388663 1.2005997610909
P 3.6860034606332155 3.814076910633232 5.857475484705029 0.2153985382121 0.4225201811273885 -1.7542714002548494
P 1.1371496536857286 6.510005860133465 5.922159214087512 0.21755980752947693 0.7209550670363777 -0.14996987629464495
Ni 9.678981342358265 0.8499873872190689 1.6972939298806249 -1.8622513052709542 -0.10155368977478638 -1.7153415559588716
