# total energy = -381165.14064734965 ev
CRYSTAL
PRIMVEC
9.29190332870861 0.00000000000000 0.00000000000000
0.00000000000000 9.29190332870861 0.00000000000000
0.00000000000000 0.00000000000000 13.59963976155310
PRIMCOORD
 96 1
Ni 7.761182805905523 4.4723601856814375 10.111957151323443 0.45978215080264045 -0.5268902573050475 -0.3439074164194916
Ni 2.2915877106468643 6.625953844334495 8.093784616713409 0.1344902926018071 -0.9181450526602509 0.691783330568428
Ni 9.157783707987882 5.426675795133455 8.170092512019364 -0.6715672606318692 -1.4412059089168792 -0.6646551068930683
Ni 3.5260170290346635 0.6075984687415135 4.778097246430438 -0.5971901312718748 -0.19909722994891518 -0.29037113506424833
Ni 4.182081134823816 2.970193973202361 9.10827644860986 0.7530902570080256 -0.49407989564324584 -0.7722776285697538
Ni 6.947174932303378 8.680830325128673 11.50925215856262 1.4083842344011681 -1.0312319398856176 0.7173529515074162
Ni 0.2666144322044773 1.1918909862870894 8.122017134899252 0.28625274202050055 -0.6860112039713412 -0.8356193260511932
Ni 5.986791710168582 2.3182554723613764 0.4574004312996786 -0.12998237742912452 2.3869198723343343 0.005133978792455674
Ni 5.565301696533737 1.7505573644485353 6.775775559703355 -2.042402590244986 -0.6905720838691463 -0.09864242966526238
Ni 3.618889599883637 7.992904283827652 12.18266610570137 -0.4417702876062521 -0.21641232418859505 0.6266092078639401
Ni 2.4297954764105083 1.3475489459531218 9.634201877232192 0.4358271826489397 -2.93189372661397 -0.541309518054171
Ni 5.051032031080286 8.896885654531408 10.499628354666948 -1.4590205685007969 0.3668069467254844 -2.5296970875352818
Ni 7.62784399733296 2.6524387650660604 6.818301812330118 2.621273097272066 -1.541706989057435 -0.9706060986734444
Ni 5.624091567045139 6.26501916278797 4.447599122469997 3.14812041715432 0.7909057851939024 -0.9514968886478194
Ni 6.11731507212111 6.915117866827745 2.0769772721662934 0.33326176378018735 -0.2094664889983812 1.2375287729067657
Ni 3.279084705841922 8.659105855829534 8.138214780272333 -0.021414204009717958 0.2468145906295362 -1.8256804481254556
Ni 0.18684809058836843 4.4379522687375905 4.255422125490244 -0.801574320651342 1.6636654677408187 -1.4379277523862397
Ni 7.498918842702695 6.894146041674555 6.610430791121859 0.06478382924460456 0.86243361803056 0.07596864221683046
Ni 3.197204456285028 5.282242454335413 4.342269826410406 0.19028066009854974 0.17000931144402334 0.20880622970656298
Ni 3.8832999926878764 5.032160176013326 11.78006188498804 -0.618722863137328 -0.21981132256781497 0.6067903733658001
Ni 2.3552929978645287 8.25185103764648 10.09891503622153 -0.674172045244568 -0.45323946458811615 0.9861317051128693
Ni 5.206717866455428 0.6771093369763305 12.55238535237852 -0.9493577308176296 -0.7885889641352677 1.363242604867523
Ni 4.321766313170251 5.256336628669886 8.033646491071423 -0.6032913590736062 -1.4976609065808144 1.996872981244303
Ni 2.6932859708141432 8.722012039386067 2.5851691038436266 -0.7275450615490696 1.1202579295070385 -0.3580502835787769
P 8.463864389228371 0.8342623638409222 11.981254815484029 0.3131876187381316 -0.04674651212691949 0.3933417597912193
Ni 6.66287986700121 6.751106486331976 9.837258763477283 1.0684003214057987 0.08624611288343857 1.3658409617223186
P 7.662753677040773 6.005589230011251 11.967355986922158 0.09228974797435718 0.3161955523265199 -0.07000239733106654
Ni 2.5906290260678246 3.235580015825424 10.685046421378011 -0.4078062719559815 2.699085477565855 1.5169503509380455
P 7.337890163081614 5.0007163761380955 3.477862670738744 0.7971918753129303 0.8834127913853883 -0.03956362122523509
P 1.9089936031224557 1.4500386364447848 2.6298984666803236 1.0204605603017263 0.6756414307012428 0.7169474885388814
P 2.196587294002552 5.422401519736704 9.927192305395838 1.0566118134113027 -1.1494201528932915 0.24024027984612822
Ni 5.475588372717146 9.004346513147553 2.9054544971767435 0.4119015250712777 0.7121115006028188 2.104434053555434
Ni 0.6573844852106276 7.816924932220979 1.4591735063198852 -0.4810438883948942 -0.15208563708606712 0.9209863787637881
Ni 7.809203360797718 2.916365978912406 12.375127434914036 0.24525701633442926 -1.0534007626731727 -0.328982162568227
Ni 7.427631362607316 9.211202858544233 7.767760544065 -1.0673937345181552 0.03943686583938369 2.5815166433097345
Ni 1.7018863763437906 5.921962102683511 12.17858603107808 1.4530787490950652 4.123604926965989 0.12593597527389278
Ni 4.409017282682193 8.361755666761201 1.0222765882603608 1.6124485785473714 -0.4641268009245813 -0.7819274929546921
Ni 6.620267199676209 5.185746041302237 7.91093761957252 0.3105856623389103 -0.2913574102369175 0.6143386180267032
Ni 3.599571733470929 2.875444437940032 13.244933186249856 1.4263181931717694 2.291464839258118 -0.43161725833265013
Ni 0.27715052105746885 2.0678851450451607 10.527113803848664 -0.0749114045969097 0.43793111636581994 -0.4572197893921029
Ni 2.933918383748195 4.058405905409126 1.9744773605812904 1.4629019058330743 -0.3528366005883214 0.6815793934522326
Ni 8.099658957813029 0.09916969353675174 5.793514551869317 0.9406920847228314 0.6874685052431581 -2.9448821684538378
Ni 1.3090804673823617 2.4267105646024185 12.633683928805336 -1.3070678574481684 0.9896160641170441 0.45624714106618847
Ni 8.30107953993341 2.6360757238189327 1.2385177557238223 -2.9481574967710005 -1.1190623665370405 -0.6092774014537119
Ni 0.4032639458289146 6.498849902699367 10.059218168069354 -0.7196605165946702 1.0344219075778252 0.9085700073773062
Ni 9.018962676623834 2.3187479432223066 3.485315706164253 -0.23376932740980386 0.4640159863783299 -0.37288811992255777
Ni 5.650564198795887 2.399438829190539 11.16205369727483 -0.5848107837709154 1.337444927078129 -0.23384594628401015
Ni 3.8591224609871233 7.683251615139106 4.127164129497994 0.5766261910775939 -1.400620274185033 0.33001317493590265
Ni 4.431373601387809 5.0769750243579574 0.49980124323544983 -0.2732334469426972 0.8223740310055128 0.8738454594119273
Ni 0.4045861836309965 9.491864789759164 3.4295029613857198 1.1955226036783089 -1.7167482064984112 1.7578956272709985
Ni 5.846669812379435 4.07975869858681 5.838434398718261 -0.180675790018934 0.4755502122701745 0.03048557018336685
Ni 5.1694573352794 4.569990210885055 3.1276861545277823 -1.549208439640803 -0.37478687960716744 -1.5206010603167555
Ni 0.2881251877337792 5.625531812015783 2.0890000655051115 -0.4499327688123864 -0.569644103332806 0.8128704623904516
Ni 1.2988593740423047 0.049762786711523226 5.882496602916943 -1.2757315092287318 0.26317657692732743 0.7342278728858839
Ni 0.607931118870217 2.2436693666880694 5.6255996429079484 -0.4191252965132266 -0.14023593683633268 0.8638027304639446
Ni 0.7648379103043439 6.651209236787472 6.424238708887861 -0.6784609024279089 1.7792560952246455 -1.6539616101894934
P 2.9745797514355496 1.3378946586982863 11.855050330062825 0.8757527037369692 -1.473347269536114 -0.8815281727681658
Ni 8.147298544680732 4.598135385182357 6.0550221541649805 0.3624509837496338 2.2212878640224 -0.06966429726535744
P 6.2627612303501214 0.39361523371590074 1.0285541979517632 0.009981536692744099 -0.9324241882870844 0.05457192170860924
Ni 4.0485193205783805 6.651348615333018 10.175644783925337 0.44049656310015106 0.1437830307576427 -1.1823428717632412
P 3.668480486388986 4.138920245219667 6.257656258821915 -0.8046910119034528 -0.479356216279826 -0.3099153757447631
P 9.017178631240842 3.1843258786765563 8.649098476259315 -2.2740440726785094 0.9865574797963783 0.11723999016179164
P 6.533034813970339 1.8006685975239238 4.967023935728053 1.2881404244160461 -0.7974117046332203 -1.025070805380228
Ni 5.524296528434036 4.732384800252489 10.186469850962762 -0.7161820711277666 -0.6191956890086885 -0.6208252541923115
Ni 8.826276483357686 7.913653642830064 12.96415510624697 -2.1596148124926358 -1.674867764214541 0.6019829246748277
Ni 0.5784404770132415 0.7434897630781792 0.5189741559607897 -2.048111981924937 -0.6087824640951645 0.6177761829533426
Ni 6.665240010372459 2.8344578536464033 3.0486585192030686 0.24783017637824412 -0.7745612823976079 -0.16815348918220718
Ni 2.6134778156343703 6.285071089540556 2.1124723417654008 0.5344662698800924 0.8812484367442177 -0.6096764366643436
Ni 1.067277274665721 2.958588386309878 1.4360673310392307 0.7898457193605042 0.6175226721816397 -0.014626491663923198
Ni 6.471225074972104 2.6049013891317587 8.606653992379274 -1.186637385373537 2.6215453770968464 1.6800071423236358
Ni 1.3467684260980632 7.049051357194639 3.9982807884313925 -0.13141679588280591 0.37747419663134346 0.3401019266304723
Ni 4.5110330861189984 2.6299802354270443 4.507695434548318 -0.064152880528825 0.7461847881374439 0.10209850653466286
Ni 6.735198748333632 4.837987278261351 1.2401577766097496 0.6760240108516422 -0.8102921601403141 0.500860408900189
Ni 2.1561396400850352 3.2500103412409778 4.130305721914606 0.05553891360756887 -1.8433704092060512 -0.440410431144248
Ni 9.281282391244881 8.83443477422366 10.0418785478131 -1.3063379212606792 0.5717907173621637 -1.6403841286153746
Ni 1.7717614871776353 3.2224133892228237 8.41863883876953 0.9374185561778823 1.157710932147174 -0.708033216768387
Ni 7.927331324099668 9.032872655469347 2.271058180078208 -1.2209927229249553 -0.3382959837699851 -1.2357485410778912
Ni 8.828348577734806 4.615957255206202 13.735908050791016 0.24232595873056326 0.7752217987997423 -0.6740954263703617
Ni 3.184623219573722 1.5436452676336347 7.055588210980757 -0.9351590707197442 0.8842458288096449 -0.1063282283452943
Ni 5.533560555761342 7.739607007054966 8.164910417695953 -0.6554677839668455 0.017151829188938202 -0.5254311562610177
Ni 5.76808818840047 8.765962740748312 5.9352634618801385 -0.471318176466698 -0.5332298263698301 -1.0486735324008327
Ni 8.109285369358757 7.252497574176956 4.2653365860301 0.045658164158747176 -0.46189276938774004 -0.6184798938885864
Ni 4.25631414818174 1.760880668721993 2.2308307442626543 -0.058615495650363565 0.41187889936345834 0.6001702969461212
Ni 1.0623061065412387 8.939526197565518 11.915365001862503 3.2628648945877674 1.5613059942352852 1.025921840526614
Ni 4.480834401250648 6.375044586642167 6.208833812697677 -1.307449409157303 1.9561112259459086 0.7556256218353696
Ni 2.84162191088748 1.025658840965616 0.5484136923510649 -0.17551147220917515 -2.0069213666192405 -0.10725768213809914
Ni 6.059742440907479 6.942882073100555 13.414983374528994 0.336310320798524 -0.13606894994283664 -1.4580600043597405
Ni 0.31031425218473946 4.50011510005121 11.50928003427173 -0.9305233717199457 -1.7432241413017526 -0.9541764923625116
P 4.7408497239186635 0.8091296245080256 8.555124814900527 0.7552846935561831 0.5137046118527089 0.8090855414267226
Ni 7.298018607152356 1.2740314091290026 9.963979878707311 1.2539480948050532 -2.0822631738853494 1.5552911554997733
P 9.208629001403146 8.0162641280612 8.049450159755759 -0.00923437411407442 -0.7219742523295114 -0.766709390453357
Ni 6.0139705265500965 4.496881517794538 12.562408528183903 1.0429245457321974 -0.012890225699106833 -0.7051636085300759
P 1.8529355521037612 4.563513754468674 0.06390970908446583 0.7232515763800383 -1.4201881690146314 1.3132703867144544
P 2.7300075716140566 7.915549191049493 5.856508079314392 0.8016995333752968 -1.5442570091727983 0.9680596781025069
P 2.4904251437231197 7.927972465409181 0.4633751249520938 -1.2882553527273555 -0.42077311652929467 -1.2984981135012863
Ni 1.2862688454279616 4.37555713984806 6.267325413121609 1.6314814268091062 -0.05832110433839632 0.6459091937441328
