# total energy = -340875.3391511599 ev
CRYSTAL
PRIMVEC
9.18806585999818 0.00000000000000 0.00000000000000
0.00000000000000 9.18806585999818 0.00000000000000
0.00000000000000 0.00000000000000 13.44766313003598
PRIMCOORD
 96 1
Ni 7.52500748776508 1.3125886994683063 7.409204782052983 -2.07127916407002 -0.03810477729152147 -0.9227344718031464
Ni 0.029513904859595496 1.3606698476316408 5.0629237690478615 0.2905066322008481 0.984633266190472 1.117055877629973
Ni 1.7553064604280064 5.411614540165349 13.653815796380691 -0.13260875930837807 0.9883657366497107 -1.2351065366185179
Ni 2.620564989921135 5.115501556597998 9.097653363114409 -0.6415272626263532 0.6106321157093936 0.8488227121153445
Ni 1.84181209963263 6.990556078178831 5.580888113420221 -0.12204795307339625 -0.34937486729196604 1.6185894013377868
Ni 2.677696382865835 1.6870391317726319 11.571269941983475 -0.29369711411368776 -0.6212906238645042 0.7338843735035361
Ni 7.489890700400229 8.240335160057885 6.622651223927545 0.9416832449915072 -0.7361834539503579 -0.8335850692299838
Ni 5.407277773122908 2.561687864480537 3.1004255067475044 1.622948963858063 -0.37064920328971 0.8903979644539697
Ni 3.2405664798721476 3.673783780827857 12.674664760048609 -0.26488636052958253 0.7042485529149742 0.3376071852330766
Ni 6.093029061708895 8.38708694650252 9.614460011200016 0.1876740757136381 0.7254421562734539 -0.4518824363395895
Ni 3.3502536090091417 0.20011147839161947 2.8642315752788297 0.4452248218137558 -1.5022518683856063 0.22210423236704976
Ni 1.3870395963854667 5.906529702752395 3.3876811949146153 0.6144265497548193 1.0753536127951804 -0.6806658804990278
Ni 5.638936475328556 7.905613924133888 2.9342262602985665 -0.404981915133309 0.07494817137211608 0.9902279866694301
Ni 0.9632492509076063 4.679527835911925 7.566703849026313 2.7909003427863226 -1.503852894324139 -1.205532422505827
Ni 9.092675269081369 7.083282037908312 0.33564188011393914 -1.9635561122597278 -0.40876477921450893 -1.0247213924606093
Ni 6.672125282861291 1.1674172603357464 10.866854935403186 0.8637052856541318 -0.4362719834958422 -1.2766967013554789
Ni 7.413776763579083 1.0455835082536107 2.3562592524290435 -0.32244590411160595 1.2159543891700992 1.2359187481071683
Ni 5.2232775680552725 3.530321321928123 5.283089119784464 0.29971838060710315 -0.6515779619941359 1.70510085206747
Ni 0.47029114632911884 1.9289057750463983 7.6588877128754875 0.2743552192519662 -1.0999675546891188 0.2607206591876671
Ni 8.24495675713913 4.301190851787784 8.571217622104061 -1.6811574538779952 -1.1226850508912924 0.8139079025160305
Ni 6.076545671721313 5.187563556415509 3.9717270270961698 -0.5344665269904085 1.0281103635375004 -0.7289859077606542
Ni 0.8838110718916389 8.668315263525901 4.158877819915613 1.6177347666469752 -1.2152748466045713 -1.1164637525719288
Ni 4.354849155872224 2.20534710980471 7.515602583645075 -0.32367360587112 -1.5384229189895247 -1.010909940498814
Ni 8.537660968306596 3.4670155487874057 6.188910203223068 -0.650604285226957 0.049888914410643116 -1.3228935116265153
P 3.3731135166396355 6.764943123248451 7.635892740678206 0.42928269666220265 -0.8790735405800861 -1.1430715849674442
P 2.257608827892432 2.765782369382534 8.085743197093516 2.5106971493940113 1.7253930266576025 -0.06413745390985727
P 7.097082512691673 7.087793378200343 4.605891920428375 -0.3749696850419349 0.2045106876550026 1.0909751213825212
P 6.6205986100350005 3.9066828719121687 7.07730336351315 -1.1253980789470812 -0.11027281481533911 -0.28912517847228913
P 0.11366464280791044 4.9271645844879215 1.8080652528737704 0.3594703038547551 0.6283999812157759 -1.005175866228514
P 3.2193236718168015 7.5330286691804424 4.034258246292655 -0.026645627611986366 -0.5114394699676159 0.2683293247728605
P 3.2748563413178893 7.0333816527229365 13.272264826850945 0.6054816818567056 -0.5266254336794349 -1.1188613062698278
P 0.6205343977655504 -0.33520085295708074 6.300391761604529 -2.0853456694654153 -0.9355339375606598 1.3107453062997556
Ni -0.1374929725703396 6.19064307242689 11.505134244586248 1.2506290577341495 -0.44848858016669213 0.5251416500450569
Ni 8.154242983812816 8.555118293265576 11.600693803798544 -0.5841752070694455 -1.2116089677172102 0.3504488170824352
Ni 4.774247605913036 6.527119228912553 9.221559942833778 0.2836741826600469 -0.5145204228857848 0.13644330256311987
Ni 3.5099513801207256 4.4862201202214225 3.763112912642951 0.3983109308710366 -0.9781923956611346 -2.508988394233021
Ni 1.0597055653388476 3.0751537318529407 9.999978387528332 0.19583989935388207 2.205668926538221 -0.7689182251792177
Ni 4.507214850501037 4.4413547950768475 7.841668661615725 0.557421078904053 1.0053833542536297 -0.6739627574472393
Ni 6.799352429549175 0.4184768870442932 4.715624989894208 -0.6030928699095549 -0.7458387176519349 0.3428368090631322
Ni 1.2441651736948776 3.439570796338738 3.5936858986897553 0.6324142445814915 1.086770082162238 1.8362713362674248
Ni 4.305840013066333 1.0644466072750756 5.123330707438812 0.8690534373399227 1.110329871760049 -0.45844594848972015
Ni 3.320971243406897 2.347587555957315 2.1825827580582016 0.07632859665941048 0.4611702893994186 -0.8167147758372063
Ni 3.786117072906001 -0.13787703371943713 13.741494751583874 -0.9424484052923059 0.9448922388471082 -0.2899399610641007
Ni 7.775023945374959 3.8770329836792086 11.084895086527675 -0.195047999580206 -0.662723179977678 -0.46180149522551434
Ni 2.188946412409038 0.9458746185405384 9.376746373653331 -0.8019329895423415 0.34994616641440374 -0.3160310017241976
Ni 2.640190698401334 0.22018372686813784 6.456397767890577 -0.74599709760667 1.53078777104177 -1.7916027897154563
Ni 8.461390834367396 2.8791171606293777 1.4024029611559445 -0.6117554306805593 0.04140915907440611 0.03295948564515614
Ni 0.19771614964593226 1.318689575138181 11.06300268222254 -0.44927970860941974 -1.6908052613804043 0.32016636404880994
Ni 6.910022681723332 6.146852750977158 10.52532442393861 -0.6477570455861489 -0.05981414394415506 -0.10059081164088482
Ni 5.035289742444375 2.2113101644880664 12.005065172275984 -0.651134189588498 0.7662031402408997 -0.5506266816900388
Ni 5.846311119709687 4.783794006245867 12.710112317781103 -0.778316378564666 -0.21472696606637212 -1.175204203835931
Ni 7.247371704456943 8.351850714282689 1.2671610646987366 -0.281376901985438 -1.8112758426643514 -0.9776784321391936
Ni 7.963930577562645 6.698687980996243 2.6662544845650897 0.1834188999817099 0.28222588024929457 0.3092299196419642
Ni 3.820370182088671 9.012592087848496 8.213456392460518 3.5007760120800873 -1.0884731808962738 1.221461692141574
Ni 6.231686162212026 2.9126444126163844 8.947671971552362 -0.8127123395460327 0.15392243318448975 1.309644874146725
Ni 1.5938629568205247 3.429261786547172 1.2514457970093484 0.31124360763788333 -0.6653107381991961 0.021148866163473255
P 2.337177477442303 1.6789260696995907 4.315018890768449 0.23138900010308536 0.09288572968714326 0.3059090827988474
P 4.402167694576824 0.7664904977146875 10.421522250925946 -0.04660330168083587 -0.5691216551704327 -0.5360477554345995
P 5.314349675946534 0.43909674424057743 1.6317122749447444 0.6814837484146328 1.4160412367257935 1.434743441120987
P 6.886069394266459 7.089640179419687 12.837797948950803 1.3642329938052504 -0.6165968179332607 -0.5526051455726483
P 0.672144681990329 5.021057428569923 5.25962279981329 2.4650796086652127 -0.47033832905193196 0.7266132937634195
P 5.611206892841083 0.10898791733205772 6.849917111889568 -0.9528714003978428 1.5774255255049672 0.6062897795802977
P 4.810145378868157 4.323857810037152 1.8158778651962018 -0.6163559055670481 0.37359800150538885 0.2574646141442147
P 7.571021321130641 2.1719760549357567 12.527869789694865 -0.2205669697869169 0.1972748320281957 1.6253328907092073
Ni 6.958765370621954 4.743945365010556 1.6497456916273694 -0.5397506582074834 -1.9664791994437936 2.4849388094829847
Ni 4.039799568757266 5.77032581580929 5.428082310441127 -0.9135291511547944 0.47167633113706514 1.8613683884453684
Ni 2.9388487761863886 8.114477035169417 10.443939293786427 0.9196694597245775 -0.22730634539327949 -0.18644534551285954
Ni 3.5995442094233576 5.880968503786144 11.26232398695812 -0.3102987272261108 -0.36672544275527164 1.2300826010413655
Ni 8.549568701541773 8.648395536941129 8.852784978754276 -0.309929259701834 1.0488419396578967 0.03144639143473939
Ni 2.7970126049275708 3.541392941178423 5.890668344817298 -0.7634705718010851 -0.6118497901665786 0.10910990485548952
Ni 3.714266398601152 3.1017531822509636 9.944089221075451 0.015509151379192643 -0.9402429130005548 -0.4054061471549212
Ni 5.692475334558012 6.363985121203782 1.0879267093449019 -1.4633510775553507 1.6611396159951715 -0.9073793295033147
Ni 3.6117000204342675 6.641400390933489 2.147470564726235 0.47118062244756914 -1.5356751810410583 0.2017863467453041
Ni 1.7097152780877685 8.75558351218926 12.419454288860145 -0.851538568384611 -0.5309536287411436 0.3899152506081736
Ni 8.44392432134265 4.749421452208215 3.746047918092261 -1.8677763488542414 -1.778373692619692 0.8829312237632794
Ni 8.136353819762746 4.82137319523651 13.336544534963059 1.4754391190681364 0.8304177272455956 -1.970244837133813
Ni 8.688749521793675 6.076343534274419 6.653366008983004 -1.4459094850401355 1.5334807444929008 -0.19093423452214858
Ni 0.41776940598016615 3.051852797065588 12.71641900612418 1.1186985554397186 0.1406678821674287 -1.185785578896203
Ni 5.060060767754589 7.64435127402412 11.81269647690696 -0.26878055337766615 0.43957585105809455 -0.1621689894639981
Ni 0.12412525568464584 6.248463570304181 9.172462594596517 0.21930532946567394 0.7253740220396798 -0.2938446954351455
Ni 5.027176680371334 7.901819252971753 5.279673915738541 0.0698041652773314 0.11645606080791557 0.06692272996447829
Ni 1.7687302245148844 7.599430820484937 1.3053099137669888 0.9261856635765405 1.6693460630653636 1.0693233474407002
Ni 6.141275595056052 5.9924840580109455 6.474727040290928 0.8043187161656987 -0.14437052782999654 0.49925398364501755
Ni 6.13572600333225 0.233393409022624 13.094701780660289 0.31649097207975174 1.2395486315502715 -1.284769193950968
Ni 8.94672284435854 0.6187583446526186 0.29216487170689104 0.6263500406652825 0.5443544755280818 -0.17421846442936448
Ni 1.7158988463495541 8.030121403354478 8.050416921829155 -1.9842889739317056 -0.9786004297328308 1.1861146801008475
Ni 5.823212322369228 2.6759874026330084 0.6688865938690375 0.7027940798566348 -0.45704032639144515 0.44416527020098995
Ni 0.8305147775984536 1.434413263484674 2.6918184399510716 -0.14113222339835693 -1.697176712124387 -1.57815520458214
P 1.7241956697379528 4.788020516499094 11.287632514115758 -1.1297488997166092 -0.4414751249633364 0.3419214963377144
P 0.7489826383939855 8.02750280461063 10.3649072272774 0.8533511961133173 0.16730682491119575 0.7246613122433714
P 2.013546236900141 1.472451855763712 13.656908499318162 -0.3111603038954577 0.07201608532698564 0.25939499839770813
P 9.229963347785084 8.484645828825908 2.2146684025262275 -0.7975795976696521 0.962913358014877 -0.49544515142188866
P 5.165576515032963 4.565301802285596 10.44552607274454 1.585539155751037 0.37956527483241725 0.09812075283383746
P 7.288791504938563 6.824316404240514 8.357198168559597 -0.7198286667414183 -0.2854544144889213 0.7969694748894791
P 7.537613513998617 2.301527782262915 4.1968539333474295 -0.7184330719454723 1.9726544750165702 -0.730771024685535
P 8.142500635761461 1.909427075618485 9.394147651411126 0.5374801170057518 0.6800259329221837 -0.5096448399610385
