# total energy = -340888.1071137011 ev
CRYSTAL
PRIMVEC
9.06634273471592 0.00000000000000 0.00000000000000

0.00000000000000 9.06634273471592 0.00000000000000

0.00000000000000 0.00000000000000 13.26950903222868

PRIMCOORD
 96 1
Ni 6.874055808729497 2.006164078017434 11.48643170584751 0.3078240404333731 -0.4722674277538447 -0.7398449619623453
Ni 4.998465200277706 0.46902004774127287 5.699479361751824 -1.8883711422864575 0.6524868469616505 -0.4354322612033662
Ni 2.6706635437079376 1.9424095551743845 4.330676465405255 1.1723541359816454 -0.5978958990896477 2.0704271004823696
Ni 3.718515183655075 4.473605546991732 4.792508716543859 -0.6880868555534472 1.0293637763286274 -0.9681707497590744
Ni 4.042945195801788 2.837275726058153 2.399817431007612 -0.19366628874133096 0.35063059407593805 0.755448215717241
Ni 5.374546167577555 4.783384349110803 2.6789411147198408 -0.8249186518042373 -0.644653981180793 -1.529138151253489
Ni 5.6562011742104 3.184308130902209 0.5341562812329685 0.12844280085614654 -1.13420513571575 -0.8229795257999956
Ni 5.399868463126563 8.116453033313462 12.534537203394136 1.406842343835345 0.32762153477527445 -0.1233702714292456
Ni 2.1704371439152172 6.974275162470548 0.09817398679659783 -0.13233313704948824 -0.6812137825826978 -0.07380428757565999
Ni 0.6858960347902752 -0.053476009966603844 0.2348572648013658 1.3607321797408436 0.10203242918341783 -0.030764534876366375
Ni 7.959414909001109 -0.5498002558014671 7.186978818545096 0.665204551638635 2.2426074514357826 -0.6131409981741762
Ni -0.23200318007568435 2.7034111740419946 1.2450418767900664 0.13052642285805263 0.5080085899091961 0.44323504507723666
Ni 7.249683458887401 0.7986822463403062 4.739298350422434 0.33178877877908663 0.26074379911611867 0.6268969143076881
Ni 1.0395106045353626 7.83256770634225 2.291684066602497 -0.0036049437424389525 0.8131607399373609 0.4410385516465501
Ni 7.855514620067471 4.515600847021454 3.90700807781266 0.9075323101414112 -1.0614174623300623 -0.22939176716739848
Ni 7.676037297228874 4.096962466435873 12.431300570756303 1.6345747210224493 -0.7346053108299606 1.6168217679144026
Ni 8.456096368743825 7.36831655493423 9.191125635280876 -0.5515841605073016 -0.8855336943831329 0.4044576671987227
Ni 7.489896212403697 0.8966259480287964 0.33832871571872497 -1.6846281860354146 0.2387932629869565 0.013035493027719485
Ni 2.210419715834706 6.369287171174496 9.121712807872077 -0.6623403427169625 1.2831648255783257 -0.18613424203034393
Ni 0.16959047597279014 5.795070347473623 1.1139643185625818 -0.7050921318621921 -1.0957769136465385 -1.0156736804360442
Ni 6.287064507968635 2.1026390321660244 6.790618255583226 1.937245756499973 0.5398553021061476 0.7301161647103555
Ni 3.7105730673282107 4.535945720351915 13.75092671691047 0.2264504251508874 -0.26495398054272434 -0.26905231898181403
Ni 5.964638157589317 5.708767829990263 4.624834865447209 0.49720815685958236 1.7530552684595613 1.523237469498338
Ni 5.54083196158557 3.0545868975634223 9.350121183012144 0.5248215477014768 -0.9511150798283685 -0.26249446325863823
P 0.5214443619385658 5.89686724486864 12.298379825029674 -0.990985433660745 -1.0930019220045628 -0.20621275794777388
P 4.196093859036257 6.309567170894751 12.731881568065326 -0.2933813826454818 0.02840271951240915 -1.8486177736479197
P 2.698270557652346 8.912296607710912 1.3536358114113964 -0.013305201749338375 -0.06169079214157762 -3.588784616180587
P 6.401998536137198 7.985879563747819 5.827066377986337 0.9254050766567741 -1.7382526562290903 -0.2233735859977766
P 5.074867271381002 1.3119270078153833 12.553565643744392 0.053829644225946 0.49606273040122945 -0.40967263574075896
P 4.145458334281076 6.266964425894823 8.132974629868764 0.6071138181434899 2.493414965274796 -0.45494796263879067
P 5.0105234362534254 1.2797596234230142 3.539230067284664 0.07667003915922925 -0.12423210520890865 0.7805491245499268
P 0.47047972893833356 6.040333053951179 3.18143138031943 -1.0449732007311099 -1.824931228664257 2.3775700556883184
Ni 0.8063877311190758 0.10078146699706156 4.632823220122551 -0.47068799908186676 0.4160574562211803 -0.48798098183435956
Ni 1.9419199726610845 6.770137387110181 4.584880399190521 1.1458638030006008 0.32808767577841563 -0.27516177431366157
Ni 5.953749479839814 5.695648831902394 9.189426602632869 0.6607112917539718 -0.3753396667868439 0.14848377866742168
Ni 9.076134489152428 2.4482842865557304 9.865163800272173 -0.7531295948863933 -0.31201288170374003 0.8136353655809343
Ni 2.556282562452546 5.55760469583751 6.888706112122854 -0.4751740598776784 -0.46706428628635044 -0.6982087744787975
Ni 0.9134521737034856 0.18870957975143385 8.777130128863089 -0.2744336378983855 -1.2497150305603122 1.299607544515381
Ni 2.0042782787069453 1.571315076435924 11.231843359125875 -2.274502500372167 -1.4939934850315562 -0.19863186027672244
Ni 4.072864127170113 7.218730964435443 1.5135334602551331 2.4164855018065934 0.010412196472259487 -0.2385052994328925
Ni 5.6744335896594 7.923557523073313 8.197823460292467 -0.25072138188311016 1.118931497386131 0.08204493031789742
Ni 5.607134126766347 3.209068313195208 4.685158684160024 0.031162284535417303 -1.4319039147896628 -0.5316534830216456
Ni 1.1977545524452864 7.796012212015859 6.665911616468627 -1.0217473974339502 -0.7095707364588361 0.24117076208019753
Ni 5.149229415345548 4.9432693050745655 6.799548603279529 0.5924045369577733 -0.857583231916794 0.11880116400132441
Ni 1.3145925126100158 7.376458130803551 11.131498889853646 0.23666438956941174 1.7510338671541588 -1.028093908477268
Ni 5.096717157622718 0.4590905890641245 10.338540225747531 -1.915163322778637 1.038498905860676 0.30800607453719214
Ni 8.238377211810805 7.327563343873436 4.563689636073192 0.4713197191285947 -0.3825246145710573 0.5994267339118773
Ni 7.291243574460856 6.346258660363724 7.23477567135742 -0.22275574990811955 -1.35397429219172 -1.4562481479619822
Ni 2.4511945826070134 5.768415299527297 2.1774862254724514 -0.6886517269179817 -1.976878540400247 1.3898473519392451
Ni 2.731616566613771 5.083607225877689 11.421185769607463 -0.32550808797669745 1.2696079128294973 0.015204989875212523
Ni 1.1607185419484354 3.625485439785262 3.384388717842174 -0.053528053825127174 1.0006586950844507 0.15552474467460312
Ni 1.692894733905391 1.3651283075939689 2.3114423475512824 -1.6992415650732158 0.8857290982233907 0.2510695092511483
Ni 1.0544972692480419 3.642901884378763 8.091998386774133 0.8149327442361192 0.5303954422448285 -1.3384121760874044
Ni 3.9397158162382264 2.797365684881375 6.756728266051468 -0.3622324399809246 -0.04569287405142453 -0.20196863795943926
Ni 4.271525831455792 7.136462969515388 5.738810970255482 0.01964528503475326 0.244572845783211 0.006125396171447515
Ni 7.970367051150484 7.637460008449413 13.035089991529057 -0.12567243719986096 -0.9693747973695048 -0.38687492111995303
P 0.2269459740401535 5.796947080441273 7.9348215474163455 1.0733103571129063 0.1029567407699001 -0.6285668458109434
P 8.703489665788519 1.5724030375765905 7.705829299797455 -0.9498999764743448 0.5929316131058369 0.3142397141517298
P 2.0260918995773065 3.519599621769907 10.071119377371735 -0.7641681120887419 0.18403853584357982 0.17060195072269974
P 4.037532589126972 6.40516268978797 3.645851165704252 0.06853044077123037 -0.36782047559166325 -0.34678576640855113
P 7.332205311406946 3.854891112637605 10.33497080657186 -0.6448954077676378 0.825795655092552 -1.1045397474408332
P 6.540885842086099 8.02453844961283 10.38420014155273 1.2520801883583792 -1.5814413315325795 -0.013700637415544144
P 2.7712002194483487 8.962424417267115 5.459872239937166 -0.40194209986572066 -0.22813758304532322 0.8866351549774278
P 7.20524024629118 4.325615632832588 1.415524480898203 0.8719207315853887 -0.9442834016185156 0.8494058383123241
Ni 3.2526864885930906 1.9332434825642704 0.39417738760626536 -0.3605943901568693 -0.9179900151396255 -1.6518607617964067
Ni 1.6927315397342912 1.3603684776035536 7.020207068560914 0.6772889936069949 0.5941731988224218 -2.956180881296109
Ni 7.081412135797669 0.9489559722605649 9.069868739616473 -0.16026714445559495 0.20042186229760967 -0.6238247031402676
Ni 2.953234250967511 1.9137599118035034 8.848493126616534 0.6484594709698123 -0.5858392250354298 0.9425054837824864
Ni 6.825795665798105 2.186031253598102 2.7497474390229755 0.6890307075239552 0.6614561403397963 -1.018662844971355
Ni 4.193872605040729 7.081031349398437 10.56041902077503 -0.07474942509774868 0.11142261214906617 -0.40072545384980024
Ni 7.235567163087255 6.007259035274921 11.266848508826815 1.212370528473583 1.9906185156941592 -1.2692870391549689
Ni 7.667596532045871 4.056689771545539 7.95862704380841 0.26156655212773017 -0.8003337633760216 0.7655104850492493
Ni 3.130390590039352 8.866103590946786 12.28558812191829 0.25443276929642633 -0.029735836501535884 -0.07402617377847896
Ni 0.4002509306740354 5.172520850098648 10.161710275017889 -0.5459670714308403 -1.150113065195258 0.27711452716465823
Ni 8.907056261550036 2.612412290968092 5.790057566518003 -0.07540917016893464 0.9178120948008645 0.29806438994344797
Ni 3.732096565227727 2.914792957330632 11.178619393490191 2.5261394520910105 0.014736020658593975 0.7884508958955065
Ni 1.2434942520674686 3.607978331763372 12.677781793711405 -0.5027910502639986 0.0124474817347334 -0.8281638982144125
Ni 3.262777328172771 8.360673110364544 7.604026055962452 0.4751398642056333 0.669099515817667 0.8729399168785225
Ni 6.177434290360821 8.097640371922772 3.521674907645728 -2.415815472322762 0.21388698666358005 0.20897592251520786
Ni 3.2967489147900784 8.635564625239581 3.2859817260346174 1.2416962740208937 0.0009201978214242217 2.74779014186041
Ni 3.7796314007320087 4.4932251128950815 9.053175789181516 -0.9184839240569085 -1.7143174855697314 0.6894824503493932
Ni 5.318951353289503 4.697725541969004 11.336751825383198 -0.585403680159908 -0.4210939902038231 0.5282807098946708
Ni 8.062281634851114 -0.13450554245486743 2.4242865836954826 0.537192924782636 0.8326664140704563 0.13907482664869597
Ni 4.990731609836136 0.5026507398678381 1.409938707075165 0.1298821044058344 0.4745654797594021 0.33137585961138416
Ni 6.220037035360747 5.790201721369141 0.11733116921516486 -0.6170192501826599 0.8831826776524532 1.0460700333397146
Ni 8.501845134708846 -0.05237898248309858 10.774496227789669 0.1994445859860049 1.0054571449143588 1.7217418030582605
Ni 0.5257617543984436 5.16949269159046 5.639488277821197 -1.1939097506652343 -0.2306966020217511 0.3229326139400374
Ni 7.260998254750332 6.212793027432476 2.459662546818533 0.46083733154003215 1.3568564988355214 -0.40071696920936795
P 8.930257032874746 1.8825172943807007 3.7593445519957163 -0.617155518650208 -0.36503802775051974 -1.8415156153854995
P 2.0862924160275123 3.430205481378487 1.3620756699601155 -0.8108248927153325 0.7038999113263039 1.4199760530038255
P 4.87118281316258 1.092739103342465 8.110403969371356 0.5844644561750901 0.4094299236023336 -0.24213338310378302
P 9.102789537098754 1.559120845317622 12.337127561054507 -0.5678710705927832 1.4849925670845263 -0.7654323235131463
P 6.4024971849933365 7.942098194178836 1.2832465388788499 1.1453670658698405 -0.6712376452065923 -0.23258096352865754
P 2.0952408964094933 3.626727528754189 5.811209344361124 -0.9337665612475919 -1.136199026217327 0.4504955832943919
P 7.097949145135797 4.107515689500336 5.893532643972498 0.1769569464064501 0.5590586145074758 0.40857194647741246
P 2.7810644004570575 8.86264024798233 9.750501762388776 -0.038513582694165924 -0.38056337707962845 1.8794275599399246
