# total energy = -381161.0044478852 ev
CRYSTAL
PRIMVEC
9.31462115315914 0.00000000000000 0.00000000000000

0.00000000000000 9.31462115315914 0.00000000000000

0.00000000000000 0.00000000000000 13.63288959399132

PRIMCOORD
 96 1
Ni 0.05263878700415418 0.34758533403979996 7.400409679041578 -2.406620436087055 1.544093744122057 -2.4193810781868335
Ni 5.247410450234333 5.047863321484688 5.744326858978957 0.6827384467573403 0.6077766485384695 -0.5313094694186656
Ni 4.0905810773611515 1.8388645622167161 0.15642881601590192 0.6509359575347629 -1.2090167815100017 1.585021335574354
Ni 8.225266885835104 7.748144047019668 8.60776528284365 -0.03332998161069744 -0.5025866475626763 -0.5433082936517546
Ni 8.714722283044066 6.326546568152524 1.3518887171560592 1.9376381068423854 -1.0353004535280363 1.0257356926577366
Ni 6.677130278738304 3.678865508212896 11.347008137158301 0.6604356694950819 1.1227614126551824 -0.23789929041777738
Ni 1.1296586229986216 7.746812056196198 2.5194401504271187 0.9379456323259459 1.1210534288251404 -1.1996093721531726
Ni 3.406487356744982 3.296975355964999 9.981715680177253 -6.526322942674844 -0.9360995802561426 4.935590672758642
Ni 8.329180799308057 7.287545346112177 3.4499801172486797 0.04972256403610791 1.9967176866133614 -2.030478070893258
Ni 3.4513652014126652 3.993941883000997 7.074624284325201 -0.14460629798988645 -0.48590481603162117 -0.19874344615392223
Ni 2.568264600073154 8.06493431209811 7.345714223689018 -0.23630186402367045 -0.3487801711307606 -0.4701215850554355
Ni 5.841506301365413 7.619136544187079 9.100580463898945 0.4667562681276284 1.629433543141142 -0.9715815752128363
Ni 3.4371324603059366 5.554941981896485 4.260918485668 -0.8060920060160376 -1.1234137015272005 -0.09721418185916807
Ni 7.896991692887163 2.9874784392416425 7.828277732714165 -0.3805793179192284 -0.03486801552177866 -0.24223802700244734
Ni 0.18496322642581944 8.685316024095151 4.661411799262991 0.9810555761415428 2.2995501873694137 0.8036499722334483
Ni 2.3487376089714576 1.116152422341058 5.71072156881871 0.3520452150352776 -1.1054715152264831 -0.6429711941617314
Ni 1.2483827840891775 6.546101503117649 4.393103205772518 -1.1053043935209996 -1.7468951623954365 0.636242102968014
Ni 3.157013858668067 3.928506669470387 0.902382798567941 0.9032899899252895 -1.556270488693907 0.1409298775795637
Ni 0.8551548749858412 3.98962921341172 1.1584314877098036 -1.1808554885844373 -0.5826443722472159 -0.9967670733395285
Ni 1.306571222370419 4.609498621245889 11.74804728755228 0.5582852266765611 -0.403606374942021 0.04251627609565581
Ni 8.775155545020807 2.5987792989381044 10.158111318075605 1.0943129275065024 1.084918630775796 0.29691947770572735
Ni 5.448634210789745 2.6560735335896033 1.9120532663868817 -0.5147150553950942 0.9749738887238371 1.4315028226965023
Ni 0.058330020522617196 8.50013204114824 0.442947493841228 0.8996775899836827 0.8275452907938071 1.1947101350793425
Ni 3.338080779069708 3.3404932659457827 12.34290507469287 -0.13425169422843974 0.08733111841750121 -0.9831271139585906
P 5.49262716644883 4.709574910807864 0.00501685494769915 -0.875294533153628 0.691329530860461 -0.22774060471722068
Ni 4.564350652565054 5.409764296759391 11.364404123605242 0.28150520003318613 -2.8765214204912524 -0.17797356059642253
P 5.683884282381073 3.598843597972117 7.216597739789052 1.4761916809634448 -0.9012791301428478 -1.1105952096062939
Ni 4.008388860394019 0.12058149654649941 9.71303822768951 -0.1624430690609912 0.36795674405921147 -0.3544365980855896
P 7.071138753093435 0.06728789167598198 7.731429890840405 -0.24874960286872 -0.4298000026182533 -1.0060289582574287
P 0.23669383786851675 6.312844760450954 13.048979438282638 1.558112426998652 0.13217321443285623 -0.823558281121601
P 2.625866217222377 5.756361349495903 10.036260238667294 -0.7735364406775194 -0.37541114345472765 1.3911251902104043
Ni 5.324433052467019 1.4571607023916815 8.278694621250082 -0.0970786847225683 0.6721940955825908 0.8274864125314135
Ni 8.36615984524635 4.057644576998982 13.136707334595144 1.7565758800183102 -1.992212599654156 -0.6442318060417098
Ni 2.9891178125628364 8.015482988449142 4.51214592690617 -1.3622655856662347 1.6638554722644376 0.3741083654829041
Ni 6.274543038310332 7.498018525462734 6.221191682788727 0.7413693690266716 -0.6880184642093571 -0.0667214125869496
Ni 8.576176608160894 2.05566236932347 0.7438237286966014 -0.24813330944095977 0.12237319762329893 0.9569237160903455
Ni 3.336320315673653 1.4015710434093782 2.921637108229191 2.7202343437293277 2.9003892282477857 -0.8499722523387554
Ni 8.119918520706108 4.0997280353237215 5.4617994963134695 0.421903373478996 0.27240246640096955 0.6562715108150633
Ni 5.3981303349516 1.940459135025024 10.993589055896548 -1.3180081585097558 -0.24321144665931016 -0.1617992648294052
Ni 5.64616938137247 8.93506896080636 11.482724030138186 0.9806218310382337 -0.19304562443819656 0.5027051754184116
Ni 4.624066688713771 8.779673136275234 7.131623245486462 0.7947452135446507 1.2203946843296403 0.27745159878910275
Ni 6.568316874544055 6.906875409234032 1.6598859798753687 -1.4396691605573786 0.7774936255530546 0.11514325553376298
Ni 2.4472304129390974 6.143383857993674 0.6954100538429788 -1.9498379913426873 1.2509553307253163 -0.4010242160371416
Ni 6.391730286912269 2.7970130661065657 13.523594781086338 0.009109418500435923 -0.3687584140249004 -0.7107231048957243
Ni 4.104301514305007 7.422998566775825 10.631717887409504 -1.3337394532020836 0.24523773306071958 0.44119821715286595
Ni 4.208606641865971 2.909244936260348 4.32548371358384 -0.11671985599226349 -0.03414604975408958 1.9283463971278145
Ni 3.441575534591218 0.7915248350327732 11.937135028220286 0.6662245082627172 1.1776166699321655 -1.9942728246172943
Ni 3.6073478470758107 8.398854165458797 2.2993095718753462 -3.7840686430309995 -2.9745259594622 -0.7041670489447616
Ni 7.148589827898705 5.632383742080613 3.9573819950141442 -3.1129325563992776 -2.5868282853306357 -0.8236732094329106
Ni 2.183757039284032 6.902273986389317 12.061276572967696 -0.31723607777589236 0.20866918990806643 -0.3097168865807118
Ni 7.40256228798776 4.193386550918068 1.8218039021309274 -0.24299007467712347 0.08202924658861357 -0.029894987787219482
Ni 5.160858990572208 0.3835015817056618 2.300727257213333 5.337363851146666 2.2248961501989486 1.087837347084488
Ni 8.577108070275209 5.480918687671894 11.08246265060966 -1.4580924002595728 -0.27604854779398913 -0.9959816013237557
Ni 8.441068028479542 8.259954534972186 12.143864661333412 -1.539607169105613 -1.411377255591221 -0.23971140392585166
Ni 0.04681528586545847 4.406030036994979 3.3397303984741593 -0.38152754076511064 0.6815793934522326 0.28000059046320164
Ni 0.7404015368886091 2.150801909679577 12.704489352848706 0.7324152451571773 0.8480989465754427 -0.5912791651040784
P 1.7804618876491822 2.004320177582442 10.801352041820044 -0.23796228244522888 0.3297727767903224 -0.4112847174228852
Ni 6.713727425209728 2.704462990428254 4.076383731814766 -0.09188711321929982 -0.006123082178602358 -0.7541377244359334
P 1.7135270201145256 0.5232358022467007 3.202065886751128 -4.35854256365228 -3.285620957337361 2.0202574216065146
Ni 4.974687657784123 3.693685070451643 9.113000579731217 6.9105126036531495 2.2009573799951645 -1.9972185375091798
P 8.94666566412958 4.751900549282325 8.812599390554144 0.6016229702322478 -0.20678842794558577 1.3188653643037287
P 8.402458923841197 6.503962157066051 5.413838512047405 0.308189908413224 -0.5142504570538499 1.174500492900687
P 4.972750216586348 8.586282972101209 0.6014422928266799 -0.17034226930340987 -0.9972362996664632 -1.4118745069426135
Ni 1.4628239920467152 9.272323448536296 8.81490382782496 1.9760730137798161 -0.18330500011166495 3.302450884410506
Ni 7.685130634986278 5.671048734445817 7.39041695347921 -0.6088184595394224 -0.26921224159844603 -0.35351357205068795
Ni 1.3221266396794749 0.03835108963268049 11.689602697189603 -0.3828573153201277 -0.9567622508118169 0.018426325025987622
Ni 7.711109113354515 1.4518793122035172 11.924347916314973 0.6295353803717998 0.1328833531260034 0.12057136852786979
Ni 4.506367135948961 6.74252823378434 13.237208370881245 0.6669048221591933 0.3359470239218343 0.41262503350086355
Ni 9.240942489905033 1.6682393321165434 3.4200829777655195 -0.8581897551525414 0.18128154192373297 -1.3471570121595702
Ni 0.5014507663171077 7.40590623697815 6.73085794495409 -1.2898615208722108 0.13699300441900278 -0.14721056838195293
Ni 7.08174810657548 1.0294332994983564 9.63280860139724 -0.21304469326794276 -0.05810538878316445 0.4117606286180392
Ni 1.6644110228267097 1.1670475122672148 1.195116191619975 -0.6671940712648381 0.5075036252483196 -1.155159883590546
Ni 2.844517633936617 8.79673752220948 13.551255480033028 -0.2860244280597784 -1.4173769248180814 1.248434621185992
Ni 8.40108035991201 1.7400923196147817 5.500257704089297 0.9440545734371613 -0.45089873227008154 1.0115084933147613
Ni 6.191084032867733 1.5542656278089926 6.254932966417664 0.5290201591638567 0.16566131888797275 -1.3951232556262039
Ni 7.608080088890162 0.4724329270698609 1.9592783955826387 0.48646763051362674 -1.1787672385968408 2.555596323899547
Ni 4.631248261615137 0.536092773810587 4.799418157581976 -0.15290890431831086 -0.1095523917095468 -0.06108504023677867
Ni 3.885212310397039 6.283457130744324 8.476781217404483 1.3592381116938204 -0.24494719840349427 -0.9419879207161197
Ni 1.7528533505808934 2.953796769188022 4.070943993067168 0.9648198310089705 -0.3089267865792486 -0.36411551593625036
Ni 1.5223909942571423 3.2852668771880627 8.722540976031626 -2.1882764420933865 1.3623360338928538 -0.015701984116289088
Ni 0.6566630928117145 6.9575469482527525 10.03397070479031 1.3380203399656247 0.020507375924732424 -0.6196178641477716
Ni 1.825218642242005 5.710104940899034 7.466556529627525 -0.4027363136322418 -0.23002657253791997 1.724649720733675
Ni 6.423008784710958 5.463705267799358 9.704586140464219 0.8665579246115787 -0.43660262736238353 -0.38847183329342777
Ni 6.641390077412046 0.42051974905275785 0.009111562402226716 -0.4868183289848262 -0.47581889255052895 -0.5433987964830319
Ni 6.580360679682146 8.818040060763858 4.188691981861922 2.348707365820355 1.6047314124087715 -0.08131653679230512
Ni 8.882935026268164 9.171306382238862 10.260657845164742 0.3275009500370102 1.329659369595439 -1.2086938509529441
Ni 5.076217028244429 7.3058951497641775 3.775137706500009 0.1988745724151478 -1.2257142967703407 0.12251383696622127
Ni 1.2942107201134625 4.488240883204397 5.647574026240857 -0.42968635985852455 -0.8635682458556353 0.26891836450711104
P 6.859091402769686 7.144537967701436 11.002927895054667 0.16176918292241818 -0.14231955883823874 0.21720628084480012
Ni 3.1013776265800477 1.7267724113800809 8.297753267571077 -0.7931413593926405 -1.0269633944172507 -1.7581118570468626
P 5.229898962485216 4.425730460712735 3.4105811327373954 2.2486971092732886 0.09626261657917615 0.317901222163717
Ni 4.356215443121426 5.624745752743231 1.9383922205933597 1.106348261404482 1.0729874265558488 -0.1572648672941614
P 3.872795920413223 6.875922923175353 6.0098550380582 1.2227505861563264 -0.6183503102892576 1.1474311474877208
P 2.12944348339834 5.049633099501886 2.5225204956391574 -0.6959068658184981 0.3549168801561178 1.6367884408443165
P 1.2034769955580642 2.4430574626669674 6.797440719809537 -0.8932151221877908 0.5455482387258669 -0.4214446886750226
Ni 7.410684637624584 5.958684235346206 13.122651571290135 -3.4085520843466584 2.4155287943202786 -0.6396791536740208
