# total energy = -340870.57389375346 ev
CRYSTAL
PRIMVEC
9.33253564746783 0.00000000000000 0.00000000000000
0.00000000000000 9.33253564746783 0.00000000000000
0.00000000000000 0.00000000000000 13.65910926722896
PRIMCOORD
 96 1
Ni 4.947671628879327 1.6854932196217354 -0.04169963458125977 -0.8666455992293784 -0.03614148291756356 -0.37180877081545
Ni 8.276531003421171 8.122628162483085 11.570985986287663 1.0040615501184127 0.5061314274911412 -0.8706547203887715
Ni 1.6698892204677438 4.2696442685110165 11.975746444964615 0.012742387267332893 -0.8505286390628577 1.1585609388522948
Ni 2.7189781875123193 2.439188776844451 7.4353083966377245 -1.5895523906754883 -1.8618216739327034 1.3984330367257272
Ni 5.749168432314211 7.334327564074364 3.860515250023069 -0.9543078757340532 -0.5870725832218986 -0.654313358647428
Ni 5.160042803967986 8.205566404397874 10.071270882191607 -0.2523339777858687 0.6837303783569644 -0.6213973246456975
Ni 8.858834548405214 2.4657771701397397 2.976264988873904 -0.1243470335202181 0.02425758699578403 0.8305514246099825
Ni 8.45617297693504 0.12011159683714458 7.362928985250942 1.6565028885541084 0.4699848023672551 -0.08136513064205342
Ni 6.117327620487551 -0.05071579701108723 1.5095497298786362 -1.3040385837035413 1.1731807456479988 0.7670886281696466
Ni 6.731828412529771 6.038262380755124 5.386032947935486 0.7499221436926892 -0.45222593572193726 0.7787285264014202
Ni 5.709234513426693 2.9309107334381572 10.846220355486873 0.22898681841949595 -0.9585795065262136 -0.09613226164889896
Ni 0.8819227268255967 7.897471413924948 8.931117834677591 0.4036379995109049 0.8734567086139409 0.04106283147858089
Ni 1.966131891009109 2.3714159049208337 2.572461115073318 -0.5387132180819044 -0.6786663335704958 0.814634753379726
Ni 3.07833679482309 4.3856383507388665 1.1496722336007825 1.2070172345814698 2.031040628264947 1.5369512195400046
Ni 0.33332643312408183 0.7681787188776679 9.814315385835984 -0.2696138479122389 0.9272999796866416 0.42649613505600104
Ni 2.1627497463777097 3.026989185166833 9.760129752170917 -1.3521251547981228 0.6145497055962449 -1.7048964493661474
Ni 3.8379865096177244 5.274599675747442 11.209087996100216 0.657486614169087 -0.7597411866656398 0.14631042516518672
Ni 1.914774948817472 6.126034875996328 7.609039142242419 0.03740672278323235 0.03707247937226518 0.19844751218005824
Ni 6.7510347703401274 2.0158649720447683 7.8593694717323626 0.5621526800517673 -0.5176188593054506 -0.8604299573369697
Ni 8.320739223512355 9.59132658524643 2.1477308971919924 0.7356466076102814 -0.35291193391094705 0.6347092112632553
Ni 0.5661694578205141 7.79433756544961 0.29565285430540106 -0.25320840997102195 -0.7646003145301542 -1.1210102342920307
Ni 4.848326789767937 7.384135305393056 12.264499755864188 0.5732896705051933 0.0870611525855662 -0.052373114285077536
Ni 3.2857150634838876 8.930555082794227 5.71661001613686 -0.41254944306792174 -0.17862739213033751 1.1261082176402282
Ni 7.942650217695566 4.731931408518784 7.069299424615748 0.6633736690774833 -0.49638411829639034 0.26838717459398936
P 0.7897882045481632 4.359208610545023 8.315965631665904 -0.3272973186666363 0.36414894027734707 0.30266255083709165
P 5.995528701253851 7.346590515562609 0.8923294370269224 -0.6645304083897459 -0.35116795463664685 0.7819125805563567
P 4.006242789968992 3.9206821056126535 12.872631092510115 -0.22187926084043724 -1.8407018612349524 0.07321859027551907
P 1.3039418431792702 2.1058679432415968 11.537644570391999 -1.5300994867254938 -0.39753805726075403 0.2240119909127239
P 5.543964644396763 4.280721988006105 2.524967842528662 -1.2157006212880805 0.8340581522116605 -0.26106595834222784
P 3.3645843199733525 0.8827925191229364 1.4963964545152175 0.9306750668064617 0.17173966387156872 -0.0820816970931038
P 6.834971593540487 6.854252611633877 10.263973738968643 0.05282125756608968 -0.5195937236436342 0.5681011843257183
P 8.621853477521654 5.66558624545826 3.734932920946648 -0.26530673589645276 -0.7262607955200072 -0.6140192870140716
Ni 6.560744373958612 2.5855789268022957 1.6521098073168645 1.93172045580637 -0.5670470320295912 -0.442497909800896
Ni 2.7962982431288395 4.307721012858078 6.296575761008419 0.3493075043891404 1.0767522929149198 -1.1750622789414278
Ni 3.803185485188756 1.7861632787569688 5.162665246409536 1.2689168002997437 -0.4875492936135797 0.3843459840505123
Ni 2.54287324490716 6.757072920730457 12.437493231173926 -1.0299237625971553 -0.2756099175946737 0.6226311970527986
Ni 1.2277043616667345 7.488445053326171 2.7558482350348528 0.7066759314095442 1.3300805162932576 0.6760052417985648
Ni 5.033446961549386 5.65863350660077 13.706096495886388 0.0738773069054405 -1.7758349853582382 0.3324089288615888
Ni 0.7521108927153307 3.8299605291916277 4.677957623406824 -1.530557914419151 -1.534230735285048 -0.8010282183398849
Ni 6.67355606162216 8.496732175692964 6.370171201755108 -1.545289564202371 0.2227552356874873 -1.7578647740330628
Ni 8.136757621047167 1.6467538652627522 11.948893007664559 0.8952786895850388 -1.4122313760614 -1.3479450552785044
Ni 6.973270435324581 3.176468404335186 13.047058045254097 -0.9462466959924736 1.6950326691981905 -0.04272479256203609
Ni 7.0775801832576954 3.936155449271337 4.035119520939256 2.3056146483959385 0.07533666505978638 -0.5803175238862521
Ni 2.7791730407080415 0.05185809934149907 10.223132697642267 0.060210350941309214 -0.15341566875140028 -0.27973370995506014
Ni 4.906841786595407 2.9100618494010653 6.935330879247594 -0.2527479253948357 -0.45260774454138825 -0.8262821078106672
Ni 3.3899501511339682 8.075862827698007 0.5845769506024121 0.43736367389812414 1.4599747048839502 0.5420219707401633
Ni 7.465552344041038 4.910089508907362 1.3163121188243754 -0.7317830108898171 -0.5647790619310209 1.099816373823235
Ni 4.177401488823184 6.448940600116015 2.2048264153882884 0.0631753471069041 -0.490001354698498 0.6922350733938658
Ni 3.4867005454099456 2.182310740532474 11.395876825207463 1.165762855917373 -0.24874471777271354 1.6376201927169927
Ni 9.328811697565428 6.1431227482756094 11.978615266340174 0.34673742966911897 -1.6798364210737262 0.46623921928189377
Ni 8.522471308268747 7.884387199323335 4.067942047867838 -0.9060436414110267 -0.2698822710822771 1.2033061042784696
Ni 0.7776839061613644 8.502751661012535 5.7650589403043435 1.0496243263498763 -0.17326844181126932 0.5836694710776206
Ni 6.1905880232141275 5.093007202339324 11.484496714661097 0.8754598550868986 1.2349964934032152 0.13078044785038767
Ni -0.10788224247626486 2.4063849149866274 7.744796734642763 0.5959894260955543 0.6834128471165456 -0.028732334937685997
Ni 3.526690459509739 7.985327901984564 8.12876803750905 0.23174329811871056 0.09046555028142485 0.2976067335807391
Ni 6.560875029453921 9.103225652379846 12.601184035217697 -1.7226550589011493 0.8544279741172639 0.8290522143566368
P 2.102078933877649 6.351107631736053 1.1718547369435595 0.1833440808797165 -0.802024006594251 -0.5415038934531642
P 3.39471907671273 5.798192240661052 9.267213231048677 0.26635343199341227 1.8274897334200526 -1.978229398001187
P 4.981763380619477 0.40661203369618215 7.114237448973583 -0.4849324248160229 0.517372033401967 0.1336765384512601
P 1.3603570195464236 0.5491030503726045 7.711782890738907 0.002412466096234555 -0.2446093554481013 -0.26512007380694336
P 1.1569730760279162 7.994072487634858 11.306613924066202 -0.725688467956305 -1.2130770676223042 -2.2121707322124804
P 2.947233337816346 7.132502153964181 4.435003729880586 0.3699897153288402 1.332616395341234 -0.28616506740270076
P 8.186994658993301 2.9250312361492727 5.7395027254219935 0.5165155989389427 -0.3402875602787172 -0.020908468017893023
P 5.542284788028511 4.904275339366133 7.033962712656014 0.2730953787029361 0.9048223674094159 -0.13967183680274656
Ni 2.1570289021902713 5.41409308206007 3.567185263773546 0.5772250010038574 -0.8375818490942026 -0.20490072400456968
Ni 3.9532339890152395 9.132697799107302 3.5312624685919998 0.2582567710282069 -0.14020559781902947 -1.5337946761888939
Ni 7.327430820429148 6.581770576167909 13.167121112907271 0.4641635676997877 -0.48916343217823494 -0.19915713665257315
Ni 2.046093054137938 0.03474316270961771 12.55672290341774 0.8834734694199946 1.7467645503548435 0.3394781770035443
Ni 5.000428451377841 4.1146495209335665 4.837920079566612 -1.8208346899973802 0.5131268849723678 -0.009818528752318575
Ni 4.71132517040155 2.2076765716930904 2.749100811955704 -2.1370109590501905 -0.3969248491567874 0.9715574068431204
Ni 6.456275972924051 6.763717685920436 8.032826774050447 -0.11312596799341808 -0.5753504096889639 -0.3396015899552861
Ni 8.341765425721652 0.8336576536050826 4.977788653801484 2.2777513463267676 -0.6034147720253479 -0.571279839164016
Ni 0.5153239385676562 5.761104745064185 5.578366236311503 -0.09572731290099643 2.5220657962422695 0.9473098471496653
Ni 4.34624571890334 1.5488928992766526 9.017483916837152 0.5490030300436868 -1.065825618700087 0.023595013711120657
Ni 8.291248411714141 7.021146341819785 1.987755375482673 -0.796973331544221 -0.18391717977436714 -1.1334623440124545
Ni 2.270307216622779 2.594594155978585 0.3436864806485114 -0.5370389157032752 -1.8754811736976666 -2.9837215099185386
Ni 8.594742462245131 6.065392061102405 9.163623021593297 0.42050675024178547 0.14373675090073953 0.020457239413087348
Ni 7.013932291971677 4.276587674833127 9.310882030594943 -0.9457039361151262 -0.13500117079995458 -0.5486032235021068
Ni 1.4630802364650766 5.778267277626499 10.17013509573097 0.014718794267413363 -0.006279919471440797 -0.515448334016693
Ni 8.857304012603029 3.5931661090156504 10.690355815612083 0.4493871807215616 0.061499759176694084 -0.05271327123331567
Ni 1.4101087656528413 1.6261289620747605 5.475649552167616 -0.4967888099339767 -0.7880595739943589 -0.2997826581861353
Ni 7.627919794568042 8.780161275158713 9.29786501024806 -1.1024016180519078 -0.10521288379392847 0.9548658051200523
Ni 8.79444938682424 2.3091492288709334 0.698435748735505 0.9741071698481675 0.04870286452234193 -0.7566599766371549
Ni 1.2434296837806558 0.554572849358343 1.0825498393930937 -0.5047350613642468 -0.4408706586101182 1.384548565434151
Ni 0.7083944972386298 4.514324681082403 1.7546491732885479 -0.8829556492433116 -0.01946556492377938 -0.18205621530622837
Ni 4.282355181697462 6.771463690285156 6.006060467429257 1.0162246678435078 -1.3178950299706593 0.9805578105695176
Ni 6.376249482047569 1.6306832393398012 5.360407672291328 -2.6058976432572605 0.375471821489334 -0.08446151017919003
Ni 4.304529285758398 3.889642092941495 8.890331855309954 0.3228454535428698 1.0073397066490521 0.6737115606683817
P 8.419272132045755 7.190531858951933 6.551946592856658 0.03427460491215387 -0.2138939286421155 0.7661738296648611
P 6.639035013254567 -0.19817545552338592 3.8564714624432694 0.5889700573549277 2.145163670064312 -0.17690475301227598
P 2.770419122522369 3.2891121063619098 4.243338651037717 0.7508089171730166 1.7386100395685087 0.48989054015224665
P 7.211259420029094 1.6487976905107928 9.806434059708266 1.1675266326860152 -0.005121380386965373 1.8354976913261936
P 0.9065550207054089 0.3029546299860728 3.639633735922134 -0.9712085081441338 0.4859377261520856 -0.024236761060177615
P 8.836847095051862 4.3700250190494945 13.464125318335578 0.5646934441957501 0.49752131722462706 -1.4375148332185372
P 8.455323716215535 0.15168823029260592 13.579244008744862 0.32347588803801713 0.34201148494835937 0.593985508291648
P 4.326330088404166 0.1016705069278815 11.9471170261819 -0.053783107258726724 0.4836851826724831 -0.5177975509751598
