# total energy = -381173.75336259376 ev
CRYSTAL
PRIMVEC
9.23624756214907 0.00000000000000 0.00000000000000

0.00000000000000 9.23624756214907 0.00000000000000

0.00000000000000 0.00000000000000 13.51818192140960

PRIMCOORD
 96 1
Ni 1.7005593900851783 2.9727693366939976 1.319150402904732 1.1111323130566864 0.04337348188962852 -0.7072449165391368
Ni 7.511396632081335 4.064318285083924 9.509662441337813 0.02832275820409316 -0.2819782830148627 0.5684953344403435
Ni 5.303286977470361 4.32918615041742 8.395412644204413 0.11012857592799098 0.7775879850390738 -0.3697822273037244
Ni 8.878832288896534 3.1069720107287884 2.671125505276239 -0.9992062789086403 0.16004911490751791 -0.5008547524732342
Ni 7.620291988369718 2.353534369179302 11.76696896747297 -0.6324489544741688 -0.46715761733110517 1.5284390683039355
Ni 5.008308945767048 7.63420177688289 11.482018729520487 -0.17331549299912088 -0.37132566053144433 -0.363459113299174
Ni 5.47283677012395 5.843404250161792 2.1022530237016332 -1.1232874603619816 -0.4133675680938429 0.7200035017563857
Ni 0.7349697649677546 8.88735734520308 5.536222364831353 0.567474606485313 1.1255978536627131 -1.1033590968691709
Ni 6.472577419827997 7.984615765197132 1.7152542596233307 1.1497155726465231 0.2045266284946026 0.23356775292195903
Ni 8.09988413215888 1.455078407945008 4.635303096428093 -0.7013918001924694 0.007044822661923351 0.00822264502010842
Ni 2.902573856813446 5.653276098406378 2.376334045769452 0.5742420071161337 -0.06335866676230378 -2.458434592544869
Ni 4.654496018427012 3.590443378406086 1.322699892762376 -3.6453823100699734 1.171445508124447 -0.052591400943470715
Ni 1.6804428433509886 1.5394792362540182 6.546341785685634 0.5583765008387866 0.6535903644384744 1.1400014306825528
Ni 4.879703437627997 8.779339432413206 0.1890650596851182 0.7932058940819888 -0.694756554264139 -1.01396518238537
Ni 8.278873369606933 4.903459065819151 7.2335379848462615 0.6326487291898006 0.4411352251254145 -0.14280781132856696
Ni 8.189965252589802 8.478163878736229 10.494394189093718 -0.6023832454370399 0.9732419936343947 -0.4781465122424411
Ni 7.242363219191771 1.44712599897433 9.54662128511966 1.7410939823326275 -1.313019961266545 -1.7093033201845917
Ni 4.777966173037961 9.20616489507637 2.984950099702744 -0.22375436637596302 0.817959703987901 -1.1756711161700206
Ni 4.100976950826806 6.32912926219315 0.07036727408131165 3.408364136705569 0.01501215713811608 -0.21367384221150942
Ni 3.927381681832732 4.478702522562994 4.023119080142451 1.8436516878918958 0.7856219110871437 -0.2835942213517309
Ni 6.702116639037401 4.2609949362124055 3.6416629881005065 -1.9639505194846694 0.46150041904532774 1.062626395036499
Ni 8.72497488049519 1.037803225044541 7.075334922065469 -1.590295696599416 0.29527242902060763 -0.5389782988178331
Ni 2.3464686399544834 5.158527272711429 13.221389754606465 -2.374730272246678 -1.1686897997561807 0.15305982807387833
Ni 1.2995492387728231 7.341237247102468 10.415664416659268 0.6328855277909552 0.02118768982120867 -0.7420591960048446
P 9.198618880989208 5.468301772673772 9.256250293595876 0.18903418928595833 1.698032889477095 -0.19473149678105173
Ni 4.5447139823927705 1.977148053309256 7.895902532999144 0.1309100314497165 0.21519799216551969 0.20690181359499848
P 7.4466043569021165 8.666768049678447 8.46627498114383 -0.7011213201399022 0.6465884791993445 -0.38569581321018737
Ni 6.909969149462654 2.8647976051408857 7.249098290761363 -0.28277583921549365 0.7111283107539431 -0.69903744102768
P 1.8242881596220026 0.9502805451303168 2.290303943427425 -0.006901355105523598 0.0663750849911244 0.9008862655798032
P -0.1789596814565246 2.481234725077789 10.29470375045405 1.5898992324919456 -0.403502245263989 0.2632236281151789
P 0.09790514556339901 8.04728370348523 12.187505469313676 1.3106429763939365 1.0774164088614797 1.8532889538713435
Ni 2.9910293977102933 3.5919119417351655 8.169402595108478 -0.12049397832271506 0.9141559861055158 -0.23379838087552637
Ni 5.397505936715295 1.5414280844454389 5.054394125558101 0.16348230895878296 0.6358561803835049 -1.0108490053538914
Ni 6.713911326906803 3.9545639577917404 1.0282898902712558 2.604363466000921 1.5437286474731544 1.7002499517330718
Ni 5.124168432559369 0.06961821442100735 9.321205126728504 0.06114340427853987 0.4823510372420919 0.8890905584964559
Ni 0.5125322963478458 6.784550146660285 6.026243155506453 1.0730043958367135 -2.895123351863156 0.9453298406051591
Ni 5.599345650113938 3.6267972479863295 12.654044948343996 -2.3127402036971265 -0.5791813533992799 -2.1156551190822337
Ni 6.914060807039902 6.657367020613548 9.239515137017513 0.3867905889362629 -0.7513689034415446 -0.10008121899431796
Ni 6.514177477904577 5.990279055564493 6.032678049037082 0.15650330653778854 -1.150404628293748 0.003542208825303577
Ni 4.069813852258783 5.771389229552757 6.399993446382037 -0.4558162241763569 1.2203340062950339 0.8731980556359155
Ni 5.388842336698459 7.789287606182144 7.719503139308789 0.16122616593475458 -1.849111939675519 0.1622198973065916
Ni 7.9122959484254585 8.136145639265596 6.380149368944752 -1.534377031054925 0.20907568131786572 -0.17544256664445268
Ni 5.564460343862775 8.047477664679636 5.5390745180138685 -0.10356634932944098 0.8369735260862424 -2.67634612698681
Ni 6.123724357316362 2.231255690476852 2.8696392460031737 0.7577771209607336 -0.7598059784653043 -0.36586618007876986
Ni 7.86618860164076 5.8476713964387415 2.352379838260214 0.07908764746178638 -0.6671441918635092 0.4220959491057763
Ni 4.245404150681041 6.389719044826888 9.389215310485406 -0.2327095186867218 -0.5236095296712466 0.5566687741190606
Ni 1.141692535267757 2.100618207920205 4.264972987947215 0.28599768858690094 -1.477859812694487 0.3663624029888981
Ni 3.794998548526424 2.3439656169219 2.9117352905625933 -1.7701693024320286 -1.5392163614250975 1.1834319910623619
Ni 5.779101496092266 1.7605765253830497 0.4997982821226726 0.4320859704389526 -1.3674548431766578 -0.12016564844901885
Ni 7.49621224143349 0.1907783835690448 13.303647773529647 0.8599324488752609 0.199980660995133 0.3888906659984012
Ni 1.788035888762639 4.04401701340268 3.4571393912387127 -0.6262806208799279 -0.34674334320638994 1.012321990354992
Ni 9.16876732954527 4.5667424323289705 0.6256781736679418 0.25241676730766205 0.44323633062881734 0.6588696105595427
Ni 2.838834513832435 0.1657010483817178 4.235233195096242 -1.0147203153838396 0.2437922588634447 -0.21555023329861586
Ni 3.8565766096269023 0.3694184908671658 6.365725121454034 -0.6338491772558051 -0.7400750756952803 0.649248799640327
Ni 8.889204594673622 7.076609524200142 0.7697350000033327 0.9298646550900244 1.3434726213294474 -0.8375350550166674
Ni 0.6438495667096519 0.8048318163188732 8.974760877526455 -0.4704601993417769 -0.22215076933426903 1.7128216177504951
P 6.733907802425408 9.152105139320993 3.711160207681193 0.738080928083387 -0.04971176540283051 0.6021857847142532
Ni 0.6403758140803 3.4642670033207947 8.547600139084388 -0.15790070110594742 -0.1450842660675695 -0.8781381732500102
P 2.8128529500292783 7.664570558178581 6.005925258579974 -0.10564560045597289 -0.11099298081081531 0.084925337189486
Ni 1.9765384609839776 6.977957166225909 4.1011598285243895 -1.0072198932417364 0.050287435400642434 -0.14015109043201024
P 6.544730984147322 6.072703326940025 0.2641557506626027 -0.7740820287683442 -1.5348922801284468 1.7617404549383853
P 0.7645109785006433 5.722427882336073 2.7445555189797073 -1.5072920019126752 0.6797492822220293 -0.5436739045212895
P 8.098535640045384 2.456971103282235 0.6659943933624954 1.1184692130377318 -0.6262060588882505 -1.5743224610996112
Ni 8.13862095355612 6.924174497891112 4.42516369115831 -0.4008457814777484 0.37676920014451887 -1.009766828033306
Ni 8.081975048541986 0.8733121250660274 2.0871258977873746 -0.88831922754807 -0.7018589696368751 0.7947837800920698
Ni 5.422074354673488 2.454671277691412 10.07255907087522 -0.7006945170151287 1.440635638235706 0.5997224107754252
Ni 8.68890733458288 4.45733908243619 4.617026410166562 1.3580672313141708 0.5920648942301674 0.9846438077134333
Ni 7.590929958035471 4.597637679723765 12.28455256749801 0.4381995395358582 1.0263992943836646 0.0072623379893681375
Ni 2.02528737451155 5.875315484765385 8.188232532586435 -0.6614527979056867 -0.45524003995791273 -0.15345012153376156
Ni 3.018230146164007 8.073680898419257 8.247753681401466 -0.5527936074343704 -0.36227229207992445 -0.5175383837765023
Ni 0.42542062944081677 8.63771081550684 2.835262856981144 0.7376027028953878 -0.7601895870569683 0.33403180917699243
Ni 4.044238683339144 1.4415011243365328 11.784177019915791 -0.6466455576895251 1.668264914186043 1.6211494487554792
Ni 3.75816439408384 3.892080744450697 10.898749709197222 1.3019521334881576 1.4827580213270528 0.6754552828323658
Ni 6.22167476049179 0.6365067500642522 6.969312038703778 1.1649660710476906 -0.30081572743633994 0.9985943563562545
Ni 3.1131233514656893 0.8354241148004998 0.6323726057491817 0.004774281460191777 1.3496424975855854 -0.3871981087873267
Ni 2.0077569770361174 4.686619686719717 5.9008075274588485 -1.7063097847739064 0.09773251625648328 0.0868498079057085
Ni 6.095830890311196 0.582396194948435 11.553286537718689 -0.009613097609731832 -0.9988388682668926 -0.36427929520762425
Ni 2.2461629937041163 2.470779293074528 10.197453454827956 -1.3049109590061656 -1.7485843771724014 -0.3278380216614547
Ni 1.282914757290603 0.6194714154469246 11.620553203563697 -0.954413548073982 0.18863438274437835 -0.34724496543315686
Ni 0.5966440301147165 0.9918344219701325 0.252844118529746 -0.5249431608810057 -0.5482319562056172 1.1140482011519008
Ni 2.6867874099122195 7.91329346313955 12.57628867638052 -1.3562589744608384 0.25118032379739963 0.8073919557743837
Ni 0.672138345101514 3.1829863264415432 12.403986482015826 0.6034607947719349 -0.6098044776017756 -0.7446328702692917
Ni 1.6041144952282418 4.826197856713781 10.655422619939701 -0.2121512349193959 -0.8074657464351127 -1.524373125764678
Ni 0.20231445651257227 5.915918028127873 12.011675028460246 -0.13259230424814583 0.016990363910409447 1.1086118606276778
Ni 3.0659168912460184 7.73342678219299 1.478024017243331 -0.445259274596117 1.8208557730433026 1.1959712611799531
Ni 3.1537628398175874 9.036624338670132 10.658072499305193 0.3174299389542533 -0.43782467269494274 -2.6716921731545664
Ni 7.309113578809763 7.252107460148872 12.420978406270594 -0.5762371831692915 0.5751112970949643 -2.3031373905000403
Ni 0.16802304096618767 7.69332299618755 8.154045486635136 0.37538440398185025 -0.4519557127796862 1.0536714998360563
P -0.006993686495467564 3.0676440695009743 6.217119443297436 -0.14052210061818382 -0.012543898103281622 0.07611056711133343
Ni 5.838943142690436 5.282921052057647 10.935924681167121 -0.5959302907228446 0.25690257099315755 -0.404711949301374
P 3.126127987738297 6.128758112123586 11.40338409043377 1.2774032405042 0.832583881658979 -0.6696245350832016
Ni 3.4112694160109784 2.8933376094607417 5.648815914559757 0.465667920159456 -1.1593474393093326 0.09471069871102399
P 5.212938005866209 4.0963865358925124 5.729978514546909 2.069417171160617 -0.8317189625555224 0.4999515239326745
P 2.6626161505901926 0.8988734396146361 8.54816816829658 1.8043338641288797 1.1656440709513216 -0.07181039707408278
P 3.1741841827144164 3.215331664670713 12.972682551265994 0.39504151609114546 -1.3250918048294147 0.5367242126763337
Ni 4.218563615874082 7.0688141314344595 3.7576896509699114 0.9125058520966027 -0.28897219783419265 0.4166678361116695
