# total energy = -340868.96582083317 ev
CRYSTAL
PRIMVEC
9.26573859212759 0.00000000000000 0.00000000000000

0.00000000000000 9.26573859212759 0.00000000000000

0.00000000000000 0.00000000000000 13.56134502478709

PRIMCOORD
 96 1
Ni 7.454129024061125 1.051059035236759 6.9240157456569955 1.3178572347541884 0.6241787440455766 -0.6458888820291586
Ni 1.2367166355280181 9.341624796009592 10.237092625484468 0.4831920450861485 0.5053878644568974 0.4165300249822246
Ni 3.7056282262455733 7.998611609573689 8.320711840652438 -0.45122937613662295 0.059375513744839674 0.12462059889657892
Ni 6.3177510696507415 4.316824128227522 7.304425268477666 -0.982067819456141 0.4976362455359365 0.16240295985167513
Ni 5.970211753798841 6.7855967328691 9.759529982407578 1.4893091921820094 1.1128523810715867 1.9258992211389026
Ni 3.9175727263734497 2.9481911751196943 7.784686094576208 0.6209892905740014 0.1659621379578432 -0.34010578328521424
Ni 8.842850098016957 1.9090015507714462 12.679871127622825 0.019018192973715632 -1.304121887445967 -0.6773645840399367
Ni 5.0818498191017945 2.7990313183802282 0.40107397259706257 -0.10252093878406215 0.010316551434659652 0.26417596472611926
Ni 2.1561095281217275 -0.08240299129960832 12.651378055473518 -1.0727925369362235 2.592774475611741 -0.15148734138043587
Ni 0.3548694414989744 9.03382623214897 2.8053811289047377 -0.1702610224435132 -0.4279773475872178 0.011035946099187446
Ni 8.058811111948911 7.902146007106638 6.236075438815417 0.5215094526091084 1.9399929802278073 -0.531448308989375
Ni 8.483126336170995 3.6034178659714367 7.893123031054154 0.36911862557779657 -0.25853136484583217 0.30079978659674
Ni 0.5886375352768981 2.464278721518293 5.867844802545769 0.4178279178580417 -0.39556653535668007 1.295974318638168
Ni 1.378009880367136 7.187266492445187 9.183132487555133 -1.1115868840956016 -0.3818029059136844 1.6375757126323023
Ni 7.726449075593794 8.892431064187468 0.644238451684931 0.6779459104647033 1.0486709612976712 -0.050102573083345966
Ni 7.408448933756393 5.287502882857071 11.340796806580133 2.087596670283121 1.4195783033447746 0.5291284026069468
Ni 6.121335947078794 0.8299859296386556 13.082358125325662 0.4708831458118084 0.6982722807268813 -1.2897141966610692
Ni 1.0446656757417765 8.690502827268398 7.441367322564836 -0.24368452964098677 -0.23366854016588146 -0.581808763719798
Ni 5.8208943795066 7.747185798129696 1.9876185613614172 0.6503296914093316 -4.513369768039227 -0.4765444578626438
Ni 8.294726077313772 7.596172793710524 10.12050647208502 0.4399000671667327 1.6824720589243605 1.1451793753390664
Ni 6.172816389621003 4.112597988185618 9.82550574610044 0.633367095413064 1.2615603599346725 -2.050440372947798
Ni 7.991467725268426 6.851003580224293 1.5194939994172634 -0.1656903723536953 -2.042298203456638 2.2606041451235197
Ni 8.974645960997586 0.9512207039926451 8.656084315413235 -0.386604955288018 0.6740787141998132 1.0164218714559785
Ni 2.5773485271955012 0.25762088413724826 1.7126485086467693 0.5715076389041059 1.739762408005397 -0.08037962680033253
P 2.240075649489167 4.581259036383046 2.2005721004008927 -0.4573154344297027 1.529975816663436 0.6512306059570462
P 9.06908236675536 5.662237140908645 9.71974104857663 0.202729941605496 -2.8581514026244967 0.9622561840468523
P 5.007566394360814 5.949048807296608 3.2299872973125354 1.9977607831658948 0.8884403265069667 -0.5615309873073684
P 0.7645624039543456 1.0526156792877115 0.7478182880943698 -0.6865220821694886 0.09965827252428643 0.08328471626226948
P 1.2469552764583889 6.4172187713589155 7.268527944774097 0.26136703452241444 0.2264637948873261 -2.2893123116914893
P 2.889687302871403 4.265918161466022 6.356338237211402 -1.6123614181502037 0.5888371313214891 -0.24356420201303858
P 6.322383938850004 2.570538209472585 11.2146762083686 0.18799134984374075 -1.2903438598252681 1.300796679727476
P 6.94805292421045 8.95042532082384 8.576316500114167 1.124290190594883 0.14159630751896904 0.3854549008439749
Ni 5.279154452559999 9.170838705847968 9.936478715178062 -0.5990364404519941 -3.030483705774742 0.3411115988419093
Ni 6.878763732466275 4.96529609578674 4.0186332085123295 0.21108834087252035 0.3467772817681189 -0.7816253883332409
Ni 4.056938697625674 1.2608353525793803 11.381642961162353 0.11019902415461022 1.1992576452407089 -0.5683798919084018
Ni 1.5272068000601962 4.407572770102683 8.313524407376702 -0.3830252083565597 -0.2902253535150034 -0.49621236860521634
Ni 1.759786099601589 4.063786078302185 4.305821990453112 1.0183869656021491 -0.35840123916029243 0.4377043450669945
Ni 8.548292274327826 2.883979608017911 10.182644366933213 -2.426748060074866 0.10715895177670577 0.7615103627509209
Ni 1.112148048498239 7.468778156469194 5.138651575206276 0.3623124012892406 -0.8176925663694434 0.003624741236780854
Ni 3.3053112644756704 7.636904979710442 0.5253432762765693 1.1334623440124545 -1.6845112008415764 1.160772344681317
Ni 3.5408370688277944 5.15301069000247 13.244212970244947 -0.8522083407581259 -0.357064779737056 1.97851941843778
Ni 6.675630949555397 8.062239435156364 11.710071691567295 0.4020593421698753 -0.03624818369875693 1.492641598989352
Ni 0.5759777569029925 3.410468129560538 0.9504201441950125 -0.9825355031211788 -1.5175414475548252 0.6388461162497643
Ni 5.333618462866534 0.4736580609157532 1.965296470985529 -0.5725777320398333 4.869952465933542 -0.7524320545987365
Ni 6.312414004333191 0.08559874447325982 4.9592344497264245 -0.651084310187169 -0.45188346478085395 -0.12148436726044239
Ni 4.695987409233592 3.9221777983575166 2.7506882548597598 -2.0008692468878895 -0.9684857098963322 0.5230955661493055
Ni 2.8718600221926396 0.7724290158546937 6.6761146210998 -0.8990463841575872 -0.7235482816848506 0.4192086002556522
Ni 1.4320569324457362 2.8970165019446372 10.569387021949275 1.595788087172555 -0.8590659871099076 -2.2023012956175685
Ni 6.000594110007607 2.4483416514728287 3.9385132951541175 -0.5530018667904347 -0.9414683007672237 0.2325449680843995
Ni 3.0794403595348103 5.640759159300862 9.508224625562764 -0.15518510194699728 0.09581010242278983 1.545029625672765
Ni 3.2208725904499063 1.048149593379622 9.097099179950982 -0.23647901303148305 0.1507286088375404 0.22710117136100888
Ni 1.6116454740859607 1.5356942164332457 3.9644286388809538 -1.14101573087968 -0.05251735317242568 -1.0531737342640313
Ni 7.721269527829019 1.8501455804640112 1.9756713182703582 -0.08940522733771054 0.007430231025800106 -1.4505567540041597
Ni 8.96908651795847 3.2479007493584056 3.4398349608408254 0.007573955692515988 1.6931084555922842 -0.07959749721866936
Ni 5.203592355920022 0.4442291491881958 7.271932177061716 -1.3544131795013514 0.4043872189721036 -0.18206572838792515
Ni 4.351681836082776 8.421305329576033 12.12431691129786 0.9498261858136158 -2.1515500332066297 -0.3461507039277136
P 1.5422172962658078 2.2396216283076393 8.081992136274343 -0.12953012038305434 -0.9542891066809759 0.6949190479839322
P 7.981979609148335 4.357584111442637 1.792660939439558 0.2980659326053447 0.4290579822459062 1.4131340903813276
P 7.349982124461697 9.118255640436336 2.965703420692908 -0.7304126129048518 -0.3965677229276848 -0.6890769873808584
P 8.541583879727293 0.27306872319527026 11.018782746868489 -0.28042996469113635 1.1404832554149777 1.0148786953385749
P 4.089442907927702 8.417506376832636 5.687045228896857 0.009867122602066878 -0.09989841355955052 2.050845064585384
P 0.6201021297306115 0.26871845901716246 5.460258869002223 -0.6132333007776666 -0.06426549484728931 0.07167541415811526
P 8.748385895043988 6.57933213037952 13.229593488199754 -0.1270312652206006 -0.5848678622610959 -2.715187782444356
P 3.6027229355915473 1.5012627325443244 3.2541671682373288 2.13614963949116 0.43326816367251186 -0.43298251411129296
Ni 4.25399315614712 8.549987904454756 3.6188990616876935 -1.2975792012314427 -0.6463817625051771 -0.5431794813833742
Ni 4.683330410581204 4.484107769274504 5.296599984816744 1.3847473117085185 -0.11379933991135883 -0.47838305373327933
Ni 2.878308976118014 2.828190597120388 1.4055522877567534 0.7894903929036146 -1.9223223024209217 0.1353816940678249
Ni 5.693768448678827 6.9168273858074185 5.230475042735665 0.2459915805076086 -0.6087801501023193 -1.7675192664036914
Ni 4.059023488765343 3.2620217346777585 10.342505224949138 -1.2817054674239798 1.0882582366719904 -0.452929132436549
Ni 5.93043393885397 4.923739259069352 1.1805301244531983 0.2127122496291885 2.2348221510634096 -0.5900748603833321
Ni 0.8779907937075772 7.91815720305929 0.6759967700458778 -0.2621486498834453 0.17872817937425994 0.18139801289693921
Ni 5.410496294359101 4.3331966879777175 12.173896950894532 0.28773009789697546 -0.05786190531379067 0.1309722521462196
Ni 7.5985355570021476 3.2533304720599414 5.553696428160635 0.1963250665204167 0.4076016121443432 0.17318873761326947
Ni 3.1433646887462388 6.097087509689852 4.0861554239439055 -1.532091320344542 0.7630746219142471 -0.13816208502643948
Ni 3.7562747523319144 6.336217686279004 6.672317521504085 -0.6583219655861888 -0.3897144474512772 0.08955537976232963
Ni 8.264288126674616 1.3304117822139094 4.271389579990352 0.4892552205610929 -1.3462321863524558 1.2154805348574744
Ni 8.179979172986432 7.284584542844903 3.972674219481802 -1.2615439048744403 0.5526838213293837 -0.0910479051474561
Ni 5.971110530423498 7.453637939926003 7.464136948105373 -1.005585442962107 -1.2213084543931612 -0.24983383707183424
Ni 1.264032032326872 5.514680256912123 0.4398557206640917 0.6605714237419977 1.0237909102265401 0.39560175946998966
Ni 8.101498368750917 6.685776933101782 8.144591464894782 0.3675957611753669 -1.6783073860237094 -1.3830699240060955
Ni 3.29155164295386 2.40609915011395 5.236699765791794 1.8867297500282927 0.9027834826025162 0.028473939069976768
Ni 2.1208070648233446 7.016489668021961 12.071576328333453 -0.26612588936363846 -2.0985310578074374 -0.8670515764185454
Ni 2.3881421490976074 2.580322829221428 12.58869811492901 0.1215401601990423 0.10846481507232289 1.249812989590757
Ni 0.34942952648520004 4.21628160086512 12.222636588018457 -0.03088177718052101 0.9165517400312022 -0.9590199364977419
Ni 7.52976524660829 3.803465157995606 13.387704974806036 -0.313028467452448 -0.704697981747567 -0.7583381356705262
Ni 0.12129129535822054 4.845415972386615 5.89568649328566 0.4953052834099147 1.24497597321343 -0.11603877076483887
Ni 0.3426822157833936 5.667740989517369 3.2732610753551703 0.593107990782701 -0.15956831861635745 -0.7600967702328457
Ni 5.9091598034909545 1.7980813964026956 9.177016173638266 0.81017157540205 2.3415414441995352 -0.773257733094836
P 4.917920375355078 5.5424218776773095 8.67558591502061 0.02186774660736879 -1.7697584401468553 -2.883577041786453
P 3.0027015141182205 8.079418114147233 10.37630015261008 1.0338896892234386 0.6859777796302443 0.3053748075619321
P 5.800750664228205 2.2572172655264393 6.173178679992386 -1.3574306261714364 0.6035914068125282 -0.11043479431450012
P 7.487022395375892 5.851832680019277 6.050326107714014 -0.7564396330962327 -0.6317961513815183 -0.3293513729821876
P 2.20039975766668 7.652489951696763 2.596970581402059 -0.28744933343176304 -1.5594350024648174 0.7578835646316109
P 4.011897943270441 0.8922850483349827 -0.1186125703872068 -0.6103112420348651 0.4121090130963935 2.027295045179586
P 5.182901962076115 6.444228398790617 12.97225335593598 0.8715371229937249 1.131891914201541 0.12276709062760792
P 2.5041862568007422 4.6072309011141135 11.517297077612128 -0.10729007803793135 -0.02720715654241121 -1.201435369618318
