# total energy = -381170.28211737645 ev
CRYSTAL
PRIMVEC
9.17080107226450 0.00000000000000 0.00000000000000

0.00000000000000 9.17080107226450 0.00000000000000

0.00000000000000 0.00000000000000 13.42239436803521

PRIMCOORD
 96 1
Ni 8.789845765710725 2.433582050456492 10.57659105770441 -0.49691633665077645 0.09484696717857213 0.044949053906864524
Ni 2.58954068941031 5.289387771231331 11.274797139949172 2.0503946073115267 0.6235349398139907 0.06350547675281322
Ni 3.885677483439476 4.7220086653395965 4.050717049377422 0.5801354897824331 0.48773518437214064 0.47483904513576286
Ni 1.2987321306647017 1.8538040218395104 3.7492911676219176 -0.3824706214046703 -0.3416823837437148 0.9212925971502972
Ni 6.512781773058821 8.245457857505526 0.16137766516561466 1.1068979632603648 0.37014243885662057 -0.78384296480985
Ni 7.641468914691315 5.572582100932253 10.253702750761112 1.0399307532111963 -1.3563852156260576 -0.5505847727085098
Ni 5.961845913059371 7.495176299814725 11.267992405731617 -0.14677836594054075 0.3854014218982201 0.26867179571394373
Ni 7.471121289231645 3.759881608423039 12.194392773845847 0.009360358168977427 0.6244145142054666 -0.9538710453069509
Ni 1.6746157443775174 7.554603089207924 10.63830779606543 0.3945270383485721 -0.9939812830642751 -0.5891634043126563
Ni 0.7005666463789912 5.877116884169901 1.9053494249974448 0.3810899390070598 -1.8886693902531666 -1.5088943134027883
Ni 4.545810068948928 4.556154732287744 12.992769679421476 -0.8078215871126345 -0.01414852358624015 0.755962179239182
Ni 4.273345576221776 3.059177400031563 11.368110038417658 1.9020033883579113 -0.58397234703002 1.2254756983969732
Ni 3.4676173566989865 8.700384603591797 8.65175276385828 -0.6520006513538513 -0.20323567759732095 0.9602628077659074
Ni 5.742617919163627 6.852385698679122 1.8540085306980705 -1.2306451584130547 0.6765575147576091 -0.6958454164529435
Ni 5.119058487373323 0.5050644313164486 7.441402392054546 -0.020786083507415815 1.1919929932584954 -1.9623471795532914
Ni 5.7971566717132195 7.052144082407928 6.325612147632491 0.8589927106698111 -0.6223401481749411 0.07997699204527517
Ni 4.555265164607012 5.99488830845809 7.876985167945279 -0.07692457837219654 0.483103084916768 1.2701648137742318
Ni 8.122963470788712 8.519187920747534 7.304748288852685 -0.45044621811369523 0.012871199535713316 1.0187916572397357
Ni 7.455897759850053 6.317416202928679 8.004377679386616 0.3174109127908598 -0.7608583309892187 -0.1599634971722471
Ni 1.9326453965946544 7.905303683835289 2.3154566332561775 -0.7111265109817301 -0.05092146944021553 -0.8642974107121759
Ni 0.3571063990087148 0.1998354184557968 9.405769588728068 -0.48344144209279327 0.07585602789836614 -4.148693237393184
Ni -0.009661438676810977 8.640893618592772 0.25554253103142144 0.3540565890383516 0.5405135045154369 -1.3879884443536357
Ni 4.0650400061172824 6.8147854152667575 12.679813349779543 0.3916931684442028 1.0227208170908129 -0.6924711006640719
Ni 4.896593200783783 0.34448554290332584 12.93251660087329 -2.3882910416502483 0.6017376414332412 -2.397520787778632
P 8.597020507411125 1.0271205224149527 3.0555008259779006 0.20300684941596653 0.5705337050266108 -0.3990105280412225
Ni 1.1196722444143608 4.87963639004489 9.281182425261328 -0.9525456416273079 -0.5298876493704745 1.32101172122277
P 4.06025284808283 7.265475251368513 10.244226562261114 -0.5799141178002465 -0.46260136541899044 -0.2557265484071854
Ni 2.3666443751816524 8.728383058532758 12.622902111054639 1.000820674583612 -0.9221716573211408 3.5180993338498827
P 0.16977903580806988 7.131719121229653 8.934884732113542 1.9564981769716823 -1.6122074090708427 -1.3956292487283448
P 3.5849944365513866 7.893014810720028 1.1069505094998167 1.8559119933164876 2.186396965682486 -1.4280881405879986
P 4.90734137935922 4.977800642153657 5.970536163928044 0.7760093276980442 1.9455154527079332 -0.12741410248131604
Ni 5.202567799752099 1.3781329242706148 4.3355942210310685 -0.5335764110759714 -0.14417280999689364 -1.4421356198200002
Ni 6.805898909260275 2.7833655650006284 2.655768544700731 0.21129865711111354 -1.6880989181928345 -0.8821519223950937
Ni 4.06736021872785 2.193068627829017 9.393166157144261 0.503411714567133 -1.06178487297181 -3.4696435523413407
Ni 1.1998708976926824 2.054066799614092 6.442560951086024 -0.3001161302661541 2.1239129882156518 -1.312611927194849
Ni 7.094008788207303 8.705923767294495 2.8293736386160298 -0.06238601843638932 -0.3926169658100529 0.34102598110663845
Ni 3.068669178892977 0.8438860876257559 2.805924817967963 2.0653463435253525 -0.2501030315728209 1.6767302713445769
Ni 3.241768044602334 0.6722921503329771 10.90105123991036 1.6682150347847138 -0.7673627077666397 -0.049164634650108875
Ni 2.035871930762841 5.979756487084822 3.741546426319054 -0.5620418655055159 0.6764724112429704 0.744889209254472
Ni 5.582514078233617 3.8992410978704233 7.86322804961677 1.1281843834429666 -0.8249662172127212 1.0052131472243526
Ni 8.02091996992789 6.924899220859989 1.0847975230093518 0.7487913725223555 -1.2158214631366608 1.5699477290706834
Ni 0.6353457450199554 4.466225859326369 11.680127278054368 -2.1331339925932875 -0.6991022328273443 0.005831776190428666
Ni 2.3344273518578396 6.500823048773522 8.229524508139516 -1.1187952289185827 1.6069908978669099 0.3116117896105795
Ni 2.141161895118291 2.6529751187672175 10.713365298397173 -0.7405229618659763 2.0155870127140383 2.2504986812584016
Ni 1.3710805784305886 2.2915263455644164 8.782017570120287 -0.1559255796574476 -0.0063498534774277735 -1.7533455460064706
Ni 2.8812271806819285 0.7523147242353191 5.335562753421878 0.780251905024482 1.5101299855821024 -0.5388415161296526
Ni 9.018207877235424 3.2067722686263385 2.5489525590867883 1.0806904516270615 0.7087122451132827 -1.2812226142502903
Ni 7.255534103266317 4.733096163545827 5.9664423184365125 0.33234310862065986 0.5665006726078179 0.837776481603512
Ni 5.643848394199932 2.5633121990299785 0.42350849951494884 -1.3645404977433402 0.894277502014034 0.6036914227255022
Ni 1.4199426052649966 0.8675449196128817 1.4641816313998504 -2.257067592725171 1.1866551259853497 -1.4718462595105555
Ni 0.5273971655032261 4.780362471035418 7.033468663593064 0.2395802776646261 1.0126181814391721 -1.8610104908853176
Ni 8.960679443614508 -0.03785431459541781 5.236143018679174 0.06609174942275069 3.3125370650019144 -1.3158425183170048
Ni 5.956682752190796 3.8269568457103627 4.2907233267188705 -0.33282519046340103 -0.5326711256528827 1.294448626022261
Ni 5.332930733583014 4.518059225630437 1.9715616899264505 0.22195099461863707 -0.19918901833177308 0.010679076980400963
Ni 3.125262190829 2.234997529234219 13.31727021315109 -0.6319858987948213 0.26894099021493034 0.6167906791116217
Ni 8.317888842478904 6.8458744300882 11.989459307207383 1.2310169399301767 0.7392541224558817 0.9006587229500295
P 6.750213806606648 3.366610156332213 9.908920990990904 -0.09301119952141401 0.48719782381143195 0.3322708606218278
Ni 3.425477526874643 5.877722157024832 1.3868818682646136 -1.0434827322285125 -1.4507382738873467 0.7137724332450094
P 7.562893493160309 4.302517893669271 0.7772657220597136 0.26955342698794865 -0.6796168704092231 2.3911467659314884
Ni 8.352912130857396 3.581610411044274 8.287321646224818 -1.4512607220497198 -1.1484048242548996 0.5104390537275596
P 2.023014467995979 4.350371132412128 -0.036315454215760594 0.6892171125031484 -0.5473966047885154 0.6471379239449113
P 3.260045450661075 1.6801090540760557 7.291809205958415 -1.4069179342682867 -0.8187248642886997 2.230720727300526
P 2.53251664983517 8.162847283608315 4.324668128919487 -1.182216887708338 -1.376855053444635 0.39944967246117014
Ni 4.640608637152246 8.22458511481125 3.9066547732632415 0.7330405374460021 -0.08678270211319891 -0.0887475391490536
Ni 1.414201683943987 6.390259873939509 12.96375051434788 -0.42305677035714884 1.074699781261265 0.7338486351695942
Ni 5.408507303241864 5.210748154094497 10.604845377988594 0.31004007424808544 0.10318402628935777 0.8055405043879416
Ni 0.01566005950120781 7.3959665764110785 3.5205191213000155 0.4472282253970298 0.384415403835867 -1.2002704027759392
Ni 1.5087434697240005 9.17327694850851 7.203355914850955 0.3497710742891202 -1.0829895320738834 1.1428625542804318
Ni 6.5694481514015015 5.829511257049516 13.062727299410389 -1.3527144516426897 -0.14811662513599005 -0.09265690150578881
Ni 7.896499715036296 7.154123387662922 5.216102984700467 -2.4672123387374993 -1.304415764537302 1.5281652458172585
Ni 5.510844269729319 0.5935608251878207 10.375980706578286 -1.0085316700746243 -1.1938755549931892 1.0035722691868199
Ni 5.920549796911597 6.219123559608261 3.9807062387436836 -0.5912899637373559 -0.06034739073980575 1.5297984105453073
Ni 3.626162161487509 7.79166829072246 6.186032558965131 -0.6557236087313932 0.40763349382354314 1.044485462461414
Ni 8.552643002183704 2.883208073661702 4.969587272928263 -0.2968500579203726 -0.028923882123201797 -0.2716221365915193
Ni 2.5066183082848004 3.8521765479991426 2.5505501125917722 -1.801225143296569 -0.823915921571336 -1.4985204263676322
Ni 6.583149327844934 1.6900777145807482 12.005136791230171 1.330143251210393 -0.818425844991042 -0.7707848460743112
Ni 7.455264974592626 1.2524195864616685 0.9532598095918221 1.4037454500775761 -0.8325262889481662 0.0236070978959787
Ni 1.1073833712991004 0.5776054658998134 11.213980974229882 -2.0974131421529103 2.0605273248701543 3.4709501869679062
Ni 0.39548803465198895 2.7387587897523997 0.09229952497652025 -0.048613390132329175 0.2809472706471871 -0.21519567817267454
Ni 7.855377844104336 8.05962992024096 9.989321401887535 -1.881600399221527 -0.2509144717305227 -0.8613408991870134
Ni 5.016116248030937 0.36013551452361814 1.7052214579950984 0.9826689433752497 -0.16854609663493553 1.067721293060903
Ni 0.9060705368292227 7.278066760911239 6.040520379239368 0.6231294768454559 -0.8836004819161621 -0.18845183441992708
Ni 1.608292512758441 3.8750393544740267 4.962044289243709 0.31670360231119005 0.41172797560789093 -0.40003614109225943
Ni 5.878254063473104 8.087004760725327 8.750864359693018 -0.3478316911745623 -1.8779877421696045 0.1940470691195174
Ni 7.7183569088691835 5.2726143765090825 2.9538525866329506 0.08209121017480056 -0.28215466069172696 -0.5548664308029992
Ni 4.19598070040063 3.04860346667194 6.08151202479951 0.46320583177220875 -1.6957371514643829 -2.3450489431321615
Ni 2.6186029572478176 5.734602639236211 6.037862681158172 1.2137509537608773 -0.19889642679201874 -0.9949097084158155
Ni 6.5930537927438 1.9554073242603827 5.977864550873122 0.8544045770784963 0.4680389914947939 1.663976057002702
P 7.853030119091271 9.090583837403807 11.752312485565438 0.5228595388790995 0.7736043178009774 2.17518361346517
Ni 3.644109418716288 4.419042089044269 9.548503015801652 -0.6718572810684622 0.34416864050067825 -0.7823771788976009
P 8.501121443107936 1.4970048446586772 7.220657547701141 -0.28602417094946225 0.41491151554219513 0.38544127399722006
Ni 2.816848158839296 4.152015881210661 7.538419376979192 -1.0189556936214257 -1.5854147143580308 0.24277230223936258
P 6.2623730563333115 8.922831548579673 5.62798290876008 0.25513236646661225 1.3514525542111306 -1.302034665899635
P 9.105046190316319 5.325282285688889 4.670657683159306 0.5599595290551904 -0.344356073921136 0.5598623413556939
P 4.144835144158983 2.5957401507729343 2.1215840695015316 1.1485922576753573 -0.43840419934749664 -0.3709759905015095
Ni 6.84161917850202 1.37674813334494 8.849585279412304 1.687665430199842 1.1743961061123387 -1.2725600534792856
