# total energy = -340863.57080193434 ev
CRYSTAL
PRIMVEC
9.34016612563628 0.00000000000000 0.00000000000000

0.00000000000000 9.34016612563628 0.00000000000000

0.00000000000000 0.00000000000000 13.67027724332535

PRIMCOORD
 96 1
Ni 1.9046279937419488 1.0775376039684268 9.52635111781992 -0.705277765510437 0.7914318329007015 -0.30922760564911905
Ni 3.8243029950943996 1.0835339906139527 13.691602866675924 -0.9370897120835538 0.5959457173418123 0.0077421058392640844
Ni 4.2644583232414455 3.1247245531163887 7.528139329693475 0.6488284242734568 0.04516065569703835 -0.158111788675489
Ni 0.5727688746743117 4.270716234538178 8.024903536627441 -0.05125314174802141 0.7565589322829164 0.7295222398800985
Ni 6.899272483318708 7.721786191696112 3.069866021459331 0.25574068947457246 1.0900862910196647 -0.27254439129547253
Ni 4.766996620867412 1.0982821129087896 5.415808457963139 0.28546109935714065 0.870689430281449 -1.6568880398076689
Ni 5.833223283671147 1.3882382297681404 7.441046016741964 0.680694162633802 -1.4853712905801837 1.2340639542866165
Ni 0.1357509083251349 1.5179544567666796 5.242715565512128 -2.037532149526562 -0.1003774100784981 1.1349070468787807
Ni 8.218038557527002 1.057764472303975 8.045367840584369 0.26722246486192686 1.627453536596636 -1.0581588461834486
Ni 2.126120692981823 8.735988129241937 11.10007383842321 0.74957607320718 0.9951657902906795 2.3841682777311264
Ni 1.6061349650539214 2.0299730229988904 3.7550064346575067 2.085546986842944 -0.9938658405323334 -0.17148358199670466
Ni 2.9421523260757456 4.303238692948959 2.8193169994537777 -0.8915125376743873 0.7585183700021324 0.8359885364651538
Ni 5.7084480045471935 7.661887706403656 12.482179315120554 0.17848443879457002 -1.3770352877762415 -1.2239484631191693
Ni 3.325818329562137 4.666627195800714 6.135931529326661 -1.2929800118965344 0.8249888429205404 -1.958441930961614
Ni 1.3071469075618238 1.1784580988358824 1.015460991938063 1.542668581639756 -0.7781991362605114 0.02035182418347463
Ni 7.0596244551728935 1.9827024422932733 1.3841425669269205 -0.6385710082115067 -0.36048537538283076 0.004922377002281844
Ni 5.57849827339579 4.262487548191281 2.3294019363315934 1.7587849718544872 -0.04863447317825172 2.1215043787741594
Ni 6.9825587445619375 4.2975785522835555 0.517122967013799 1.4525961530316918 -0.8527259038244928 -0.9400927605759358
Ni 1.1559669788321032 2.0602071407116114 7.224290649755378 0.39783836210999224 -0.2558653879778948 0.3497481914709848
Ni 2.0056512304366643 1.6507435984168985 12.444955951104332 -0.38520576094764625 0.9883739641798268 -1.4410860955095635
Ni 8.73514751429163 7.199400041076777 11.820388383192082 0.39188522985035085 -0.39878118563923576 -0.029187934417865862
Ni 7.003135130512239 4.307479128364953 4.549126038046752 1.1035043641977833 0.9904403597905523 -0.3304402351709922
Ni 4.7573202087727635 9.075717991325597 3.516432439627388 0.22197207766455965 -0.24827137768072083 -0.44571873073103885
Ni 1.9090085316496619 5.830141028853355 0.49673805446884567 -0.08364209960168821 -0.3969312769146906 0.16019721044960797
P 6.743291709206121 3.0473973178542266 10.003485097630985 -0.915101894958553 0.9670893437694376 0.05004549459316542
P 2.6639928390190417 2.916111942948447 8.783727586286503 -2.1338549299197123 2.0453465033646583 1.4558478271997701
P 0.30559809305134766 0.764811096138473 11.313083798797871 1.2308089376844287 1.4738031261266102 0.046629526933080985
P 1.0339190282135897 3.012595858911502 2.0221076691138475 1.7990831572529016 0.016455317342545853 -0.9297471556755535
P 7.4582814252731 5.684976167101388 2.5531979205353093 0.07198574630968246 -0.7011328901041279 0.5035104449285264
P 5.68159502696793 9.144919282068122 1.4708669433169075 0.6535726238266615 -0.5409588195829715 0.094568773816521
P 8.536155275221649 3.6044728454229116 6.406096768205942 -0.3038362594302187 -0.44983583822320594 -0.6721568145867521
P 2.5574495641506414 4.171364887577963 12.910332529810434 0.38149874440970427 -1.213620341720284 -1.4806885403925338
Ni 5.175152539906091 3.068169847292933 12.71312519648494 0.22519161304312185 -0.20713861219615293 -0.7777216824034606
Ni 6.618899376892861 6.442697143142324 5.3924729869426065 0.1389259597756575 0.32225152871261276 0.02746709507201721
Ni 2.977318051496937 5.389677475224529 8.271297118728642 -0.47782666700917714 -0.30641019080498194 1.6625552653957751
Ni 4.280177822812194 8.962664620675373 9.153549595557944 0.5198937713825562 -0.6152225632935534 0.3057306482394541
Ni 8.781129152073442 5.970355602564622 5.981006193985015 -0.9930130056137351 -2.290119123863501 -1.978861375158231
Ni 5.053207331114838 6.226322854933211 3.573766115304795 -1.4485420375669762 0.14324952685167588 -0.21629071100906624
Ni 8.895835732125938 0.15418092410231796 1.9919230542815334 -1.435232979162896 -0.37535715028834066 1.370972112301297
Ni 7.504207022058225 8.229022592877685 0.36170447090130636 -0.05605287712950991 -0.5394693795216386 0.7765731706213143
Ni 1.354277385775723 8.781979107189864 4.98278901672759 -0.5502998944782393 1.5207663822500261 0.6238339591116483
Ni 2.7142149122168493 6.374710073994689 11.329187179195927 -0.26169690705800736 -0.32211037514905816 -0.3236430097435007
Ni 9.422359576334006 3.0346853517723567 0.14222737950894734 -0.28433367062091675 1.1214270101144752 -0.5196196917855631
Ni 9.266304080892503 6.982960371704863 3.507902065914991 -0.7054515720841398 1.4218393314648095 -0.05598037202036166
Ni 1.9408771784324252 8.033355452944477 9.046443108672838 -0.08774249492330696 -2.5800125479603824 -0.776138911297373
Ni 4.125766196606846 3.6602709977910908 0.9570475930578163 -1.7922602207937972 -0.12467459206296592 -2.59757421099323
Ni 8.846276810722262 8.444425503810887 6.296940114858697 -1.0698195703508284 0.0872663266178368 0.5465903068371362
Ni 8.354246199975137 5.124220614083581 10.199790170909816 -2.5333521677893662 -1.8519830905757264 1.4687609357170124
Ni 5.3751254964180974 5.187892526486305 8.797056003331932 -0.9952647777623892 -1.718509926384524 1.7221259258705568
Ni 6.828754229154035 7.449454968294871 10.261374556185944 -0.6775054804931752 0.2656849451714779 -0.9756071514324618
Ni 7.170529587616777 2.0489148798791494 4.860344109049209 -0.9348860195640158 -1.6380140857213015 0.8834019927521108
Ni 3.516441779793502 7.7192550066790755 7.119343609275951 0.3025157408465823 0.06295654622787866 -0.6545807533762017
Ni 0.6297139994413548 5.287253213612635 12.309045325938639 -1.1999441297847722 -0.21381808109885755 0.3092386613927126
Ni 1.5848767469772598 3.823966749114277 10.88771955770979 -0.41175111553634247 -0.9365559510672709 -1.4852717888878422
Ni 8.590412300180931 2.7295981658074733 3.0910271018084012 -0.8973211739363642 -0.8316351445924645 0.4366962155174544
Ni 8.453223940290771 0.9152326033796941 13.19430533625682 1.1766478782609928 1.430696010524491 1.171551437574692
P 1.4313897972172511 5.888601128564174 4.539515941131516 -0.2642173594870159 -0.6085232968965069 0.46699512361131185
P 7.627740059088948 8.9909092830057 11.821099169833397 -1.5227091077986936 -0.9834330752347836 -0.20611891268238694
P 2.6755746450010545 9.356324601904307 2.8038562224844026 -1.4079036952203237 1.1685995540352196 -0.2905943068186479
P 4.242406191045049 0.823000331031971 11.344156663427679 -1.0471313847246935 -0.26838948858683453 1.4844549494135015
P 8.1896818132033 9.274261902422081 4.263444915218019 0.24734012411570305 -0.07832351560225222 -0.18849965693872694
P 1.4697965602801828 8.790581400181342 7.193996754979524 0.28983660271701694 1.193263632440803 -0.8056310072192189
P 1.4206205856872025 7.67836375942968 12.821858740307196 -0.386714741393005 -1.3094654111460673 1.0110328392299233
P 7.029203534137881 8.707098995449707 8.372388538635994 -0.49952446369758485 -0.5345022653243505 -0.9973941654005661
Ni 3.5711191122279384 1.8726005641352388 2.207735998507164 0.4858708774698922 -0.4154625029496587 1.105538878129309
Ni 3.853257510049431 4.203495059011933 10.796634257760932 -0.4952062959382052 -0.6074051241316636 0.020696352007086936
Ni 6.476545905141368 9.062679119429719 5.954759393186585 1.6629571288198843 -1.197518293952099 -0.1416438729274528
Ni 7.607042250979157 3.0862337285584265 12.118618953212291 -0.7998851058743772 0.690433758519069 0.4304427784085748
Ni 8.841036977532012 2.5970331881440036 10.254197572543543 1.2830990053373967 -1.089272022648485 -1.5176000687069024
Ni 4.015075887983596 8.136050579373691 0.29828941306673085 -0.6544416566951762 -0.9878381462810149 0.7056634309846298
Ni 1.4983307677600604 8.011714288057119 1.424100731581475 0.1692744901605278 -0.018691148651600067 -0.4137792017099648
Ni 1.3429944651093755 6.505621842255887 6.772241554078094 2.1196470138504466 0.9278486531012601 0.695838474474408
Ni 3.4159229120689716 1.0119416173461095 7.200627338904226 -1.205880292763549 -2.66065751260696 2.664582815803295
Ni 5.857797260718466 6.172430096452395 0.9983993104966581 -0.3715303203430827 2.745139848721756 0.5847763309885541
Ni 0.24901723476277096 4.7914865364197 2.5971340619380405 0.045936357520798304 1.5002644056419325 0.6522004260694831
Ni 6.320340967042031 0.9760473589679854 10.724920462333598 0.849907203428775 -0.0784322732659746 -0.3572074759625074
Ni 4.515157721921443 1.9133517088929164 9.520897394825646 0.06407420477208965 1.4862295248154211 0.3466597823536482
Ni 4.763241874089373 3.5719690673443605 4.4335993914094 -1.6906628222652686 0.675815751495578 2.2328663128886186
Ni 8.443659610189497 6.755798191633471 8.084205185305178 -0.735639922742062 0.5952355786486653 0.7564067229757683
Ni 5.911101588734067 6.822804543339082 7.642696467088138 0.5168711825061485 3.3065844469629058 -1.1501524030736257
Ni 2.5186131534464415 7.4892347357766385 3.789769598919162 2.888063359692581 -1.9885310370375107 -1.564530414709854
Ni 5.9066089688329795 5.1140118125204035 11.026144555593513 0.24665826755733 0.04470197089306495 0.479745995519077
Ni 8.974956279282088 8.92444466093473 9.656793075725556 -0.058279709577499623 -1.3294840203598395 0.6342389564950561
Ni 4.271061820684416 5.576135211368815 13.146008271295216 -0.34251953493302945 0.14321147452488883 -1.0518341895170016
Ni 6.7513709528951855 3.4608491110798423 7.81883798975893 1.7523353595744013 -0.234415445634235 0.4295012404309119
Ni 1.0996270968292814 3.9723539681757543 5.25747956608936 -0.2258834969038239 -1.2217311437528766 0.4370176034126151
Ni 5.931304368039788 0.6422102076859794 13.191639652847734 1.169723640337334 0.6109182794912447 -0.8289560550984046
Ni 8.815192737893119 6.127643999933242 0.8203533279551143 -0.5656380674972065 0.6906625867004235 -0.8697872301821536
P 2.971302984519182 2.2525865421725073 5.668244193523826 -1.3666333757166271 2.664997020522578 -2.1575088218932263
P 4.493460516037398 7.216604627059735 10.403039657694798 0.6183006879982448 -1.3222957301415164 0.5756108624392022
P 3.469806330383673 6.3922322256255395 1.7550723198995442 1.6051196489861261 -0.007167721393032817 1.1506321709235217
P 0.5047705973273382 6.204532247388022 9.598189137456576 3.9021853793707892 1.37326579343148 -0.8185950235790547
P 7.404958416925269 5.473075818461133 12.418066546877224 1.4687735341225028 0.07752158852624713 1.0459041971858116
P 5.660420870386298 2.246926401507104 3.2090158162335416 1.1558103726903515 -1.8841527333297354 -1.2232406384188677
P 5.396682599810424 4.6589682595868025 6.662729040401887 1.2397576622372843 2.225148375419071 -2.1363201036307533
P 4.9134037247126106 7.716723821662039 5.359145406212754 -1.4739159975553906 0.24532695034041618 -0.19141580214425744
