# total energy = -340890.30660210375 ev
CRYSTAL
PRIMVEC
9.07899288800539 0.00000000000000 0.00000000000000

0.00000000000000 9.07899288800539 0.00000000000000

0.00000000000000 0.00000000000000 13.28802381026290

PRIMCOORD
 96 1
Ni 6.624922902806393 1.8288632346784794 11.260456898882964 -0.5554220461961531 -0.13157106207248306 0.9368487997173413
Ni 4.517361825530774 0.1778284165677969 6.102352418271269 -0.5311621452075239 0.20548385020154936 -0.6864935429243983
Ni 2.6179820536189498 1.6628356929781862 4.467513615452278 0.4054076898168179 0.09215913593376387 1.9469753250829114
Ni 3.542069179822315 4.377645205022992 4.707415105930771 -0.5718436820872862 -0.7631856935708147 0.7474484853412159
Ni 5.139281912697164 4.590656534567054 2.955815008050217 0.7742224110009506 -0.055458695188936744 -1.117632061848417
Ni 7.159194393288001 6.339016339910132 2.7072485268242663 0.31919320150226316 -0.4722064926089222 -1.0254487575449371
Ni 5.406594698297958 4.521184081508016 11.575251001134069 -1.0799147498033013 -0.2117959084625062 0.07005767604903418
Ni 5.988394716192539 7.719086801507795 12.411704964940444 -2.279499953586758 -0.17674765860912142 0.16126987468849646
Ni 1.909775218690784 6.350437712877757 0.44058536357148936 -0.454300815973095 0.6691046580239896 -0.5101924849343923
Ni 2.743771499140772 1.5670795557050965 0.2793633327708498 -0.18385598751912852 -0.591652232172781 0.8384457397563948
Ni 0.40545874035070767 0.5033448093393816 4.421616583049068 -1.7543469906877915 -1.0484791570018395 1.3779876243871816
Ni 8.74428667074808 2.506419389846149 1.2079454683194228 -0.19550617016354715 0.7294798166779373 -0.0740768245107563
Ni 6.70456382782389 0.6884772756309104 4.975806475878588 0.35230515356488357 -0.1571303985988262 -1.2567017462907903
Ni 0.5383770110348348 7.4657647438427 2.382396716327109 0.8628995019233848 0.14741574241422356 0.26006862742596504
Ni 7.709390437175979 4.004462284147569 3.5923904054267357 -0.9754469717055138 -0.19253860289479097 0.5564288901941127
Ni 7.519421591409208 3.719463620533313 12.513477750755383 1.1050989623784129 -0.004713860535901559 0.6458418308413071
Ni 7.783593045494265 9.163427453278608 6.863131161123946 1.1277858624529675 -1.0405102798637498 0.5980555645959635
Ni 6.786801344787922 0.7013630901404105 0.31454442994855175 -0.690471810845856 0.08933092245634938 0.3280514232238415
Ni 2.047875778476597 6.256651717046619 9.339540848102695 0.5515975302437404 0.4527105886678397 -1.3990143631504939
Ni 0.05478627427332252 5.1174469349649385 1.549755929505155 -0.21640538221005956 -1.4715500684263751 -0.9935164276127147
Ni 6.327858257734287 2.038342836015542 7.350269968279536 0.43686385144357026 0.2570246983933186 -0.8526161177195059
Ni 3.6897571560261024 4.553723191775083 0.8485090504728412 -0.1828044063261626 -0.3002642258082442 -0.5526146586543451
Ni 6.12786620389418 5.864666202040868 4.743997091700607 -0.15769989794905098 -1.3045525472254824 0.7063339746890932
Ni 5.207973572373678 2.7235616611233358 9.377504656579742 -0.05235048857725822 0.18295867251583975 0.3621506789003956
P 0.2720638225435279 5.403498761746322 12.498156950371545 -1.0224919889094584 -0.4338294354926206 0.9111974176978244
P 4.142390343069802 6.063941015448193 12.519590636621125 0.9334796261347923 0.9426463802357249 1.276979265592904
P 2.2205219059427077 8.464490270019715 1.0781912266330838 -0.35462737394015703 0.7647576660436248 0.8832618676298208
P 6.335684349545173 7.676406456260729 5.798149869044039 0.2670635706865594 1.4000710865497823 0.45667085886716835
P 4.912969858671724 0.9686922179282812 12.533250889218174 -1.3859331044865035 -0.0036121428312905534 -0.028250510205261023
P 4.12988856995659 6.080519256337608 8.266120632196548 0.28690091712746074 0.3131981602610929 -0.5053259008707104
P 4.820745449605635 0.9173323555452464 3.9225842952992114 -1.037396931045749 1.1596595712331124 -0.6558480501243995
P 0.0016269555133533401 5.663484800141334 3.619750858189245 1.4433111281853401 0.5295680612475266 1.175806099085988
Ni 1.2555974700347483 1.0178186480775833 2.4483583228626338 1.3227479871875865 1.3110376407291937 -1.5836321685363115
Ni 1.680576044948568 6.562604696089555 4.860453332603416 1.161553960042348 -0.1406174885454675 -0.37396978302251077
Ni 6.234807660321573 5.801648912876887 9.257646517067261 -0.42550677455953817 0.03187448011109349 -0.7374360954105365
Ni 8.591923013241965 2.5033052953088712 10.129061866425095 1.722868717573852 -0.49237242603383585 0.21138247507417143
Ni 2.7455055867694016 4.865895280899754 7.023278239174692 -0.18333893867339393 1.2400546246524127 0.00527513235601027
Ni 0.5975811232143946 0.20183690518114272 9.380733146426554 -0.7782536436475307 0.7255056625215375 -1.391382814747165
Ni 1.4515856880412135 1.131714613005137 11.436975216786829 0.008209532393985862 -0.07809468742089776 0.24787131402882476
Ni 4.01331430214712 6.984759704236339 1.4814819034983633 0.5947079882799693 0.26525402828164635 0.13742186442630527
Ni 5.714772030581807 8.039339194242313 7.901231371262245 -0.6083466621093264 -0.27495274362664907 0.8184790668264806
Ni 5.388009999995312 2.744143737846394 5.1796852465449605 -0.5275160638145044 0.35281757442492784 -0.7766554459224754
Ni 0.6123281312520054 7.507900349520563 6.822708761391229 0.2876748191790078 0.5235689062412984 0.9683034186821969
Ni 5.151148156312972 4.287327384449113 7.244936401480572 0.7212029213811256 0.7928392547711893 0.12969929897106697
Ni 8.48447313321665 7.334782114427808 9.49704321554496 -0.7441919260771312 -0.9827607317581074 -1.244602134813779
Ni 4.836697239990467 0.46794581633399845 10.385507097620287 -1.0320881172383256 -1.1932723741915514 0.0076014664963417475
Ni 8.3786393139133 7.28980478399727 4.8691174154515915 -0.8251893889671208 0.5200899465537624 -0.4225168386932788
Ni 7.456386144259587 6.164699677765131 6.958034780971233 -0.2578384525438656 -0.35052337907411246 0.4135272336001588
Ni 2.3140173740036043 5.534953498787855 2.660634253988272 -0.27374175403768336 -0.6901427096412114 0.5798688663846078
Ni 2.4432568367970466 5.146472475010645 11.726335428551838 0.06146684905622963 -1.0157379580150765 -1.0271549416027665
Ni 1.1088173931129657 3.591213767957257 3.9384643616407646 0.2038612269964618 0.21064405424625013 -1.0899955310780711
Ni 3.787301854884743 2.623629187153022 2.7625132640192054 0.2745699063659336 -0.04589059188452742 -1.0088944527306818
Ni 1.2037655000250709 3.5558056959590534 8.222403465969435 -0.29051460262064804 -0.9607644299926744 0.25648065296439054
Ni 3.6452610122150273 2.425943197489207 6.975654382337108 0.4981808051854969 0.24139727626870683 0.16967918179811423
Ni 4.223729039744648 6.779628940460081 6.074487173507965 -0.18779748866537976 -0.04166832627306372 0.15067590122273405
Ni 1.012761649076814 7.008201663697713 11.294647477944 -1.9199923687361644 0.7534622956354636 1.9010736774547905
P 0.357088590303316 5.746721006315571 8.054655455129742 0.34807234643045865 0.2823652340406363 -0.3016698479065192
P 8.48467287105869 1.843298833262362 7.983152031376856 0.08475590149115726 0.26110761021344064 0.28395520423557546
P 1.8138828965253933 3.2926420100770226 10.59773037058757 0.36238799172218233 -1.1217648530698683 -1.2352895991636015
P 3.9396110384339367 6.308510924034756 3.9252952825552785 -0.4013746573980249 0.19729205841937636 -0.7192843642021741
P 6.918256081829457 3.864427898891085 10.251245135998792 0.03734013121135504 0.64679133923877 0.2837430882247694
P 6.401788496267972 7.872476385202575 10.225240176864316 0.1432901502816242 -1.3635099995962967 -0.204475463541693
P 2.052161063087661 8.729251858638074 5.38378917623327 0.6944549638633201 -1.2693888548401557 2.73440600724402
P 6.881340897023125 3.821175577096357 1.5270865923327668 -0.5871126924312147 0.20983698496392247 -0.4803116382145599
Ni 5.115004685896345 2.6889071455291966 0.5237970564651131 0.684535390756763 0.6014432501212739 0.04116747537724523
Ni 1.08519385379519 1.0905141435877406 6.821619282252822 1.2001852992613007 0.25642974512179706 0.400151326513885
Ni 7.104511619532827 0.5638962440534373 9.223070988710656 0.05812672893940312 0.12986307824244087 -0.09795337401803775
Ni 2.559640445757295 1.6436971761135164 9.141748634222886 0.5798763225837755 -0.09256202779913736 0.47848178409467274
Ni 6.420237009678318 1.8572532452267823 2.529548124055232 -0.7892186272994667 0.5130674924893422 0.3255183723893426
Ni 4.276033117380968 6.769569416415464 10.356167424423006 -0.05881655591757612 1.0918675512898035 0.7115206610963553
Ni 8.018738959533614 7.040196034395577 0.3212846742181585 0.5927727189304695 0.10619016010553324 0.0925874817204341
Ni 7.935884071057819 4.191090060556561 8.38391874823816 -1.2348039177764347 -1.0447726546845297 -1.687484167426971
Ni 3.1185886387238035 8.198366832478346 12.364067489613632 0.8951992424973552 0.29038141947689344 -0.4058851436738687
Ni 0.27511981152675746 4.9110360332010545 10.187289986876497 -0.21428447921231486 -0.4466772379895662 0.9544240895969434
Ni 8.576597673361716 2.506428468838969 5.554739347840595 -0.9702600281879354 -0.2365047240630959 0.3530872831465467
Ni 3.726300102126812 2.808840640682085 11.724315352649375 -0.33510035965082285 -0.24204390871377027 -0.7557616331926016
Ni 1.1064568549797522 3.291370951082216 12.697703225664188 -0.41302124049801775 0.29693747542785637 0.3330419344598974
Ni 2.8993037251410847 8.159944534863886 7.8131324565335865 0.24254938759527908 0.5074074659900875 0.3830925712593854
Ni 5.422501093718689 7.917789638367455 3.507241255465313 -0.7174056591222225 0.03615973775000869 1.1033830081285707
Ni 2.8747359705700233 8.634203882804949 3.4567066735296206 1.1528978270292467 -1.6817027848585038 -1.2507388438391362
Ni 3.5017584517012836 4.348002293465521 9.543697435949362 0.3644641575249207 -0.5916195791626327 -0.039835643939699135
Ni 7.430293118894757 5.9886489279915 11.387384850104423 0.34444889074525836 0.09005108845182556 0.36287752976409116
Ni 8.976227700321951 0.1106611197857693 0.826848389402761 1.1957717435746373 -0.5968993395043333 -1.1314239734261868
Ni 4.524425281944774 0.39013975576543375 1.5760259952299758 -0.31313799644711876 0.1411597342021827 0.042757959792816685
Ni 6.183275297074958 5.518574995740482 0.46558709399934894 -1.134430621462995 0.3414838945796635 -0.10950405497011462
Ni 8.032938504304177 8.587619570645261 11.575901964919264 0.8875648658805488 0.29826673576224116 -0.19160709221945713
Ni 0.30832259616897 4.697915755743151 6.037280553032109 -0.19545012011463114 0.9663308683368583 0.22229423689066877
Ni 7.659319791773392 8.764478350779877 2.8581341242992764 -0.15261271323413073 0.7724162110301471 -0.21789276538886346
P 8.3888259438574 1.9654657606489836 3.268854140989204 0.7606917235043674 -1.469755438419798 1.375676973976134
P 1.977368320236072 3.3456451701604872 1.7034178829845372 -0.3660245600335051 -0.31550341135550175 -0.42040853410102436
P 4.499957396294734 0.9345824419033454 8.239544604413693 0.22658283696369363 -0.7185929945621043 -0.089428110155846
P 8.518582909241585 1.4416895858673566 12.407333429897589 0.7344101641000191 1.4743559133062867 -0.022206618004026273
P 6.095445120533773 7.905641945974226 1.4420563771772865 1.4674453022293825 -0.7500807807577404 -0.6727916199572735
P 1.9851490170828565 3.125588542188064 5.97385652498979 -1.992870544953129 0.4857454076356216 -0.6217038001425228
P 6.978368093291022 4.095842346881394 5.9847268030932375 0.3459848677738106 0.18232232448342148 0.07230867686673999
P 2.1915599188467416 8.28643306283285 10.266101091950244 2.4847382634364044 1.484588132557256 -0.8220672983983713
