# total energy = -340865.0561755955 ev
CRYSTAL
PRIMVEC
9.25161854858812 0.00000000000000 0.00000000000000
0.00000000000000 9.25161854858812 0.00000000000000
0.00000000000000 0.00000000000000 13.54067891379106
PRIMCOORD
 96 1
Ni 4.082082318721295 0.9151201297362355 11.042125697163744 1.518500726144301 -0.08787722072895833 -0.11131822536071798
Ni 8.741733920231011 3.330989681915037 1.3738505243272823 1.1404945682688874 0.3910383084690233 -0.057240983900340124
Ni 8.406927103289682 2.6546038633906117 7.985371561605145 0.7859618109250657 -0.08875396690695683 -0.0391185632680165
Ni 2.0686711176019714 7.853671073559425 7.289380638607526 -0.019585635441411432 -2.0251265767733577 0.20162179614298179
Ni 2.637543879129101 6.251531315152245 2.8900547752453654 2.8228380720351836 1.8445652008451006 0.34791036693129757
Ni 0.06374550084526055 7.568628711793078 8.759654305000288 -1.3278063755471003 -1.361558789407197 -2.544175226546799
Ni 4.288550685730044 7.527199964763228 12.813002947409544 -0.35082548369556354 0.5494627432889246 0.5255591971984497
Ni 7.231351712748809 1.6759954277996092 0.768496781270875 -1.2885448589433164 -1.7691825130387273 0.08499809940895038
Ni 2.297102826604661 0.35609571595659967 12.46331490233121 -1.6016838838316996 -0.8513110257548371 0.03767848838738027
Ni 1.8833056920793974 1.4143966669652952 4.406692001902841 0.6139251846383685 0.5697325492815543 -1.0149751117071228
Ni 4.495740678971113 2.8277386494372 1.4851687719573115 -1.0831139734668893 -0.19934379874208247 -0.03543802909263574
Ni 7.341288693757233 6.90965443902796 9.861473018465217 0.778402253410253 0.10518048789409627 0.3053748075619321
Ni 3.8968556674741675 5.814299831313312 11.004929565535 0.19708894126963478 -0.06387622982867064 0.5439202162041407
Ni 0.32683654772153814 0.825044523029663 0.5625317023010775 -0.7913742401898887 -0.8501838541289294 -0.4661952534178358
Ni 3.7785552234655246 0.6364752620679558 8.697272492701742 -0.11011392063997165 -0.19177755635905036 -0.0749168039135484
Ni 7.895303356193263 5.370888266407845 0.10123583393795008 1.548484931211217 1.8676843033610675 0.22451052781569722
Ni 2.87948295094188 5.649463746938402 6.76019731985799 -0.4857356374436086 -0.8763054909166457 -1.136668252544262
Ni 6.163048837127794 1.9605289505559857 12.02325612392052 0.31238106367643614 0.6390919137119832 -0.1248057183241915
Ni 4.062792694434283 6.4959035625945125 8.622406546584067 0.4801015790862828 1.7331397604825571 2.295725671417001
Ni 4.216489830300051 0.9360879975943089 0.07792730663401848 1.4155812663702394 0.9053905812080602 -0.10079727122473608
Ni 0.18173138982955822 8.898345315881146 5.436420254759016 0.7838334517281533 -1.7084589699064254 0.013392876367138226
Ni 1.9506667253809478 1.5787609188036889 10.371184456045988 -0.5907063233197439 0.10863425077065163 -0.911512634945398
Ni 3.4291215978921756 8.564139854133419 1.419077060695175 -2.4376860471436084 0.431662766858605 -1.425319576703926
Ni 1.2193725518716707 0.21973611290323472 8.492252929128652 -0.7530702024033676 1.4871643779248647 0.6830444080335333
P 8.88662351541513 1.400556245894135 10.253029262445645 0.44524899018347197 0.17175071961516225 -0.9916719182048082
P 3.5514557475071187 9.051838916142927 3.4612274890975554 -0.7363040386886223 0.8288856068717854 1.5641928288647773
P 2.9561048542248685 2.448191006092041 12.306039240482605 -0.678167025336574 -0.525281775167347 -0.9468987277541756
P 4.5137258250689305 1.803269941620434 6.641269616124331 0.6680515341691269 0.3528057473503859 1.3251956773971307
P 7.6342226859872815 3.4605771003266317 13.095786063971627 -0.6662967562615493 -2.432343808995088 -2.0721898488097477
P 8.461576412960367 5.293322698051822 2.9365802388314344 -0.11868289325590528 -1.4538886465908702 0.10823084468464585
P 8.83421309738831 6.348460520742184 11.492028197512745 -0.1588278409059071 -0.714609327324008 0.08752883625060409
P 0.5459796318876997 0.9872309439053886 2.768472782203341 -1.076953096071816 -0.2585056538142193 -0.0819791100769685
Ni 2.128279294715265 2.1967042641285692 7.650212258004184 2.0938596204736974 0.43539318043531466 0.14828477528273817
Ni 1.7868853254994281 6.041353049179903 9.54333484232864 0.04903916481583812 1.1103288433187846 -0.941750865004649
Ni 0.2298620092016205 7.774227426675698 3.1145323425596763 0.06882251809035245 1.8273151555154015 1.495139168600225
Ni 1.5348897445259864 4.535698418681234 1.6598837344203137 1.3829002311974508 -2.9628809190241037 0.5876564807498266
Ni 1.022128048370908 5.281767426716343 3.8862967954363894 -0.20476471264733767 0.3705021361888845 2.8618972428201745
Ni 0.12861969913081628 5.226905329823307 7.895136827062728 2.113217713285335 0.3041316791834504 -1.0437920359388153
Ni 5.8563206819184 3.073304355648305 7.74667610719046 0.07622189587821712 -0.04703241879845448 -0.21754386668987696
Ni 5.584628405449971 7.041564013648686 4.928021621823964 -0.663018856841226 1.2864815486563845 0.20919729449739455
Ni 5.085420330196798 5.27360749932011 2.756868477290536 -1.497150285492983 1.7348541720705026 -2.6325910933880468
Ni 0.7587946090935179 3.5654997041822667 5.86578138685648 -0.09672387248631083 0.03119442332493337 0.9418107717083071
Ni 4.8374399515929305 2.9319026205870635 3.8520926371862645 0.9448855539788888 0.5699667767795473 -0.6891237814583939
Ni 8.10444544090894 6.813798421168138 4.981602369573713 1.0058831767081837 -0.3329486034151427 -0.5780140725640562
Ni 7.252695196312424 7.218408698658868 7.191630814468783 0.3999428100475047 -0.45980863316520165 1.2649395608195506
Ni 3.8414014670058947 4.294786276506756 8.679222585275385 0.6017399554260863 -1.4969361125996477 -0.22167691502164402
Ni 5.399919844831175 0.9214288082980164 2.834510834078971 0.6899372784986247 -0.3447659077650449 -0.8951100252176585
Ni 1.8904849479291437 6.618200705736003 11.87333364834689 -0.35072366801037663 1.5965036251823408 0.8516041315152236
Ni 4.979914874384288 0.33568109487663805 5.221745702262219 1.779295433103013 -0.7614144606030049 -1.5240118857705174
Ni 2.1262346870570252 1.91330869043085 1.4648577690030165 0.23119488181440828 -1.2542306590424788 -1.9542199224604668
Ni 4.99610520651967 7.782378102453568 2.617507649240189 3.1075088142805454 -2.018657424109246 0.47466909521680184
Ni 0.441173598423439 8.334588699308798 10.73471107187181 0.3913902924918034 1.2078806110230293 1.651107171459834
Ni 0.7399703412101689 6.487197789714859 1.4355967504442821 -0.666514014478678 0.834343287552247 -1.9677539523911596
Ni 7.070429062941481 2.1615943724406987 5.64246859829408 -0.02805484925468717 -0.21322467048923277 1.1677598317427436
Ni 8.071389408497673 0.36361265587659825 12.141804511301293 -0.6622120446692144 0.5953314807965812 -0.07283138213942941
Ni 3.6930980246457996 3.4642684960534984 5.642752622977827 -2.433892641539447 0.26417802160864823 2.329894603989226
P 7.10448427013596 9.008078761285581 2.052943366384744 -0.4624157317707455 -0.23676697658554707 -0.7565615033860776
P 1.7730171495731784 3.90748577697334 8.63220956140158 -1.6573760351876812 1.6353758767675062 -0.6392963164133054
P 7.760053947343467 4.380456262548833 6.481746736175334 -0.2869083733266285 -0.9301880998677141 -1.7293221865086796
P 0.8070640027410264 1.3669451163810828 6.349143290177379 -1.4949712755637932 0.3005894703581468 0.41919831584300715
P 5.543615981246458 6.2898237635570124 0.7538486939166179 -0.1597063868561185 -0.5238226741233173 -0.2905007186635771
P 4.339212547886244 7.374381732641952 6.835280679007199 0.040873598285910244 1.730290721069536 -2.0857300493880273
P 1.577548956798126 8.20637052041494 0.34245698016575427 -0.6059208262766532 -1.1226338859383829 0.07770465107133069
P 5.718943400845096 1.8651170103775916 9.530661050333064 -0.7324589539109191 -1.221029489700162 1.12396828847909
Ni 3.120802164324332 6.065721811948243 0.6524546573046592 -0.14989814251644507 1.0777179992622987 -0.12371094259811598
Ni 7.885801944134384 0.3335162161796784 3.929288140807764 -0.5096039594207741 1.1875223590816517 -0.5320604886520772
Ni 2.2774893956749414 7.82826612953442 4.812154353444811 0.11639126900825117 -0.5913298158363558 -0.4807368986774366
Ni 8.668118792916022 7.695042825106138 13.241970885726577 1.4406173834032607 0.2340722033622033 0.7824296294020912
Ni 6.6111509725433395 4.996734316568359 4.3813841998706495 2.0020771511530615 -1.40455277647022 1.1093955328712377
Ni 2.9998280026087616 0.40251571109332934 6.246964716328231 -1.378473562884665 -0.17166407343862694 1.2401901217890126
Ni 5.232706094536954 8.028369383109373 10.697447403429015 -0.6310775280479389 -0.19055448258522667 -1.6203974010808029
Ni 0.4185293373179762 2.396715001519891 11.982376923021437 -0.5929899771475982 0.6319180216713634 1.4439467048868102
Ni 5.964065029374773 9.228831627046919 7.828515923230223 -2.4506703752184182 -0.09325442588047166 -0.20413350682124198
Ni 5.524150576210548 5.472637565164946 6.730204498286736 -0.22606321701479778 -0.9624240770832845 0.1873082077337871
Ni 8.06352553288906 0.3359142356593875 7.26538656638289 2.0368999152592018 0.5738550560903601 0.8365282110187077
Ni 3.6436666277318888 4.166577349231261 13.206751824942023 -0.9261717796194695 -0.24802352333597283 -0.07256655851381696
Ni 9.165180492708961 4.261850515134209 10.186638723910383 -0.06845819277239824 1.6583805651927956 -0.12252849225424059
Ni 7.540281753128617 6.84969470041687 1.969789820537424 -1.9303400305190757 1.3615793582324873 -0.4591869404208027
Ni 7.162695452876429 3.4671087428909626 10.103959786085088 -2.3223777267868906 -1.2751296139786747 1.0004671478989349
Ni 7.297223235493905 4.99062824844873 8.37316332207364 -2.3660044623379055 0.700275170089523 1.8867276931457635
Ni 5.765839854327525 4.729445810440755 12.636919670590641 0.5127630738750459 -0.27389807710988956 -0.28097992365733543
Ni 4.502975444531037 3.462510688564514 10.959961149319437 0.26730216905992676 -0.609571535655363 -0.7430470138394106
Ni 6.381655327428897 4.0216414959553255 1.4955407613041551 1.5594959376097401 -0.6984712841115648 -0.15761119488998665
Ni 2.038797641907602 4.054790044550224 10.62857928149612 2.7552118882457775 -1.1395329756865664 3.2259783059740634
Ni 0.12384401373179686 3.159890251908325 3.597284564230448 -0.6834992361827649 -1.1088846546730904 0.004419726334250453
Ni 1.1722633111668919 4.729815875175277 12.889425940897727 -1.0288492985860538 -0.758019575988843 0.1918482616959857
Ni 6.641394512972233 6.943783659169345 12.302857608927543 0.028806382708731034 0.44576372503636136 -0.33708756528418077
Ni 7.183141529458825 0.05048793173097383 9.859036142188382 0.4453785737828007 0.8167271171323806 -0.5355633595990131
P 5.698811879287044 5.604084558867518 9.948255049034533 0.09685191342374287 -1.0600673760600712 -0.02795020535602283
P 5.825429528204091 9.098531834021367 12.559291191229752 0.45935611900881534 0.49339649642297606 -0.786624127099413
P 2.6862536498106913 3.1477243737608815 2.8968389869910087 1.4513113727819973 1.4565420250533174 2.388368688965719
P 6.936613654937961 8.710879772990154 5.665852988868589 0.6772185453803756 -0.11122026633027299 0.02994255319570327
P 4.431673221806816 5.1142946311079545 4.61402724555221 -1.5624807312696767 0.87153943698657 2.341805239383883
P 0.8865631593349312 6.320557639759149 6.11316966188511 -0.3495175635174174 0.38550400891435543 -1.1393653397604506
P 7.0533043173514285 2.898939104359427 3.7171328039912326 0.25151508142899914 -0.4219956760824861 -2.448768530210015
P 2.6223619733952948 8.070362478859371 10.155671706925498 0.8659614286781603 0.7876769938439596 -0.17570147673279415
