# total energy = -381172.8782097941 ev
CRYSTAL
PRIMVEC
9.23145541021354 0.00000000000000 0.00000000000000

0.00000000000000 9.23145541021354 0.00000000000000

0.00000000000000 0.00000000000000 13.51116812265631

PRIMCOORD
 96 1
Ni 6.006566285285579 0.3797792943609259 2.105742917329438 0.19176650061545683 -1.033534362766549 0.8213165362752758
Ni 4.815413167737833 2.369234494640041 10.331787339653015 -0.9107436179898574 1.924902661553588 1.3203208658033325
Ni 6.793963250079079 7.658719808810905 5.848389917465024 -0.6527388150714565 -0.6225183256240182 -0.25432221186049103
Ni 7.803293627506386 7.855035933475875 11.721586601139006 0.632609134201117 -0.1997402628495528 -0.10011798576952435
Ni 1.9437844223446188 7.921890131483198 7.442761917078803 0.16659025846014536 -0.15165266331370655 0.16849416035107756
Ni 2.3538271960382433 6.499433674350882 12.042315046508847 -0.5350416827675882 -2.203900264673572 0.8214435487714434
Ni 8.525784231323708 2.3750595428232253 7.333469796721376 -0.646621389319809 -0.7329181529355249 -0.4917314500157273
Ni 6.907297824635264 5.672784562370535 12.436732659259748 1.019718282819063 0.6486685016568248 0.2905158881722287
Ni 2.4004091185934695 8.59438317434945 5.073172934562003 0.34752290168489186 0.1695316004766564 -0.34425888622163936
Ni 0.21024362101040547 2.5760744781462632 4.514675438438808 -0.8573155800777043 -0.38035923148862233 0.27152649155391945
Ni 7.345764248655393 1.955656073633961 5.290216445416678 -0.46443944706899376 -0.46562164030255293 -1.5814634430197667
Ni 4.622660384750691 7.831191084890827 3.9945771030490103 0.9106340889951866 0.6685040483255132 0.3413100880059605
Ni 8.357227092216322 9.125164149608631 7.033805685653262 0.6010025630394294 0.08023410236140376 0.1750694995757501
Ni 8.38026880420559 0.567839728708587 2.83768283861159 -0.6776124383846845 -0.31626420078092626 0.7153924853469357
Ni 1.2207860884954815 -0.049740003353114015 0.8135450614319621 0.22623213849249424 -0.3703283296151816 -0.017253644874125125
Ni 4.615284452106691 6.287977963282707 13.062258827892107 -0.8632859387285261 0.7865557357553228 0.9490412280184753
Ni 9.268750202605853 8.750911727430386 4.6889025372832975 -0.7192766508926902 -0.6508361987321049 1.0627714052547956
Ni 3.1537327825246355 6.430206992376715 5.528472917000574 -0.5343302585228604 -0.7998557952983386 0.23354924097919777
Ni 5.883169424644336 8.557521974039695 13.174212376761757 0.9538072819485509 -0.009727511700409053 0.5326461859522182
Ni 5.654626290141813 5.594917238400394 4.696536027525255 -0.06285318788079497 -0.19082059176241972 0.1919351649828372
Ni 6.416378272601105 3.5238218184419976 11.674932673233814 0.4164050693685861 -0.7256660993588019 -0.7967311336264278
Ni 0.761083625108321 0.3767818408821938 8.868514003690354 0.643344261230434 0.08984000088228399 -1.2985240816432153
Ni 6.893912214705602 1.0689101887969918 11.618198919478829 -0.735983679234726 0.26372807855542324 0.18724727258886464
Ni 2.6510431252074977 3.726923062623038 11.19896069333628 2.2872235474832605 0.47177094773340034 1.4935659105758343
P 1.3022075226883258 0.7697214976677591 6.38930979988679 -1.2651958998047308 -0.31112585111309643 0.34975153390509445
Ni 6.069404800314001 5.782638878345009 7.152974539847755 -0.22950181038270154 1.2118257117137063 -0.02128667729291818
P 7.415517123571621 4.217408736266373 4.926954993708955 -0.19373262320289214 -0.4982376265653613 0.18408250170763782
Ni 7.8449921103010665 9.120142238021225 9.681183923176569 -0.892711700188811 0.14013823491620384 -0.32458146239737007
P 0.2294708957424754 3.091798950098355 2.1987941386873784 0.78512671661828 -0.38263260090383133 0.9156824500523714
P 4.71243628583067 2.421281438628619 8.142788697997615 -0.4614711084692891 -0.09089749561252088 0.15649250790451114
P 3.5649387195638718 4.457205014564936 4.361296657846148 -1.4721362799471487 1.1579099355318574 -1.3201627429589136
Ni 8.49711133170886 1.7686821815543836 0.9024245882194099 -0.5692008451478003 -0.45260157389380123 -1.0939432028719096
Ni 3.341269793366771 0.7252545014814198 7.2951518727930695 0.014318216394885019 1.0225421254211036 1.1030770468523778
Ni 5.837362944319518 4.4394621578167905 9.047564537837083 -0.6846791154234788 0.1110793698770345 0.9743748216872573
Ni 8.402101195573625 4.402370171128939 0.8859298242040159 -0.5436721047490766 0.06835663419752742 -0.3490233974898182
Ni 8.97945486193291 7.284088896972581 8.635621930678958 1.217280821291007 0.23469466743755063 -0.1681249499371169
Ni -0.026570897283136555 6.340301850925002 13.243619995256351 0.42459146183412044 0.7968242075608665 0.9878018937264409
Ni 5.7374693684237394 7.279620872692612 11.083237941339542 -1.9993039592832986 0.9452210829414366 1.1093644225229862
Ni 3.889544376085753 0.43655182022743094 0.5957611878763508 -0.5826011777141062 -2.1534027701446528 -0.7256578718286858
Ni 8.128554717342064 4.755325626336333 8.068396093736112 0.5367617507824884 -0.1210861033807592 -0.3397435148497891
Ni 5.098458813291892 0.4666694425691719 9.306613938942064 1.7013935784192118 -1.8827645947329574 -1.8227946419372283
Ni 4.815579333930064 5.00576577239276 11.25843711240858 -1.3725178595218621 0.010062783552640734 -1.5336445237642748
Ni 0.84588192558549 4.5748968359396045 5.895625427043022 -0.39987441870341456 -0.07580434872482428 -1.3505282426246483
Ni 5.629313640192065 4.334168180673527 0.43947080633760977 -0.1990470934372701 -1.2754751702435516 -0.42288553488660724
Ni 2.498096376714635 1.924656847327887 9.746658941788379 -0.39960830952622145 -0.3063819086702078 -0.13734267444893766
Ni 4.594956787923851 8.231291581416007 6.437125967992082 -1.105279196710019 -1.4816159373028095 0.4531067956649939
Ni 7.075928815383642 6.51356703214558 9.555692445367713 0.16113412044158057 -0.599271953501568 -0.6934437489899863
Ni 1.1564705406472333 8.228254432680242 10.842185261998615 -0.9181016010168253 -0.05324137582264379 0.370793185066742
Ni 4.918787002215324 2.858095432181569 4.509757842294304 1.5142617483622889 1.424367754313618 -0.17267503120164454
Ni 4.4342186913064126 0.8254499459597504 5.02730275719683 -0.0447150835191875 -0.7713605160721232 -0.450173938288915
Ni 8.71484443226129 6.688456949467965 6.20592232812285 1.9533750579616682 -1.0732041705523452 0.04559080125592148
Ni 4.086857497904105 1.7258389983243392 2.556825971067408 -0.9397317776920912 0.7874095991151858 0.6508811930374274
Ni 9.099362232537315 0.3678180979568818 12.396874928616775 0.1273102299136001 0.893337506698268 -0.7651759845279661
Ni 1.9363715638801229 2.03741907166639 0.9570498776240945 0.15597005974213785 2.2000821764790626 0.6032443078857547
Ni 3.2490383252238337 4.078327633369616 8.988250592374968 1.176192278780813 -0.7030992698018794 -0.5489145840949385
Ni 6.130858597073839 0.9795866290180845 6.950509342924752 -0.8028989530000367 -0.4026224137621969 0.7933586176097691
P 6.229616703989378 1.6535105474285412 0.43314818272324707 0.5118883845795764 0.44389864680316454 -0.6468602448034925
Ni 4.09001465555648 4.353037274946789 6.2952855831587895 0.3679675426924889 -0.770510509367002 2.377333257087164
P 8.19466116748435 4.12847289760267 10.178273779815544 -4.0262130818783755 -0.052261014187245484 0.9898873155005596
Ni 2.4655739603131166 2.547216949428935 5.935564394491086 0.09606772695955068 0.05836249909929303 -1.5638477868205325
P 3.399575663929357 4.33679914538384 13.744640605487085 -0.09848584948274007 -0.16076362447603926 -1.4420114355373101
P 7.221841195072089 6.383809698923968 1.0688344908649758 0.32311953313986286 1.0674441281401164 -0.6254421841390325
P 6.7011871260838305 8.894387002966122 4.269637539920892 0.3704658836343103 2.310877439456775 -2.180202406836
Ni 6.119393129809948 3.381814344270963 6.839704187072517 1.538949480916956 0.026336838122315936 -0.3876259403533647
Ni 2.5044106920193863 6.211541514856771 9.870596765699883 -0.577708111287863 0.15727206638301303 -0.7967221347653635
Ni 4.470692170500962 0.18952361998480008 11.487356890280157 -0.8836745296872072 -0.13778259019983366 0.5864460053814932
Ni 7.741202860342999 6.969739387093359 3.3345834504205265 -1.6632224666661293 1.4607956581233486 0.8410659509880613
Ni 1.3203381005516759 3.087820192939952 7.863337781068803 0.35490402464031134 -0.11235026616965811 0.28838032988646467
Ni 1.5005637989356786 0.7916231249492244 3.330097886375821 0.5699744900890312 0.8330145414384944 -0.8652757154650453
Ni 1.7818739309264442 4.954005003513023 1.5248969914967805 -1.288978089825993 -0.14500481897988576 -0.30466029799341077
Ni 0.8948141766152623 4.149326754727571 9.905699373808533 2.823316554333499 1.0531961028615346 -1.1094269003298054
Ni 4.870912675942751 7.488288684313366 1.6598063998230446 0.28772315591844 -0.9032269978978379 -0.22723872538013767
Ni 4.567502440385357 6.98411276272128 9.091042845179652 0.6132281585713438 0.22445961997310374 -1.1755438465635366
Ni 8.798564498779987 4.891517283779308 3.36206456917888 1.0635725609998523 -0.3615277006044161 0.7630558528611697
Ni 0.021699458414251742 6.034020632824073 11.015871397572845 -0.3924166768737887 -0.24531820858966785 -1.084412637673655
Ni 4.444881021974523 2.179398851472053 12.906570337227446 -0.2381450878799963 2.8075826885380097 -1.228844100648574
Ni 9.212355243253915 2.0947833338063373 10.162897868161169 -0.7135909133618227 -1.1327005261457652 0.45710228997763214
Ni 2.965217237439366 8.894479317517362 9.628963427831662 -0.09245738390047303 -1.1481844807139774 -0.2575494605485371
Ni 1.5235685851044505 1.9103942491614534 12.12386756736445 0.6985797846649711 -0.1391175069611733 -0.06513838437054588
Ni 1.1276868635708968 4.2803395658460355 12.778997166288148 -0.15914408659474527 0.19362026599474397 0.3468636708343381
Ni 6.445586596613142 5.047233468809342 2.5040386643778927 0.34657879260406765 1.2262686266119138 1.0186433045873295
Ni 8.270248322038887 8.437706917986528 0.6595283872902389 -1.5549533125443802 -0.5635115080725069 0.6881999840925438
Ni 2.005376690931315 3.2577989761364194 3.3710633916336628 1.9936971546194826 0.2500858051816403 -0.12799028669976023
Ni 8.439950161581637 2.8927041574410897 12.367082253495395 1.004593768472799 -0.13882414409047059 -0.5511365314469219
Ni 4.050273241248068 4.782816899695323 2.311450201291956 1.3311223272942108 -0.9389946424157505 -0.36028894310130855
Ni 6.243833144880192 2.8484670244873356 2.4002051034352307 0.5002921951015449 -1.4437379313101137 -0.4835684545889607
Ni 1.276174819238913 5.6249748562838295 7.856419728598949 -1.112719197927832 -0.26788220993311285 0.3729135738438545
Ni 2.8285178499645767 6.562281420834428 3.022245474612803 -0.6666608244691873 1.0468639899959198 1.0926887616395182
P 3.198080692939876 8.986443073461706 2.474948502991442 -0.1713660825822339 -1.5664615702942957 0.903888799851553
Ni 6.932361225296667 2.3909468770914666 9.120227167408366 0.6772702245539174 -0.6282346592825052 0.41268211199104415
P 6.177578991455924 8.1952981378879 7.861905059233573 1.0573484344670112 -0.5627728301342694 2.11545611569755
Ni 2.493425260421939 7.241365722659148 0.8036406332295242 0.7452355368502972 -0.22048829403018158 -0.06870913244093972
P 1.0064409319735248 6.738685296797134 4.27133982024574 -0.8202323020721616 -0.10982287176211408 0.8480333834448298
P 3.3323706706273266 5.745325336734183 7.697136509309037 0.94323644841124 2.3564862384348255 -0.10835322919512307
P 2.7462286589900846 8.450169382403802 12.4222752773902 -0.07083697741721993 1.7238423943410313 0.29551539826934914
Ni 0.41730331314857605 7.086591146051752 2.0927044101124337 0.8833240883263239 -0.1099478273757526 0.11345018410205622
