# total energy = -340866.3731643969 ev
CRYSTAL
PRIMVEC
9.31353887806330 0.00000000000000 0.00000000000000
0.00000000000000 9.31353887806330 0.00000000000000
0.00000000000000 0.00000000000000 13.63130557497901
PRIMCOORD
 96 1
Ni 3.806489947086456 6.456433937702478 2.3818388695365167 -1.1293948588113 0.41371466702061654 -1.0049663213208693
Ni 0.6225495425259626 8.507312474319905 2.1407960986588668 0.7439602696822994 1.8363932065572695 -1.1707184001504354
Ni 2.261299322696689 2.930942775053563 11.85142525947766 -0.18191660440457055 0.7568183565918902 0.3252221813051625
Ni 2.52024364683964 0.34843253203760716 6.556534923260008 0.7888087934555577 1.673908999845698 0.5445732764071073
Ni 1.5367804986946594 6.261156965997796 1.0546251053970415 0.3388109757331907 0.01047930226476905 0.05077594500128675
Ni 6.930446503873591 3.918531820964804 12.225127285464287 0.6812610908808655 -1.5532029055121768 0.8233906451954852
Ni 5.054085060583884 6.234855531930261 5.5727364877119 -2.4939739231020597 -0.6002224903402954 0.6988001282058932
Ni 4.030173212667194 3.996160168327732 8.893500230657434 -0.2622059854839419 -0.05155833169326604 -1.4104735128300288
Ni 5.990058473491483 0.5699718209461259 4.313436118429742 -0.12605810267405387 0.5544044035649162 -1.527776237908956
Ni 2.8176808275693914 0.1998499193417775 2.2559133031070093 0.26769503362297126 1.8811535414920957 1.390335090208941
Ni 0.18903690059092448 5.70836117363076 9.21060481164229 2.1484163726736547 -0.8159614426109497 3.039286391668037
Ni 0.567331432646499 8.570001905165721 12.713632649635578 0.36188714082636386 0.8075809318567382 -0.23229968484281283
Ni 6.305973715549135 2.1092930530733716 1.5506017905346814 0.057485495810978414 0.42488893846988113 -0.06518954932345548
Ni 2.293393778007145 7.418764665911467 6.61569545418791 2.2996471179585942 -1.1750946748412603 -0.5427403369634266
Ni 5.184074124068514 4.838523200990005 3.571279314315425 -0.03621501646797634 0.31350180754444074 0.687586518878261
Ni 8.15890229477584 7.114128119553456 11.955623270830626 -0.34729124529005995 -0.6014273092816739 -0.3793516161597144
Ni 1.9528721659755452 6.278293877713188 12.396990951537816 -0.0314492196482168 -0.14099106983480236 -1.181080717221366
Ni 5.7562420775051235 5.672681005814638 8.059646047203412 1.514263805244818 1.2320433243121622 0.5255381141525272
Ni 1.939702821863826 8.63415356163073 4.418478867767809 1.3420610856939015 -1.2490511717240684 -0.9302148393405915
Ni 2.7647240449532413 4.189742075938826 1.915034982532638 -0.30347784764953545 -0.6744996037873158 0.3443591592449295
Ni 7.717282217162407 4.855091986827876 6.07132934594783 0.5253787057565275 0.205389233605214 -0.5622125867554253
Ni 0.19829455833282622 1.8449468763244818 2.467907145919275 1.8645048771918213 -2.198389105047356 -0.4497944434623093
Ni 8.670532244870033 3.0700125390395554 0.8547723919935711 0.3687830966152487 0.564877535182098 -2.33786450956858
Ni 4.634267977712696 1.5331016507992357 7.9049164987835825 -0.8080781832081309 0.3725109390887972 0.641000957809238
P 7.939894425760932 6.7449766887103815 8.508974941027077 -2.537852112542249 -0.8033527527080035 0.20842879176248622
P 3.803844902017341 6.3306825344518165 7.617309758442741 1.9039322299495078 -0.49428429834456816 -1.3514229865247758
P 1.5372182350265198 7.948481508696579 10.851528371809957 0.20065840378844796 -0.808132176374518 -0.9947878381259706
P 7.062437978238009 5.849647559892982 4.093522042072493 0.8350613966651941 -0.17032889956697117 -0.24387736237808325
P 1.6828167898345172 6.957353317974551 3.0847642534232556 0.4651886665301924 -0.5349434666268271 0.3537819952207262
P 4.923146016123726 0.0061189951070718535 1.9755990637841856 0.6742764320329162 0.4989601065536826 -0.2611387205616922
P 1.4318914227496924 4.343387528421876 0.04336383747112108 -0.2722222320693634 -1.1552488437599264 -0.5765891671920715
P 4.5567979605123545 4.114907790268624 5.93887405734242 0.14628471413357386 -0.784106759994198 -0.3035500956483675
Ni 4.233571590358735 2.2395801498052257 0.10952256158540558 0.9997760353691815 -0.20637885121199295 -0.6142411732168905
Ni 6.088511894004203 7.424259653907164 10.355948443432684 1.3014278855535717 -0.8196908277463947 -1.5282158965495358
Ni 2.5253195255814274 6.665588082481035 9.186246181805096 -0.6377575111712759 1.0400518521700926 1.0102661362672278
Ni 9.03434701788 1.8722727996793507 12.411263018664265 0.35582807911647746 -0.01408476022784026 -0.7071081338509564
Ni 1.191425159934642 3.5024028995280143 8.932771699102608 -0.34295276581570616 -1.4532006193849103 1.577533254727425
Ni 8.45873305502236 2.685307498106968 6.339170893874321 -0.02660500418203805 -1.1076687799881182 0.08397531457139086
Ni 6.543087104332914 2.4026509037317414 9.611801336039248 -0.009427721071803117 -0.06594982452824771 2.0508957153176612
Ni 6.167090222342658 5.967938818424063 12.726309307535479 -1.794942909832283 1.7336131005745496 -1.2935906488973397
Ni 3.9770115321935773 7.410401107911238 11.313615882676514 -1.434927017886703 0.4140332267022998 0.059200935840188366
Ni 2.295275112880248 4.757253259887557 7.472354769177969 0.06340931749458112 1.4504266561841987 -1.2575550954300214
Ni 9.127584856566296 4.785333579899462 11.677094436929455 1.132822139325294 -0.6806741080291439 0.4834085319723288
Ni 0.1398893554158588 5.383756399708728 2.8238612920337034 0.904800513032545 1.1602177577294277 -0.8181533080559458
Ni 2.5718033986094264 8.351599416184236 0.3855842390118988 0.13299802432699676 -0.8230155212442535 -0.666382116886504
Ni 4.17606048718344 1.9760815051031297 5.407089608904689 0.964700531822287 -1.123899640024684 0.1896332563225379
Ni 0.3386784626682977 6.608887257196631 7.1809173702564 -1.387408146370133 -1.5401702406979345 -0.6428691213662282
Ni 1.9983688038721146 2.1043196232603174 0.6761424398541568 -1.4073359956423117 0.11996767350559984 0.07252593508386863
Ni 5.544191422105105 7.503899725688855 3.593880479347893 0.04385170707762771 1.6559611571180255 1.0402112605660925
Ni 3.836302585347852 4.611338044754383 13.003720516759559 -0.05254306420403854 0.5886391563780701 0.2058489468504519
Ni 7.3642338952084145 8.678951684104117 8.229710337546823 -0.023832840753539596 0.8279985762811417 0.3665251538190075
Ni 4.477921598926675 2.560347745669246 3.053970899507713 -1.0440442611589376 -0.6387324734900354 -0.6922594988738981
Ni 5.126227733490091 0.3366211019085531 10.589493815434851 0.374084197113188 -0.288947001023212 -0.7943508063197093
Ni 4.761537487816404 5.396543888722441 10.481833030290698 -0.12641677156505324 -0.3864956834036634 1.0454575965666963
Ni 2.4180927513535453 5.348597790075248 4.282451836965196 0.5608079930984148 -0.3059286231828731 0.11837281821465419
Ni 7.0426467079145265 7.0864110275616055 5.874656274750683 0.7120387383833543 1.8108217858460682 1.3985885884669849
P 8.625398834993518 2.99272879261873 10.320193767304756 0.30154206407940326 -0.1378738643620593 0.6985520167508291
P 2.414665369010467 4.886543807949005 10.332297642557648 -0.29266892995948957 -1.3119976906496178 0.894867055968917
P 7.82299088453724 1.650340479426055 3.6388360006299703 -1.027537521753166 -0.39100102747318466 1.4557755792009381
P 4.916905945009971 4.534454780509516 1.4633888802118025 -0.11151208653907892 -1.2691026910583045 -0.23103830163188596
P 6.5540398261684025 8.790891109053732 11.890178895155783 0.616977598311447 -0.024277127379809804 1.013007446457791
P 7.574030674176299 5.364514628184816 0.4691918783972627 1.992592608701394 -0.23807643942558998 -2.0782424827617305
P 0.935461168263933 4.776346014787857 5.747245198854542 -1.9984418683933192 -0.20380620538881025 0.3625962510782465
P 0.5315655802717998 8.530875727928569 6.123496340458836 0.4477758703703837 0.6620006999893567 1.2961915768552967
Ni 7.485244707120415 4.369931114502782 2.1962619486750854 -2.7275835850055477 -0.2807719214115874 2.632484135496537
Ni 0.6289917174354932 8.325251414421823 8.739616351576604 0.31575126570024975 0.16136449128483177 0.6663029269091364
Ni 8.939525877567826 3.5617580834205094 3.914269945529498 0.042447113420617216 -0.7244121723470427 2.514366627825799
Ni 9.185841042859652 1.30765812635208 8.6758083646998 -0.37373941217925954 1.0073944711463876 0.05911686076681432
Ni 6.609120095671025 1.6653725313329257 12.603791565017202 -0.9753785803614233 -1.2995052146095618 0.32230449343773526
Ni 2.200463286107049 2.9814314698411377 5.782658999455958 -0.45573034933076995 0.38703124419215923 -0.06269840747048556
Ni 4.555438183821894 9.020814445748227 12.987867010715027 0.8592199961892686 1.4327585494804744 0.21035300536839258
Ni 8.203076410137852 9.061645000617942 5.109858257386303 -1.553595255854589 0.8785145827528226 -1.1223896311380606
Ni 4.003033560091841 2.211406694403563 10.192985726558287 -2.196294941522489 -1.2619596522556202 -1.0401048168952152
Ni 5.834690016297918 0.11794293217338679 6.606071774364261 0.48974630126489843 -0.45881927266873884 -1.6678998175371402
Ni 7.104795953499749 9.271814321144857 2.0299333188148503 -0.32229240925287717 0.21453721865306924 0.1586712607233848
Ni 6.295645000825021 3.02549382273544 4.747770214502442 0.7387046777103149 0.0376283518757352 0.2275644841506726
Ni 9.238788511936825 6.614326363958473 4.91613012721329 1.0876586554147782 -0.13359863402547315 -0.71760440539659
Ni 7.104972910740288 5.008700185155024 10.285487795665498 0.3185465690571998 1.540487257717721 -0.9487231825574243
Ni 4.777584715471632 8.154608753308016 8.13738522568015 0.8069160445792297 -0.8652901136427484 0.5710412407906488
Ni 8.721700828002838 7.179481222546338 0.5877364651884833 -1.0280453146275197 -0.2796318942698733 0.6081414880770558
Ni 8.130859228919839 4.0406602575538955 8.389564195111111 0.5247374726281027 -0.3619241647118864 -0.03293068928974974
Ni 8.165254128357306 7.5877029493927095 3.042179959164405 -1.6078517032053083 -1.8618651255761292 0.9487427229414498
Ni 6.121556330290186 3.5007637166682817 7.5919145317175465 -1.7976945044354913 -0.6399959135834913 -2.560290644051423
Ni 8.317558431227848 9.066804701210511 10.660935178856185 0.04696402745436428 0.8189266958868606 -0.650898419428608
Ni 3.1759074771939035 9.23829489437111 9.185059636939584 -1.382838781831896 0.4891593184131769 0.3372886255513933
Ni 6.133235508165785 6.546114004500034 1.6144917365544718 -0.056004797500393874 -0.05763693378717816 -1.123326284019717
Ni 0.8536743257483296 1.1901864592508662 4.963021933248427 -1.2702581448189867 1.8406494107304623 -0.5765763116762651
Ni 1.3928397538243464 0.7375987581395819 10.620655054139936 -0.32340235448760435 1.1778210726334877 0.07194229466625675
P 7.066060944899578 1.5370785319418834 7.7726521377271744 0.8328749305368366 -0.2684830767419053 -1.2394717555657493
P 2.508313003411696 0.7650010525140519 12.505632452336116 0.4835126616503609 0.5346740150155244 1.0386122915100888
P 4.171329209383756 8.885013733942724 5.070995653302164 -0.17130000523098884 -0.13593139592370782 0.39786021648686315
P 2.238229686653741 2.275008852069002 3.370558579079414 0.2909884569332731 -0.13892724532723816 -0.010846970016832932
P 4.937079070431459 3.1351141764800916 11.658201923117133 1.3622511874885312 1.0596940518810525 2.2813424061121355
P 2.3925643410209974 1.8514384129905839 8.172308202777543 0.03028888079152848 -0.2606327274595512 0.38843429518727296
P 8.572050883740388 0.36437824211799946 0.5603621114309405 0.7641796820529678 1.1876491144675032 -0.47776830296741596
P 4.324611433846752 6.869694289134734 -0.12014837820284585 -0.9380870429998167 0.09250700619148584 0.5905052630525315
