# total energy = -340886.5499071568 ev
CRYSTAL
PRIMVEC
9.09187981774583 0.00000000000000 0.00000000000000
0.00000000000000 9.09187981774583 0.00000000000000
0.00000000000000 0.00000000000000 13.30688513457118
PRIMCOORD
 96 1
Ni 6.807990556728365 2.084549849671878 11.30872293874138 -1.6882166747176217 0.9463896493282411 1.6852336808298978
Ni 4.428072805635098 0.3855929897131803 5.756997428282583 1.4989274319980637 -1.0650674003778238 -0.43523145804646984
Ni 3.0686549270828762 1.956499813546079 4.871743814786506 -0.49225518372968124 -0.5381051521842604 -1.090049267134142
Ni 3.604121192180075 4.9397274373459386 4.997520880944153 -0.6192211429299852 -1.33759559372338 0.07467614865765203
Ni 4.159262285321595 3.132470831908706 2.8589579913250907 -1.5126350113921432 0.4856795873946926 -1.7121338476548515
Ni 5.331032855183078 5.133757245707248 2.163473731282019 -0.14206424829432307 0.005172802450191091 0.4368862200410734
Ni 5.862553244415565 3.1934500702142823 0.4784638150479006 0.11044713560967431 -0.3339891288645151 -0.9507170730590014
Ni 5.9949855666399605 7.935801887405792 12.127455813149524 -1.4175144788372105 0.5799436854866011 0.20342002569398515
Ni 1.987857707226701 6.686613960429059 0.4071498368911318 -0.5145409917110751 -0.1446878019600992 -1.8408183322081588
Ni 0.7882596206391296 0.6079694611413041 0.5142603644823295 -1.916186878947145 -0.19792197869389141 -1.2667956401916827
Ni 7.8821961636769 0.04133441346483391 6.653975020874387 0.30246303323177587 0.4715184654029621 -0.13401900939234337
Ni 8.97559472903651 2.5253605534153634 1.6254762868282868 -0.08322095290386958 0.7281526132260815 -0.2885921887869546
Ni 6.63430837552195 0.8778082730683991 4.406282297144421 1.2503994582218463 -0.7912881082339857 1.8533565738844855
Ni 0.7236409028205486 7.89997988070772 2.1456418272878746 0.16196792919678557 -1.0726452127250818 1.3501731732780746
Ni 8.304950393993389 4.014619568428288 3.633910736582672 -0.31318967562066063 -0.2735787460972579 -0.5500556396779173
Ni 8.08306306570241 4.1924658306163565 12.522497993614305 -1.035957370385745 0.2438601359869026 -0.1990200968540766
Ni 8.40717039940111 7.618913506325943 8.817554217962929 -0.268278416930267 0.43017744056233015 1.0301207090993096
Ni 7.107886214326312 0.7915590638448987 0.007337147057193974 -0.392845279770775 0.13484870438249033 1.0666044058476407
Ni 2.289926324114201 6.530888241971044 9.201351561401268 -0.007950365195328244 0.7127172525076177 0.46337038237453093
Ni 0.3260729981271575 5.1300295749594795 1.0936740493197492 -0.7909044996423218 0.5960801860371476 1.6421646175545654
Ni 6.873906685804767 2.2202552486504126 6.784848085700631 -0.6563123913553277 0.5847629612521155 -0.37402711862300747
Ni 3.7898773898573115 4.199157454202595 0.4349764444292333 -1.1574067706431939 0.29227349429328375 -0.7480110427129053
Ni 6.138791830584988 5.8287132675297215 4.345230323799864 0.6666209723701875 -0.2403184413822313 1.081975231876756
Ni 5.79038190198681 2.9257214836056193 9.367235637240947 -0.5057028245941549 0.13656877239739063 -1.314345364946188
P 0.5690280304589405 6.067302379146678 12.177436604373208 0.05939736812171062 -0.632713263879149 -0.04009018315266644
P 4.2284060317527725 6.380863132193154 12.655127609631938 0.11093950186506055 -0.9725038299167895 -0.5669339034904946
P 2.50620396252378 8.739405873705921 1.1976515151068463 -0.06255159747997614 1.5342338206088417 -0.2850183553927672
P 6.380835856553536 8.026302459657725 5.385961447433434 -0.47581092213072895 -0.5265698978511512 0.5257139776087592
P 5.122192374509292 1.3312330509471395 12.651454490163404 -1.4208224601645207 0.11365972900970102 -0.8913667561251424
P 4.207103757211254 6.042290617617136 8.051105107950196 -0.3260436487651933 0.08440314613742883 1.1761933072220776
P 4.757426154020292 1.2280402143930484 3.6122738808618418 -0.840189719030695 -0.183862929497664 0.045429593087708865
P 0.27011702345119676 5.977856464959969 3.3396020391664423 0.9441093379344966 -0.4208461358590752 0.13063209519798147
Ni 0.7475361815017347 0.2043818227842598 4.850159691968936 0.6031417208696193 -1.4596708004902863 0.3226472214891346
Ni 1.514634451737371 6.730764129090439 4.825542518025865 1.5166425898896396 0.6759700176852552 -0.7547946412936419
Ni 6.116034855263852 5.610117199752628 9.03961974709941 0.4297007580362277 0.16447141234492965 0.6929500971830196
Ni 8.643813848725328 2.611533390847934 10.118994996943508 1.724397752623869 -0.030440575878044353 -1.0576726505756495
Ni 2.335913052509848 5.948026007097945 6.879087238956179 -0.09247872405671169 -1.0187931999016324 -0.04134179617158042
Ni 0.9185980829288639 0.5832331835719019 9.031489788117323 -0.6335023354393476 -0.6398848419269239 0.5169817399420839
Ni 1.5275085536369828 1.5955158150840845 11.21898153845881 0.08075629341346093 -0.6952782310955639 0.798428833043825
Ni 3.9371749356734203 7.310462389767872 1.2747597483064275 3.576722285699414 -0.4956989193039076 1.3021092278913122
Ni 6.155193581875172 7.816489147837569 7.7449933320833475 -1.345350812188767 1.1398204250199984 0.8773413883803277
Ni 5.32002258865735 3.1083773502462972 4.789534127790405 1.1691569692005863 0.331023618478288 1.2204386501936981
Ni 0.7065072552006205 7.84798341971628 6.94949384750166 0.7150294455805621 0.07987594769103663 -0.2642207019211256
Ni 5.303184427133282 4.5630144867043345 6.83965939270063 1.6645674107297979 0.6114674671264952 -0.09619448234540208
Ni 0.974949554379283 8.241870931437239 11.462936677576579 1.1764169931971094 -0.9681794915098229 -0.35758902767164225
Ni 5.04979373508372 0.6168276797011852 10.411706251066121 -0.6256977517932644 -0.7077946183950198 -0.06668207470858194
Ni 8.260854776611243 7.522039526283312 4.617529398420487 0.5118989261025377 0.11779046334862293 -1.230569567980113
Ni 7.5127112575340185 6.407775096616071 6.587573385412789 0.4971893878065051 -1.4110646094468087 0.2645796279224411
Ni 2.818410025469237 5.383338440090187 2.3182457115413975 -0.9883685648631881 -0.025278572061130655 0.8624364462440374
Ni 2.593449641781318 5.2566703697050245 11.457667024002415 -0.03403214988404462 0.3145667584738453 0.06690061847729123
Ni 1.7900638605981323 3.5193303204881405 3.7513178181295976 -1.268751478366473 1.0579822113962682 0.27485761280968146
Ni 1.5768138181861315 1.1309934886328397 2.8408733330704874 -0.11247085090792244 1.9608520830650034 -1.3524971934255612
Ni 1.3218593227984816 3.5695174973849317 8.110294155108857 -0.025049229659143954 0.10209310721802418 -0.3783640554354645
Ni 3.929383194622596 2.828792952283755 7.072716095415106 -0.5234907447051953 -0.3760611183339007 -0.48247136487004005
Ni 4.653433232037412 6.872324698706933 6.128233430488929 -0.6867524530127398 0.5122884482314726 -1.1711901975805312
Ni 8.426681573607725 7.6046665305655665 -0.00589608409738574 0.4032361360867958 0.533541701183294 1.3624969849507502
P 0.4458885186523364 5.989666816914485 8.058304058433325 -0.550211191419175 -1.1153869745679823 -1.6738987154330527
P 8.72458610951357 2.0049049819878393 7.9536046973843435 0.3095399946832153 -0.504713206987376 -0.6223134087020636
P 1.9020212693494167 3.44843184124155 10.292037109806891 1.351371307351234 -0.55931469638234 0.13747740025458904
P 4.078626402731443 6.510040561423156 3.7253559551533675 0.005547155070474318 0.3320358617928862 -1.0247941546800738
P 7.2361089961696905 4.161307958292932 10.48823442232983 -0.8745640827455067 1.5628681965160827 -1.0140495145690602
P 6.499057570537047 7.766720197414917 9.868599170123984 -0.32824605573315085 0.6161427611149775 1.110809639609945
P 2.5024035567370304 8.520464314493667 5.8799932883872 0.31859721978947714 -0.9229663853082944 -0.5384594501998856
P 7.410909478600436 4.204312550090363 1.6292548721033422 -0.7510210331838227 1.0370750289299557 -0.6903293717307208
Ni 2.873334071779657 1.4835856819724176 -0.10211817635314904 0.8881181672808575 1.0610132849131082 1.2447412314948048
Ni 1.9628095781776682 1.236541122073936 6.919460640718478 -0.7445678213593113 0.3682385369656884 0.4823188984525758
Ni 7.116014354932423 0.8766445124447054 9.038901488589472 -0.18242336883766003 -0.6896444298485542 -0.8846083543553861
Ni 3.175348137387921 1.8925475305221602 9.0478706280838 -0.03984489991107977 -1.41758158462972 1.238391892238009
Ni 6.574702011077138 2.37424441805276 2.6234255697213045 0.26124105046751134 0.20589188427324542 -0.34527678596319245
Ni 4.316960941711966 6.8695062159464255 10.429550883692087 0.8303673336236346 0.4627008671113322 -0.3308760371568301
Ni 7.712559869013797 6.6710032026877935 11.350653779525855 0.6255946505564969 -2.406953651056758 -1.9058024503890274
Ni 7.88850592830849 4.198902881566163 7.859139156319968 0.49495175672523795 0.1640708344724013 0.5602778316265576
Ni 3.519339412368013 8.514045447303607 12.191022600466846 -0.379610783358372 -0.17523996371534334 -0.17314914262458567
Ni 0.4818505403004468 5.003143299457373 9.948360413870391 -1.4381257273296588 0.4873024677100962 1.5928554869067924
Ni 9.08198790730576 2.197007311816156 5.562264817607121 -0.8295072996161843 1.5400589119310508 0.5436924164640508
Ni 3.9044168924924167 2.8501952375038715 11.467753555533086 -0.15925258714815155 -0.21638481338476928 -0.2333294116589078
Ni 1.265526035107808 3.712596410940151 12.883992046537154 1.3884682122035312 -1.474344857562693 -0.7748209638168979
Ni 3.581882454011678 8.541630210837097 7.894482930136742 0.1178529411554422 -0.2828316321540935 0.45586096137136334
Ni 5.684188745074758 7.944911951038145 3.099133635979818 -0.25825137171156815 0.32090247088388607 0.42106519384841673
Ni 2.969180669396682 8.58575310385886 3.389636472481374 1.9912983153700028 -1.316351082522307 1.1678367077272662
Ni 3.780640039906743 4.194229655311642 9.353289602704358 -0.03389485297523195 1.546807286398478 -0.3951248198335711
Ni 5.415105468365076 4.706302513496623 11.685720465222996 0.1682948998560779 0.06569091443990623 -0.544596673445875
Ni 7.821071455293363 0.09293265011785404 2.1596678703673455 0.09651201358582089 -0.32781308196079023 0.23873181362140175
Ni 4.728513976025402 0.7191522417274425 1.544649474760809 0.20394195963572617 -0.4068670479711638 -0.869063721752568
Ni 6.437751024556056 5.9351246295587154 0.2657038249610333 -0.0750561577048901 0.1682460488960135 -0.5905181185683378
Ni 7.972142131256603 9.143976344277194 11.184862440860876 0.17196206429501998 -0.14074450104163502 -0.8024191851501407
Ni 0.16097718827243324 4.810504548716573 5.661693615893953 1.1331209015126356 0.3637421917572316 0.7299896664348202
Ni 7.625159627798424 6.542444021289128 2.3323508539757607 -0.8510364319372117 -0.47106646546720804 -0.34277098882220325
P 8.628703144377056 1.411096123748121 3.5390987948951502 -0.20983081431633538 1.6273956867755068 0.2151419421166037
P 2.075403418520035 3.3347378834345975 1.6691891360677948 0.5165549368173105 -0.4171568599329461 -1.437910525995059
P 5.261361779719289 1.0863523584583386 7.624712307308691 -0.4931442712028539 0.08621808785898055 2.0081567816882386
P 8.677435620494231 2.026298175328084 12.524507299066151 1.6581941602136023 -0.011028489900019716 -0.5113101434786033
P 6.399710599169068 8.0467228218516 1.0157502744955949 -0.5189979990411642 -0.9151489461464046 0.11905056100796917
P 1.8878379367481495 3.321209166184158 6.002696389959919 0.8035813237790418 1.2721396781124155 0.13365082741964726
P 7.208287843759512 4.073934992717177 5.576263585046974 -0.8605878230710727 0.6171300647289113 0.508546207580221
P 2.735619367349276 8.647386957515264 9.951993529067487 0.04470197089306495 0.7435195826004549 1.4095204048881402
