# total energy = -340894.5926652716 ev
CRYSTAL
PRIMVEC
9.01941605383681 0.00000000000000 0.00000000000000

0.00000000000000 9.01941605383681 0.00000000000000

0.00000000000000 0.00000000000000 13.20082709134342

PRIMCOORD
 96 1
Ni 6.265238064440763 2.0873904876744884 11.409157987639745 -0.03209790897580923 -0.5585153404094961 -0.7154855592813741
Ni 4.550845522684871 0.2907670289137737 5.994072932174671 0.8560403129097063 -0.8381937716465887 0.8289054043661273
Ni 2.8784473815140825 1.506909897627942 4.983946150557711 -0.5046347883409568 0.3785239780520964 -0.6677556001952629
Ni 3.3282185958563053 4.372206970711379 4.916647778571938 0.07552512692150863 -0.09367068748228384 0.43473394958476097
Ni 5.0860035476669525 4.359706060227927 2.7604779308154415 0.045958469007985364 0.4897514434712211 -0.6596897924679929
Ni 7.166863978205784 5.665997089253104 2.588787936876909 0.5031052390703078 1.3497887933554624 -0.07794247811374964
Ni 5.153098982794226 4.516932518775938 11.554749399633893 -0.07621932477505583 0.11389961293464901 -0.33282904711814293
Ni 5.577399366541017 7.639950382735399 12.352594305904832 0.26813392093260274 0.9452529646206365 0.06590971531893165
Ni 1.9470573951694121 6.508446615080225 0.3633471708700435 0.690435815401598 0.14297261904120537 0.05821234667467393
Ni 2.8119562472543342 1.6675366759827788 0.3114801176044292 -0.46542957889640485 0.34836776618369036 0.7086677650285924
Ni 0.6231568584762027 9.175812605508998 4.82081017069025 -0.05493958946067312 -0.8637122276326674 -0.2199987559882727
Ni 8.908612408487153 2.278060940502904 1.4936865319282382 -0.8953077430507613 0.7989481958824047 -0.8522219676048807
Ni 6.752854748038805 0.6577363972226011 4.644605057135544 0.8245072752984317 0.6576231397469513 0.8546051231250765
Ni 1.0100122350346086 7.440260513973756 2.4726340946056267 -0.6298986772484894 0.006473266429169497 0.3678577565875019
Ni 7.482886273674186 3.6810220695004063 3.9244741443700657 0.9892666511974253 -0.671162826104599 -0.8630283141917653
Ni 7.7161464085392995 3.629286699707418 12.545221070049164 -0.37049673687224577 0.39814689448934654 0.5229634114468155
Ni 7.570798520775349 9.065414954486304 7.045901885300498 0.17256087422128347 -0.19687065461124162 -1.2037953852100622
Ni 6.713052065525475 0.7304157527541364 0.2028358410391519 0.497889242087007 -0.3012720982474682 0.35346343553904286
Ni 1.5601605292977132 6.663481355556462 9.271389552270216 -0.4163796154472893 -0.8696406773019605 -0.9982166613018615
Ni 9.191145612595484 4.9200102168318445 1.2051969055376042 -0.5356942287499226 -0.06515355387919747 0.6232086668228234
Ni 6.138352921092128 2.112302114482061 6.885326517616481 0.7262795645730847 -0.5226553932880933 0.19920933004674723
Ni 3.5121425255666674 4.474189506668376 0.5389254350173905 0.04543139285992175 -0.32123877117738225 -0.36389465817469585
Ni 5.935885072223051 5.3825709629673835 4.820203163997944 -0.5361773390339283 1.7899017478639496 -0.546052432055795
Ni 5.1507719734834545 3.0679633491030445 9.378712484401277 0.769202589188856 -1.1777904765058682 -0.4792955382452197
P 0.3620177089614859 5.630496668139924 12.272782396253302 -1.8135116739734056 0.14726301888644316 0.6959798851482788
P 3.9642948657152624 6.220934693376752 12.474345597704275 -0.45961348643526 -1.17750611249623 1.8254608759154818
P 2.617524697981763 8.425126617386528 1.4257026843315408 1.0456306318094508 0.16939353223689535 1.1522568510111382
P 6.456467721057038 7.738406327062503 5.655761856052078 -0.8103073296489658 -0.03843799226122412 0.16953725690361124
P 4.623253393796815 1.105924704068543 12.424406895565184 1.0465803973172298 -0.8443646763439909 0.20377946591593293
P 4.149030542859615 6.0934362297446585 8.128752217587067 -0.9722649744331063 -0.8017668962781224 0.6144327204024063
P 4.807772604958771 0.9973399556484248 3.7657739132585664 -0.47692395268924953 0.3983042460028172 0.23962732885247764
P 0.24424037182222305 5.4771034613635345 3.353788640027003 -0.12470647374216587 0.2935734440516299 0.9460592625720159
Ni 1.617965966013764 1.1006663845794717 2.728637588687964 0.40838734127043214 -0.9124048077423642 -0.3477537867487753
Ni 1.7726218910208047 6.579077661253324 4.678293477587739 0.07523690625712849 -0.0132514656932675 0.2812732865280382
Ni 5.8986258650028915 5.504558563464277 9.281025896253277 0.4065279194641902 0.7554289324435313 0.05649407843198657
Ni 8.481470908721397 2.1865499464443845 10.200952204946816 0.7874018858057019 0.328706283199021 0.2802422741603625
Ni 2.148370758799035 5.328138787810359 6.862437043861139 -0.6087698656896742 0.17364562264502997 1.4199300302572384
Ni 0.570966910120179 8.959914846315348 9.184290856486234 -1.080763728067158 0.2695850515568325 -0.21569421507564787
Ni 1.5198617789080557 1.130259088256389 11.405791941613463 -0.03158574522608109 0.5319550734224645 0.23075033807782194
Ni 4.28774014049671 6.656680715942808 1.7450170666155707 0.17656305340214107 0.8117065239893375 -0.8582249792658511
Ni 5.651232305370412 7.7645806721007276 7.965471025123082 -1.1136543081475918 0.6118842429489397 -0.117176741024024
Ni 5.234544308671265 3.0042592143666633 4.856306984037057 0.030748336926450272 -1.3295688667641619 -0.2067426623093149
Ni 0.4454527179933941 7.525322625640018 6.820008809369646 0.7855979998277438 -0.4736437392760811 -0.10805472411809779
Ni 5.147362634260695 4.382462046627459 7.052118968703272 -0.6074714585932247 0.9221891408226376 0.14455333326476394
Ni 7.816496430212381 7.3228277185231425 8.710895987931702 1.6357836537288861 -0.46775925547084607 1.0374555521978261
Ni 4.728104104020577 0.11297900786278611 10.323416030604983 -1.08127563470657 0.1993330001088051 0.19774302991386591
Ni 8.146841558182746 7.25162844914625 4.322438735533427 0.8811682183255857 -0.29100311222129244 0.42448553238387543
Ni 7.140256701202765 6.103249354280009 6.807746011466831 0.5264436566859321 -0.8014105413799681 0.5511517009555733
Ni 2.374108700775837 5.118996571150696 2.6715699401952517 -0.3446998304137999 -0.1134761522439852 -0.4328189919502352
Ni 2.1359871007227147 5.4518581161664335 11.206894879512351 0.5786200815791712 -1.1727698833628255 0.9787243569052048
Ni 1.2188928886322092 3.164200517110575 3.9738716815531623 -0.7196232355988316 0.7107992095492984 -1.1770551410017407
Ni 3.552883227337053 2.712562283670174 2.989340198471513 0.2738638814378445 -0.5554593271919918 -0.48115753115462295
Ni 1.2107303172126387 3.4145434257532195 8.26660857847688 -0.9073225081234503 -0.22868625645994164 -0.526965590627673
Ni 3.445804721377784 2.787188931101693 7.162636577957881 0.6244037155721891 -0.4284167491174815 0.36975317383800194
Ni 3.9620400117319554 6.695806942261146 6.108933390201128 0.8539026977414134 0.6477141081633555 -1.2018634582946721
Ni 0.7550748359155786 7.653443428971506 11.457354138620536 0.816334252569336 -0.5021444178189352 0.13803944340564614
P 0.03090773451998175 5.550548565307801 8.002592235279463 0.627976263414796 0.5178096351600179 -0.9350839945074348
P 8.571069786602072 1.5640929946446003 8.08427837956192 0.43201886464644307 1.083698899436082 -0.2507020986094005
P 1.7120114159495206 3.3499644076713153 10.434474804815585 0.42507842877286794 -1.3992691594737772 0.21875871293358454
P 4.035016106047694 6.101373315765898 3.838721145443318 0.01947636355705678 0.31529798021291505 -0.06526025466039083
P 7.069237820144537 3.9060564970344167 10.409380083864567 -1.6609151586891913 0.43564412010385617 0.026954417101656802
P 6.40775385560168 7.620585696726761 10.246798798077002 -1.1595035052712224 0.7736721949244353 -0.33500240062037784
P 2.4428456696029586 8.337259467365033 5.929520972340566 -0.6986934274247 0.9199661650293898 -0.13217912797012718
P 6.848658984081541 3.826829947476952 1.5452496308769026 1.085650109625182 -0.10749113830514391 -0.3603622195414052
Ni 5.338429941390172 2.8655405973136348 0.3864801688555837 -0.7747389456260528 0.31152514343404414 0.09143408484228124
Ni 1.529061583159947 1.215194928099586 6.960083044637439 -0.6822792477327347 -0.6806249999587632 0.7671583050653175
Ni 6.711563861896494 0.7758690993496331 9.204355449171288 0.6697878001339432 0.13368862263611814 0.14242163163374183
Ni 2.5967980801672077 1.4793285237041343 9.291098779967504 1.2863995304655393 0.4199066547639413 -0.7820095111455371
Ni 6.479521348182366 1.8174664270408087 2.4777426917902066 0.09939781977404817 0.8779052313035978 0.062361078735724856
Ni 3.94751875207946 6.700064106581629 10.462236567058058 0.7929215300723506 1.11903716972606 -1.9561009415332637
Ni 8.172023767468316 7.2410216160087755 0.17562787093497978 0.4773430425045392 0.052749266677573674 0.4407248770608732
Ni 7.357868149423729 3.819515201155105 8.134547192324167 1.6766173999157963 -0.4129803599577533 0.9440206348754323
Ni 3.1519521502732535 8.477574521038242 12.463613394685328 0.3303505036706633 -0.5989186839272072 -0.686552678297108
Ni 0.06873606688552847 4.719625853043344 10.02592232128821 -0.5780827210184626 0.3410627478818449 0.6322136985349112
Ni 8.646228579573652 2.2106859034816995 5.622932083996726 -0.65462137680615 0.6212212040791495 1.399848429016015
Ni 3.5661688270066962 2.742669094055285 11.454779997313192 -0.08248433184816117 0.578071665274869 -0.5036778237443261
Ni 1.0298910277514406 3.507326157458324 12.691249021774482 1.9499153815478416 -0.784890432237758 -0.7577141289332822
Ni 3.0486798378378057 8.09980530409097 8.134534565141859 0.8664761635310496 0.5968854555472624 -0.9221775708584119
Ni 5.956999524922736 7.7460998888535455 3.455686393474227 -1.5318308675943038 -0.3615212728465128 -0.08022664616223603
Ni 3.3935552448766004 8.265825693173877 3.7346461049898134 -0.1516585768509775 0.1931908917668092 -0.31977452792702993
Ni 3.3103421134766498 4.375634348766005 9.345103434809294 0.017268300162144454 0.9095801938093754 -0.6577347256241511
Ni 7.347008772640124 6.038444850799774 11.33487678383847 0.731208626443586 -0.6365148970134263 0.027774599010107003
Ni 0.8663158023280318 9.10825718016913 0.4998848931504181 -1.4549633677122877 -0.2450682973623908 -0.638777724905674
Ni 4.620177772963586 0.5955475243630021 1.5279296464603274 -0.5763575107972396 -1.5671022892020883 0.4373055669666791
Ni 6.23890136991574 5.57011167846697 0.27592197222927567 -0.6554911810056131 -0.09758750603818676 0.6944343950380298
Ni 7.839279474859713 -0.20024636672472246 11.437103745967255 -0.458829557081384 0.8854249367194105 -0.49566960872786897
Ni 0.003150481985476137 4.960985423416495 5.604635296834583 0.3612644196407004 -0.23523768442521423 -0.09660148797583364
Ni 7.943255301737952 8.805006377662178 2.2737496596868216 1.21240858080037 0.32073689184029924 0.29962684933456135
P 8.491365208000147 1.602019638643819 3.5024430456720754 0.17474939723217003 -0.45173511212844786 0.6808376301902016
P 1.9439096190087157 3.126373086686622 1.677719596571392 -0.5195109341218407 0.8712378465857512 -0.7541999451324366
P 4.78577424949763 1.1379887277111644 8.253460975871015 -1.3471793807570736 -0.4002076336731172 -0.21643083613135627
P 8.750880862646882 1.6053838807869127 12.470201176082956 -1.4223777204667825 -0.2782393847977208 0.5528699691982607
P 6.398581109597589 7.708398730252657 1.3238843017445296 -0.9203978532501697 -0.6500329861045192 -0.7082044522389287
P 1.675410626092486 3.3256841399790686 6.023854141644592 0.16319511673566733 -0.45103602917889424 0.4576134252860958
P 7.067984121329819 3.996863976650144 6.017068835038026 -0.5068533932588303 -0.7724858879258181 -0.4124468560517865
P 2.4003732399733932 8.475951026170263 10.204027825780045 0.6895019907334189 0.09344571595567132 0.8687785864119812
