# total energy = -340897.58229294047 ev
CRYSTAL
PRIMVEC
9.01105168501417 0.00000000000000 0.00000000000000

0.00000000000000 9.01105168501417 0.00000000000000

0.00000000000000 0.00000000000000 13.18858499208459

PRIMCOORD
 96 1
Ni 6.423510223780402 1.8967903509091408 11.368969166332665 -0.39498520893191325 0.7553240314345507 0.871433507536325
Ni 4.543840871211977 0.48445937346960494 5.888109572510936 0.07246782815242357 -1.2671612510612178 -0.092491322462202
Ni 2.6074109036181983 1.4784252398761066 4.844153995370246 -0.058602383024241006 0.3925264629787756 -1.0158577714223924
Ni 3.3465784682974604 4.064894459208082 4.870584311282432 -1.1313247288441612 1.2777253997303093 -0.6285840722021239
Ni 5.211956292777267 4.650000071976174 2.7750362906359185 -0.2394735768834328 -0.20652180454776045 -0.5237365421674142
Ni 7.281290262753792 6.07436801235441 2.5551828476272562 0.04050027410689154 0.08007212286224275 -0.06474937646224332
Ni 5.114006160164854 4.619894148051789 11.523077975712978 -0.11576854782258773 -0.2591934239098633 -0.28821012285718756
Ni 5.570632196963509 7.870126450949809 12.328794860942601 -0.14837913476875736 0.3049261500602878 0.26616085636663195
Ni 1.928112766820893 6.4015052353867015 0.4263353863132256 0.0720559374259856 0.3758307474906495 0.027371707144733505
Ni 2.7030722290840097 1.4060935274124606 0.3353742254445286 -0.13145819064370262 0.5789777220289062 0.41938960591820673
Ni 0.5535119641984161 -0.14374339654277293 4.713745153219364 -0.1206011933245407 0.7850269578156223 0.04409339077478858
Ni 8.625585997208027 2.3462435905082124 1.5128492598030558 -0.08095195436403478 0.6730685277677441 -0.448822309357027
Ni 6.819338694365999 0.6804281226877927 4.749763228202351 -0.9128508941408472 -0.46095097429976095 -0.46538792702519205
Ni 0.8498395001640022 7.361876098628016 2.646988344045703 -0.7921627975294552 -0.3284167769830602 -0.5258685009087525
Ni 7.531752446374952 3.890746872927725 3.9136601753386575 0.12952189285293822 -0.38724773107833954 -0.5983980355370468
Ni 7.603128987352221 3.779766759472852 12.604607836475308 0.7360209602305646 0.12709862812342626 -0.2573046915275827
Ni 7.822926561839982 8.98322563044207 6.883504591726299 0.4019966072527399 -0.7459387335649089 0.20263532500916068
Ni 6.657283939545241 0.8595768426939906 0.44550639892894844 0.48537645433197696 -0.8307972220722014 -0.006439842088072779
Ni 2.0601697303383637 6.270115089699344 9.036620617635707 -0.2218736044134824 0.6948668545897582 0.760284974984252
Ni 0.09721392968376162 4.905418334064383 1.3176437466687938 0.24449674112963696 -0.4124897934745799 -0.21271713472519493
Ni 6.27617952753266 1.8824627786134893 6.92436340371383 0.48622209016172385 0.9000102907327532 0.5681016985463506
Ni 3.273805214297659 4.329621137762585 0.3744578602356801 1.2704548342108248 -0.2714352173916938 0.13134249100144477
Ni 5.927109404520735 5.682189017730913 4.811736736669864 -0.35205112857254856 -0.24925225353675137 0.04362210756532487
Ni 5.447892660964092 2.6776069968151344 9.29755724782068 -0.2297110981800302 0.5751758317843126 -0.3693348553536607
P 0.37682596463775386 5.67031245151351 12.245179509467247 -0.3933322467095226 0.19850613333213554 0.394354774436766
P 4.100001516858308 6.2244560904401816 12.636788104514446 -0.5761860182163819 -0.29295072286596646 0.014539331266755605
P 2.422666320470114 8.340016755936642 1.386133146662713 0.6483882514122447 0.4139944030445644 0.660331796927366
P 6.3019331134578005 7.744602499957086 5.869830654019282 -0.20750936527201033 -0.0717360921927216 -0.9262892790339401
P 4.64173693751384 1.0997267786829839 12.587357078989273 0.745049131871104 -0.6907903705275393 0.01520344721331575
P 4.090125404131243 6.007776339860782 8.140732840776584 -0.18474301810977214 0.4631171287131443 -0.02331502057685662
P 4.689216169228172 1.1011775580160656 3.7466655619440163 -0.3390480314446613 -0.46609060951917153 0.4870314734368967
P 0.19947765277285864 5.4426482288407785 3.5823886817596704 0.18148080241873263 0.4964746211276675 -0.08839272691279616
Ni 1.3502880838734845 0.9911616270993275 2.519257586477379 0.22228806624308167 0.2915273601558786 0.28017362570595616
Ni 1.7575696012438446 6.424988036268758 4.863211468733814 0.6026676094466782 0.2265527550567066 -0.1081547400310718
Ni 6.068582917125599 5.646207888060134 9.169007385647529 -0.5913493562203815 0.33970546252300204 0.8388193210457295
Ni 8.614214049889087 2.226955287332213 10.443064674961564 0.8105235594248299 1.0643032685182896 -0.3933826403314838
Ni 2.4023103545481783 5.15073520713157 6.887566773858928 -0.5063697687541925 -0.25312896288333825 0.27078807072599814
Ni 0.6600243981915382 9.204969592109617 8.956381707254177 -0.058979820968317775 -0.8877846952008387 1.0611382405267469
Ni 1.6937983879505565 1.0637816932192385 11.335799484810465 -0.8531755897674016 -0.30283327208700106 -0.3453096960836569
Ni 4.18293923724144 6.777085872671463 1.7264120875792688 -0.37799330235960704 0.383817622350868 -0.24332637497061968
Ni 5.543752229568586 7.965084914378476 7.963847696972065 0.1456427096742008 -0.07477127947461962 0.5302519746884287
Ni 5.249126881280136 2.971502449911163 4.8001962826830455 1.0838091997617012 -0.8342869803930149 0.07010935522257604
Ni 0.6324487776008754 7.4778663568604875 6.894741373268864 0.14957778306254882 -0.7087371848139472 0.32882121151033045
Ni 5.213821580491229 4.334748426213042 7.282011146894454 -1.1493885283244076 -0.42952592302126025 -0.04343338859328649
Ni 8.004976840512343 7.307620555991462 8.992531343592836 0.5009552826068405 -0.20384168661243604 -0.1900096658253502
Ni 4.696370944324239 0.4614532572255617 10.414195067338412 -0.5835087771300402 -0.8839056718614067 -0.43444135804500655
Ni 8.030063608607373 7.105322444018264 4.578575772424586 -0.021382579440834142 0.08039042543360994 0.8662239383109275
Ni 6.9342025711286865 5.959405014022381 6.984331953165127 1.6653557109590478 1.0903855674276384 -0.24234704177648586
Ni 2.367455606347184 5.172884372353401 2.6752515078855224 -0.4363254624415969 -0.1721610676797035 -0.5157620086023698
Ni 2.5424141872857855 5.179579583809796 11.422620067396236 -1.1330067445322747 -0.2071617521246045 -0.6672935729571797
Ni 1.0012359829650752 3.3504351984500005 3.6813958107433282 0.002904832351620804 -0.6318002651465764 -0.020860388388776976
Ni 3.744641679719109 2.808600656225129 2.666864020908923 -1.1131069202845538 -0.46104661933736085 -0.4453677751495233
Ni 1.1241467289479001 3.3500657453279117 8.320071693974882 -0.32462825647490545 0.16411248634361414 -0.1437784027719524
Ni 3.591597976656624 2.673380813540505 6.871213517128016 -0.056702852008683 -0.39351273815144483 0.7832541821859156
Ni 4.121916394734424 6.944628358013007 6.045093808507312 -0.14244322890029662 0.021079960598750794 -0.24065114213130168
Ni 0.62728454383821 7.633604364398695 11.003632292686708 0.8327363480764433 -1.6420985402033201 0.10200826081370172
P 0.290358615280907 5.6065772824272555 8.01697145150778 -0.8570510135624078 -0.25489248254166424 -0.6951221651336738
P 8.388270938102185 1.7234717813905447 8.032177601349863 0.6432969529322664 1.202125710817123 -0.21853039897286236
P 1.7801603080018316 3.198626009478399 10.530399788602733 0.33950465936610563 0.1109526144911831 -1.6303776522219664
P 3.866939674182371 6.053300173343571 3.950442387510747 0.38695385398700455 0.632025236673189 -0.02643788247655447
P 6.920208407748091 4.0155499397797865 10.453298526443433 0.40934276320516605 -0.5208980442773545 -0.6391857589773702
P 6.229754588874045 7.851284341723264 10.205076490289379 0.5260837022433521 -1.1654705214879348 -0.18448565068332742
P 2.3614812790314494 8.471478990038065 5.916662892217371 -0.17048290864633217 0.1348834142751677 -0.9094657797186982
P 6.976788801738278 3.994932653356861 1.555725646279264 0.05768912718135226 0.2284592280508001 0.2929034145677988
Ni 5.398196710517225 2.967907040259613 0.3717203027115172 -0.9856215982456702 0.5007477945817247 -0.1375794730500921
Ni 1.3609391470517613 1.212364925661379 6.978739694443944 0.3539565731253775 -0.06254439839112455 -0.1560821598399699
Ni 7.059654433707344 0.7169562232002983 9.31183976485754 -0.9820022563255282 -0.716806849195959 -0.346769568458635
Ni 2.8076364736869937 1.6765061796264331 9.25309852065572 0.13068043193741366 -0.7874988163948825 -1.0676246195820387
Ni 6.243072923372771 2.1247339161863796 2.540728219501813 0.928650065956633 -0.1759480455259615 0.6071192174601286
Ni 4.051963599934962 6.795828860328668 10.333599319307256 1.1412849253806665 0.673918277362549 -0.14785745793733246
Ni 8.072757971838064 7.109224229429596 0.28557645011279226 0.4695058058483075 0.25217019851449474 0.12489853514831392
Ni 7.683795922692269 3.9395056739917327 8.088585884251467 0.2857351789541337 -0.7614293730013403 0.7100255646080675
Ni 3.0073213806502928 8.223801221410211 12.232808236508317 0.7344019365699029 -0.17605706030000004 0.3330455340043232
Ni 0.22679826059876235 4.883602577757608 10.15335125098655 -0.4665346390351256 -0.3346717567538365 0.36359872420083184
Ni 8.49158264651077 2.118705522560096 5.699064915463804 0.43753748047182717 1.49696850849948 0.29145896881178834
Ni 3.7127515675465856 2.6277848916436506 11.394766005306243 0.3005035955125599 0.6337419622539795 0.10740372079766018
Ni 1.1377984723616814 3.151110733557033 12.559133563777191 -0.9414842416068236 0.8377379150560926 0.6266079223123596
Ni 3.1132102498617424 8.367996071646074 7.9607226642222955 -0.20504059201654368 -0.09522800466707469 0.3962748742776143
Ni 5.611704570877712 7.844652207629175 3.51974294883099 -0.6696265919657307 0.244494684247108 0.47013366924029354
Ni 2.8910067245545226 8.298448774175734 3.61162774250491 1.4479920786007774 0.01891072086157388 0.2093865276900652
Ni 3.4455558608103156 4.115491514830778 9.179598074779028 0.22079142709289717 0.4377624519984396 0.3450201898676961
Ni 7.310981678297297 6.073412840868033 11.299940004338424 0.17943703251582643 0.3702388552251688 0.35741959197331347
Ni 0.7552099401245129 8.834444154861245 0.16621605852272647 -0.9475746707752777 0.13539146425983778 -0.15448087679112105
Ni 4.483962432278262 0.5230077517863151 1.6635023308340713 -0.05332570800633397 -1.3506452278184868 -0.01150902908086405
Ni 6.068537861866808 5.6725021370907704 0.4597564761794792 -0.624031419834435 -0.11741431095612681 -0.6434995558613755
Ni 7.819763682672829 8.795561466524303 11.533140617211439 -0.5680448771664863 0.32762127766495835 0.17340136784470783
Ni 0.0215679523834231 4.774667973051862 5.728198546903472 -0.2104741043272891 -0.02582287460037488 1.0196383215107472
Ni 7.784548492401504 8.757039220257692 2.5074008445738456 0.6823381259951281 0.15486602804468166 -0.15446930682689528
P 8.400904432667282 1.6125547452979796 3.5881260184141617 0.4068729615084347 -0.29123039774075005 -0.4752681622533814
P 1.8367407019920192 3.2166300908914254 1.4648563981385012 -0.3437310387426274 -0.6785853438209152 1.5442688362473405
P 4.6102072674116465 1.030882343249789 8.046935901919559 0.03641119163918245 0.719711938657896 0.876909700159548
P 8.5419994810983 1.561714391277811 12.604278031980954 -0.29034773802548064 -0.1593718863348352 -0.4701349547918742
P 6.21502151924927 7.776195247421586 1.3199667958120762 0.13675183494247417 0.14351589313918509 0.6929017604435873
P 1.6401916410405986 3.1978060037683966 5.997443366809573 -0.08531691620094983 -0.17002293829077816 -0.4190106253122332
P 6.832251531535602 3.9112019604190014 6.007110423135846 0.8635188806749385 0.09592143118967351 -0.5502644132546137
P 2.4477620996169005 8.340557419042137 10.080365336165253 -0.26966835529925814 0.7653454202262949 0.02827236458213195
