# total energy = -340897.68395113316 ev
CRYSTAL
PRIMVEC
9.02181492807756 0.00000000000000 0.00000000000000

0.00000000000000 9.02181492807756 0.00000000000000

0.00000000000000 0.00000000000000 13.20433808627283

PRIMCOORD
 96 1
Ni 6.481434068483729 1.8600275353614335 11.359942472378801 0.20254507928819954 0.6906947254899395 1.0207328401265068
Ni 4.547409609006108 0.27667740429475823 6.0725167087744065 0.08006955175908147 0.5163767593682331 -0.26315343699887583
Ni 2.929094532913256 1.7418958937645834 4.8337385506599855 -0.15883658265665548 -1.0710346737048522 -0.118806306207647
Ni 3.417706994899189 4.250276142075279 4.850982847265165 0.2872536724811892 0.811601365870041 -0.41676425248021776
Ni 5.026314598381822 4.419272774914152 2.9016925751446507 0.46823619510726455 0.11333602712169515 -0.8721287338311366
Ni 7.2093411434003825 6.081731590302359 2.542059584743047 0.47596107455534803 -1.017116840640474 -0.5203120898668975
Ni 4.881857301509302 4.72953298222404 11.407267303535088 0.6972065584665283 -0.6807299009677437 -0.38889477976345926
Ni 5.494447541013481 7.869900371629967 12.408314329205174 -0.10439861542274924 -0.11138841647702105 -0.12428841236814078
Ni 1.8062394761587133 6.4451934388598895 0.4672794789616541 0.24228096442524077 0.09464230736693377 -0.9416289947148041
Ni 2.656915405424683 1.5851689289088875 0.3796551037509158 0.5099551721126055 -0.8019718132000768 0.27870912534528774
Ni 0.636284231433751 -0.0033768652397816587 4.854825238143132 0.269692009448342 0.4578983035163663 0.19243473032707503
Ni 8.636159180808743 2.2090003495211836 1.4617468951757615 0.5636125524267455 1.0332039760103238 -0.07926299669738607
Ni 6.853385444667855 0.9525141735263366 4.962480748517875 -1.2233172572930737 -1.2601300552460493 -0.6428333830322864
Ni 0.7837539122324338 7.42103802518365 2.5290005079741875 -0.0005198770592120079 -0.2049305488012406 -0.3544180861428283
Ni 7.671609906481261 3.7676902523046123 3.7955739749778505 -0.16054173827322027 -0.12508776834098456 0.1433647122733015
Ni 7.724116867997503 3.813737594500299 12.563333464539388 0.11518927828035 -0.31437701106054244 -0.1726341506613801
Ni 8.024985366211444 8.87328855821302 6.925727767969253 0.0032578448156653575 0.1572558684330969 -0.029023640925859694
Ni 6.969866094175793 0.5229007709100962 0.44823172159924163 -0.32095337872647955 0.8606677843793887 -0.8173056153436697
Ni 1.7527130495821046 6.37311816127342 8.986225438909345 0.12806510580175362 0.6643810272960751 0.6298472551852636
Ni 0.04488262591875441 4.7626430421492305 1.2357847199991134 0.3774294594363371 0.012924678481468064 0.9113280297384175
Ni 6.344266397883568 2.1182408937044497 7.1821954051690735 -0.23382280635555858 -0.8722130660148268 -0.6198562054108228
Ni 3.493445129251225 4.440708606625938 0.5833162551866709 -0.08172019998862701 -0.6308682402506103 -0.18268639269105955
Ni 6.11217119307827 5.691998217357321 4.771638693580131 -0.22333476234004118 -0.8485995403609451 0.4849838468792486
Ni 5.176942816504703 2.7859002900978282 9.498844047613247 0.39677675361469733 0.6091725004447315 -0.4465443119561277
P 0.11490002757363413 5.61550225057103 12.368860129187507 0.7827672152471681 -0.8225820332512607 -0.06622621811808595
P 3.8204137373734985 6.199980515490226 12.517896899198453 0.4882139237807721 0.5535459122193628 0.6586014444998205
P 2.38658574994828 8.418083876037164 1.2965628812263672 0.5731333474329872 0.3404935056419362 0.9639346001905399
P 6.44185536742329 7.90193683560663 5.736967452697133 -0.5656969457595998 -0.4809585277699394 0.5436880455886766
P 4.6178429163183585 1.0380860858943008 12.55735200139759 0.8324825801944242 0.17815893713435124 1.0410954629432587
P 4.032958669737955 6.154266980438199 8.142441273887751 -0.582272590730094 0.5600762571387128 0.2729076881721622
P 4.803836648039808 0.960552610418256 3.6935967947712034 0.4775983530484549 -0.4366897877595512 1.3493977285646308
P 0.1977193842786078 5.434578778707334 3.4865001363001595 0.20023262910493902 0.6965696962134778 0.02575782569039435
Ni 1.4362187683189993 0.9939062593401711 2.65230255157189 0.12712459626535527 0.5221745969969329 0.07496642620456122
Ni 1.6739616291224355 6.660345675670772 4.66797082529992 1.2113402874368557 -0.6485317189686444 0.13956025092554675
Ni 5.926466159427013 5.616341279337527 9.20562875480381 -0.17950208142580698 0.0768225055766935 0.32745132774599733
Ni 8.682251632077897 2.2454755463270537 10.193999228648043 0.43375847304536913 0.5939171169475578 0.11293390658727002
Ni 2.46724077330828 5.271166649163746 6.914345846551917 -0.6434543044457369 -0.762292492332584 -0.2990588926462333
Ni 0.582132593098882 8.871709740641656 8.850167451516487 0.1231257595186073 0.5476010074898376 0.09588980662078969
Ni 1.4142235840962163 0.9512150322104708 11.571700702501984 -0.2924470437566705 0.9639058038351335 -0.9076806627938174
Ni 4.179265438622644 6.649790152479363 1.6547018591147256 0.35376245483670044 0.981526088020058 -0.40988937973725537
Ni 5.6342856687629235 7.832820713239633 7.94436372356581 0.03252882586564075 0.5338679741744612 -0.08001401593079768
Ni 5.332893905296758 2.8393996512303565 4.892497629758831 0.0230360558838571 0.1403657775459776 0.031170512065533413
Ni 0.7050223397650907 7.098156299117537 6.776954434947357 -0.26271300702734757 1.3245220483688738 -0.12258582785473728
Ni 5.074382827068855 4.680021263186045 6.997955514224043 0.07139799212701252 -1.0372521779377684 -0.266146972409561
Ni 8.023677203080885 7.245175791363014 9.052669299764124 -0.32064896011218325 -0.6955800786066988 -0.13213439077512082
Ni 4.651945375859834 0.48485397398461616 10.490212470480133 -0.08370586296008811 -1.5155874091522479 -0.49494790007049594
Ni 8.122944230153601 7.255018591193636 4.476746245419172 0.29994258080276726 -0.7213538451366931 0.9989661378733763
Ni 7.228629783215113 6.154321111326359 6.911863043148263 0.10021903012376289 -0.2614295123292336 0.010087980363621338
Ni 2.330343757148924 5.321481309709464 2.6158057024107553 -0.462704466655758 -0.7804853611915268 0.2207006671513038
Ni 2.2736326299855056 5.341744305511092 11.232917125857085 -0.927374798788635 -0.03633920075066645 0.5754699659859638
Ni 1.2037717127406544 3.325251437920075 3.797950320968122 -0.42759013945112817 -0.07028161913438219 -0.4394442105762368
Ni 3.755249169842259 2.3854850885556713 2.5503515346278545 -0.48024016154667615 1.2059571687480715 -0.5948386003205627
Ni 1.1028988026524933 3.4433560140728448 8.232085633408367 -0.32067878490885415 0.2764825500076141 -0.4427876731271729
Ni 3.6777968906984557 2.6132768877521633 7.144735026198672 0.37164936241945024 0.4517353692387639 0.07180834019155376
Ni 4.21852837616881 6.88319352041522 6.043282420441549 -0.2054761368920655 0.12292444214107862 -0.9427052584981185
Ni 0.44782754430097227 7.318072054086594 11.108888826176555 1.1790022374257825 -0.6538209923920416 -0.02173636323582708
P 0.044534383871584836 5.508819291820247 7.945129675633289 -0.07109203085081948 -0.7113311707933685 0.5534749497721113
P 8.569424817520833 1.7025698035155632 8.043435879441146 -0.7398927844811451 0.017373972502073304 -0.08552671821891077
P 1.8703394695561182 3.2950824895849697 10.313974026986777 -0.9294249964494445 -0.34784069003562673 0.6489094140230373
P 4.021338572412711 6.191066962573035 3.844799702490062 -0.3046291876451592 -0.28481832356681913 0.1362918645869201
P 6.887695405947283 3.9603059960111002 10.523434400907522 -0.6664114274625426 0.14597258220979376 -0.4404076029307705
P 6.172319631639916 7.679224318082586 10.104328705864816 -0.058279709577499623 0.636651936811923 1.0906673603341153
P 2.3894095779473488 8.36470179849565 5.9997341209159645 0.3369610670086455 0.9174765658383166 -0.19942093183692108
P 6.992763459867926 3.930651291113525 1.6835130243384573 -1.0286338401411381 -0.13763346621647907 -0.8857350117606616
Ni 5.4141082811677546 2.960652840711162 0.2916085076125211 -0.15339278593326486 -0.6291556284348778 0.11311491224982455
Ni 1.5027726953130396 1.3042747284263816 7.07508210585741 0.32174784960331687 -0.7587284291304094 -0.9438550558318455
Ni 6.869940474630449 0.6967691836834655 9.168312724868505 -0.09465901953748213 -0.27630694366169833 -0.041131737043303356
Ni 2.6833222570325934 1.4769071525867397 9.30817340715468 -0.3839011832036098 0.18673588017008486 -0.03446306677387613
Ni 6.4652308892941805 1.8592065502243242 2.4282376640252874 -0.5705205924004884 0.612116927785036 1.1170569060712374
Ni 3.894058810716639 6.893649803645 10.224990064301727 0.6218971471002516 0.9348142857858158 0.4512304045778874
Ni 8.13640477767632 7.2630480062708624 0.20249372861441453 0.0028135581893951544 -0.46979916871901023 0.3855487461093618
Ni 7.370750430082013 3.9129234252407734 8.291755915791256 1.3287659112468921 -0.11178565191543974 0.3854137631933943
Ni 3.024671637776325 8.334623068307481 12.27945304339333 0.23220789645995493 -0.38941285705045836 0.4822885594352726
Ni 0.03404020902009131 4.831768186330922 10.062682204876625 -0.3747902220412771 -0.11408241836941643 0.8983586140619432
Ni 8.598023970099266 2.3761024012744185 5.747055645887419 0.6663430361184525 0.46549308514448867 1.192352176370127
Ni 3.604278122761024 2.6354434864541236 11.465946990664632 -0.04243657189765595 0.44802372471513163 0.13800010552727848
Ni 1.2828388967145965 3.4830249332802183 12.535049173293757 -0.5575285510161947 -0.28592518347775275 0.0704353711034271
Ni 3.190609875434097 8.310697215740285 8.142045216222705 -0.37734924101770495 0.044136842418214306 -0.18499858576400396
Ni 5.740147642376597 7.7149416824542 3.587816919671241 -1.066361693709215 1.4256407074887707 -0.2235399363723118
Ni 3.06657796702769 8.402494180246773 3.619084725036016 0.9527297326136559 -0.17323270347732747 0.10295879765242912
Ni 3.4064207047176054 4.386586740279557 9.276416619433517 0.5186532141072359 -0.17528238691750458 -0.6632849660184189
Ni 7.175491294670325 6.173203769479881 11.374810422993708 -0.10812003013839444 -0.9151054945029788 -0.17383408450675222
Ni 0.4873376795697401 9.119611164789987 0.47876064034061794 0.1590307009453326 -0.1765478838934895 0.10523473817079942
Ni 4.6930307199740895 0.26886631713311526 1.555220112852304 -0.6791900672844495 -0.7562174897830977 -0.5797968754960917
Ni 6.027519505809043 5.437898806514547 0.33431687619013906 -0.2844000050824779 0.7957353453720618 0.34809600057954243
Ni 7.8424740549616905 8.797667707452 11.331632920052028 -0.7893749503716728 0.7643056661078709 0.0172929827524928
Ni 0.16739255418636617 4.864607591815307 5.652842639406009 -0.23481525217581492 -0.4243996575382884 0.579475487600931
Ni 7.891300116082979 8.76913170757642 2.683042580777095 -0.16371036580918902 0.4569814481290517 -0.5144713148154043
P 8.507372776058855 1.563922555305666 3.7394952770244476 0.6687804419153515 0.3534053286075978 -1.2990066777065885
P 1.8675607506305163 3.194814041081274 1.5858672173661654 -0.3238271007298487 0.3832766622457335 0.29995980719394794
P 4.701826989300264 1.0227670445447168 8.310902913115298 0.18667880167990428 -0.23514615315267245 -0.928216320853324
P 8.562315627542345 1.6806828810691026 12.445444509757793 -0.6186045923919088 -0.19076325616192308 -0.18315047681167165
P 6.323705682197053 7.681362488164948 1.3151703740317364 -0.5399589175635475 -0.6537171198243258 0.5826006634934741
P 1.8666856346052458 3.2578675039742313 6.00014371130305 -0.7037518157842138 0.05347071822463049 0.32570940535422616
P 6.944108813225815 3.956543899283906 6.082828642969091 0.011884153032095661 0.6397148920079628 -1.2055632757437624
P 2.102091845403063 8.40500224473157 10.230708090454474 1.6196664364520492 -0.2952647157111237 -0.403118379562009
