# total energy = -381168.9222227534 ev
CRYSTAL
PRIMVEC
9.22481349974054 0.00000000000000 0.00000000000000

0.00000000000000 9.22481349974054 0.00000000000000

0.00000000000000 0.00000000000000 13.50144701530665

PRIMCOORD
 96 1
Ni 3.900952200118672 5.807785707884378 13.10183091998039 0.26558672903071684 -0.8167566848187353 -1.8379644076991313
Ni 2.6551780468982806 0.2160608124970902 0.8830000631167986 -0.22336870090177013 0.6092591466212669 1.458444898502985
Ni 0.5952956596686929 1.6504482683624326 7.962100665139635 0.1766702684039667 0.663002916001626 -0.3118514164252113
Ni 1.3925040354910514 4.2901563031540935 9.342784947194662 -0.7243070142277461 -2.263716979720888 -0.8578974207231032
Ni 8.922211866121936 0.32391733101265385 5.846733792628182 -0.6420234855364814 0.9012562473247123 -0.2608795533630346
Ni 2.538567180446413 7.585767021788862 2.468077613654335 0.9399323237386715 0.03375395652199348 0.0020501976608093726
Ni 7.370330729160358 2.3941896255980475 4.352960677885334 0.4670974535171311 -0.1124734220110837 -0.4563286450364012
Ni 2.434990975358083 1.1636917634024402 12.218067042312352 0.4367607502068026 0.1637749004985373 0.8089024788816391
Ni 1.6397751592346097 4.043715412618404 2.9203628358236196 -0.8052684816734776 -1.6294715954679293 0.08386989934177815
Ni 1.5757549540945128 1.820904370751296 10.263921311474238 -1.0154134847961223 -1.5376688144323194 -1.6680839085234884
Ni 7.534440159915735 0.08944379092772028 8.016362862643248 0.04998584499982359 -0.4029152624122674 -1.5812564692152833
Ni 3.5074032099620713 0.16102557562881675 4.938465120589228 -0.9457669281425776 0.10027687994489182 -1.5744890685844628
Ni 9.179897804217536 8.128757989361826 10.990164120132006 -1.6516221634230392 0.439926549529294 0.3369165869239552
Ni 6.781409415565411 1.8632001402854952 11.49348470007032 -0.4526805067608526 -0.9671600491063729 -1.500206041600171
Ni 0.8852380028526757 1.908558547875388 2.0314819541510842 0.4509411554722427 -1.0336325789073102 -0.9886950949646716
Ni 4.327904239671857 0.7495529896906957 11.025308814302429 0.652370118878128 -0.27262846636884663 -1.0096179611602678
Ni 0.9904774418007689 4.508046396152521 13.320972820160017 0.6319313914078021 0.7054824253220753 0.36735896257421247
Ni 4.627470830697722 1.001584117159368 -0.06996559738977873 -1.671839776021495 -2.6481629796843746 0.9252549242321549
Ni 5.017145399217602 2.0872985327160962 4.5338943233575 -0.1246321688608047 -1.3284056996939961 0.44182582343453586
Ni 4.498019023964152 2.089411014989451 6.709490002693116 0.9780838951077283 -0.9541063012462085 1.4416090578925689
Ni 2.2058189355460622 5.97545591662017 6.894635697973203 -0.007654945442096494 0.5301033649257063 0.00466809489963067
Ni 4.483822036109597 3.0569740202530444 12.826131688718068 -0.5638647776468676 1.686114026552322 -0.6773661267018334
Ni 8.251521806365345 0.28249884123476904 0.13006064441934082 -1.075459028024793 0.5115086326426544 0.16520726206968966
Ni 2.286720549246156 3.4805959021613333 11.600159519986686 0.8601720756898927 1.5065525526434893 0.3477077640021883
P 4.507382209586226 3.7981785537979493 3.5174776286988867 -0.02137923700672447 1.1281419602408054 -1.173906825180746
Ni 5.197093834616432 4.5786438932616225 5.579323978705756 -0.301613540747287 -1.2116141099235327 0.4111955001431886
P 4.402348483977416 4.598117474392853 11.194117365014344 -0.233653627767546 -0.8508921930498636 0.6668711407077805
Ni 8.256816849268862 2.7756172109197657 6.500811808376662 -0.2886562092556706 -0.40789163258093625 0.2202980323962464
P 2.614339797884562 2.937180593171013 0.4242777661425054 -1.3361503766364213 -0.43332858459680207 0.3518719226822069
P 8.78557392973359 4.621170283131341 3.2913829866440327 -0.3113955598347153 0.3277889135910742 0.7182332972298404
P 3.89427343520204 7.447662340066616 4.135708941975623 1.4643913458944071 1.23618562861531 0.3385368961361976
Ni 2.894894048450234 5.761633966340299 10.056417435906248 -0.4696852688489653 0.6551484529542136 -0.2325305699066963
Ni 6.549792800196888 4.7622730292153355 3.3457392772445376 0.8993849984439285 -1.5730034851778718 0.018112393329994612
Ni 2.9732680632730384 0.8546042424450052 8.585394556021686 0.2833965035186281 -0.24477879114643009 -0.2866962573158224
Ni 7.781388415189567 2.037816633527122 8.93733687020662 0.02353047902177238 1.0574312239888046 1.4767012736100116
Ni 3.210585613335594 5.520017653223669 3.8804509747723683 0.22344403422439582 -0.5284673719841803 0.5748744984938099
Ni 6.966726692375125 6.4427296156355105 11.036865660555963 0.7032964734143501 0.1853675390676485 0.2601123361797069
Ni 6.020223936151134 8.680853847781085 12.384741893680046 0.22944781721631455 -0.3532711170225787 -0.729087723445841
Ni 7.690976018852667 0.5218384703991552 2.5835962621971844 0.2332183400023403 -0.5874482213937625 0.41202982311902586
Ni 0.36175382573925635 2.1508759468119965 13.113280758398243 0.4188216492298787 0.059758608115871276 0.12608844169135705
Ni 4.981795914189238 6.11468602557975 2.220326799612897 0.5433057225485933 1.2133997410690456 0.1966595670417
Ni 8.016694955926395 7.6431176868257475 4.770290314559321 0.5673527361954681 0.6646754186080424 -2.2869805782345196
Ni 1.6923012468524357 8.684257803933347 6.723032028794797 1.2070719990788048 -1.0062968672068349 0.9913281617121442
Ni 4.722357261543693 6.82501510860536 11.091384307872675 0.5180700879102562 1.4752583705158981 0.437631325737214
Ni 6.518207039044196 4.10228375302683 12.190631524717663 -0.5549849586587345 0.2297298672331076 0.14258129714005768
Ni 1.068980604011464 8.626464347852266 12.977266419397141 0.33788357882291487 -0.9753803801336364 -0.560908266121705
Ni 6.155708770861883 6.212930288510878 13.515488158431573 -0.09655597944987887 -0.1069758892316222 -0.9996760194562073
Ni 8.284316018076158 7.2609982404974724 13.213691007520566 0.7426016987718759 -1.2075797919531592 -0.48489771492334555
Ni 4.534475486603008 9.039403895819312 2.3227213061020264 0.054145889914784175 0.3693767643351896 -1.1323984215243141
Ni 5.965557691819691 8.594048353491704 3.927287197472267 0.49813401110796146 1.9217659156968192 0.9884235864708397
Ni -0.0025285213586312017 7.190972681820458 6.649948444468799 0.06944498216569976 -0.6941358899610045 1.0017059054020427
Ni 5.097880966276122 5.462823810014937 9.388149812153948 1.582983479208719 -0.1231869517738459 -1.9700933991576135
Ni 5.95744908082284 6.52660161925709 4.670555321779397 -2.983035539595108 1.3180228137977752 -0.48050215695881116
Ni 0.37591299185878585 8.2096503782485 1.9443969480150531 -1.0602147002712128 1.0224125418217747 -1.8099578951838764
Ni 0.7273276467160508 8.774033688144216 9.030793454972372 -0.6269786753882169 0.792226817998171 -1.954940602676575
Ni 5.016601135225777 8.649803125806796 6.370076830096264 0.14980969656769683 0.874174817726888 0.9867760235650875
P 0.6404013073708568 -0.0001429846080218301 3.672150075324824 -0.32968664483441934 0.7938239872819619 1.808765417537672
Ni 5.764585906634943 3.550270917928358 8.379308534276467 0.7356890308124427 0.29296949191904387 -2.0282880052204746
P 8.753914370073531 1.1069868353050085 11.156366661052557 0.27800258619656637 -1.1323572838737337 0.23543283115515581
Ni 1.5088566071671379 7.330950000667119 4.719673763319593 0.331423682130184 1.4277816650911732 -0.5773502137278121
P 6.4383017051935445 8.097292150783604 0.8393630057112202 0.35342615454320425 1.0307552573595151 2.3358163687902995
P 8.119745346649742 2.312319406488774 1.4674178227997274 0.12832658699325641 0.3069472942553746 0.09080647856061135
P 7.050026757564616 5.340004644130895 7.829219072776225 -0.10444849482407818 -0.28226984611335254 0.12047675193153447
Ni 6.549894273144518 8.714339920498457 10.017546839595179 0.11375743092982989 0.7166150449001271 1.2192631418283582
Ni 2.3084173104117913 1.5235794093866761 6.35746651015008 -0.5041591342561189 -0.20482976155731822 -0.13961167298877245
Ni 2.7607191372452333 3.249385178583324 4.969572113925384 1.3198272139963658 1.7540970794605144 0.459515527404815
Ni 1.120095295175913 5.1000672470568436 4.988042035356437 -1.7756290399950194 -1.1226395423653375 0.3182588626134519
Ni 8.134680319577958 4.5120407403637115 1.0569984938592347 1.4348249450911998 -1.5972081074485331 -0.6457590413195137
Ni 3.0001307199543015 5.199400037971622 1.491559159521865 -0.43003165901308515 -1.5791561350428287 0.4357611052976947
Ni 6.520596265720173 1.9278845319918871 0.24556268829803307 0.9565015409512623 0.9625508324691358 -1.0221960549355942
Ni 7.305341918611081 4.0439368081405025 10.02836201084968 -1.4955762561376436 2.2103858723979157 -1.3298185208811226
Ni 5.737086737827648 2.1950997023511354 2.3779557989401887 -0.27774419032885717 -0.17354483540110757 0.022007357509026614
Ni 0.7750208545827387 2.1319835289262734 4.340323605980231 -0.47739420745744876 -0.4448191017349049 0.6462866316882095
Ni 7.74419396747705 6.436087749972561 1.9768682912561397 -1.9629452181486067 2.403168215872397 1.655592203814381
Ni 0.7434572329822553 6.003776093821913 1.927074593373544 0.49769255269516866 -0.9158302884841454 -0.0805997132309386
Ni 5.408821752249789 1.5008955931850194 9.06098257937316 -0.0849577330893182 -1.6306005668660497 -0.18920979563187415
Ni 7.56785243412574 5.522637500235165 5.632600966136032 1.83484977332955 -2.76397420781944 0.5161924112715691
Ni 6.903352224174481 7.414065569588196 6.841641912314944 -0.8979729485877502 -0.4414846380450332 -0.07452676756398133
Ni 3.5584072033654714 4.0891199442754 7.376825920289917 0.6820997847320769 1.0206868173799197 0.6568798338230236
Ni 0.039300472616477594 4.846228056157702 7.244066095463661 -0.5424009513461369 -0.8001753834212865 0.30475311481753325
Ni 4.551458368110634 6.630897359792239 7.199592347480819 -0.1344203585958201 -1.8647779283475494 -0.002972452364762623
Ni 4.528673078961348 8.237730710301303 8.953565161976426 1.2505820065462978 0.3887479697729499 0.2979042102164999
Ni 3.0743258942974996 1.9100990917166554 3.111273117010341 0.3392904864727705 -0.3683475517397269 -1.3073259962055614
Ni 7.8202710037580845 7.097433073733919 8.955387985108368 -0.548081803780998 -0.06438248004112783 0.00849775305836601
Ni 0.8993584247558379 6.023590993049713 11.289612633546085 -0.05194451138809118 -0.4659913649371459 0.5877287287486588
Ni 3.5330297416449516 8.078907097636023 12.443945823733161 -0.8168767553363673 1.2738312068822257 1.90471975884781
Ni 5.9744780863975695 4.137854633577293 0.9930096530847685 -2.0581827358973777 -0.06712996087927793 0.7249760152703126
Ni 0.6412675173510664 6.3618187771219965 8.898736560928777 1.7162666388763022 0.8521430347378292 0.4633289876136343
P 2.6662201485629344 7.5108799864391065 8.386598904322897 -0.8786590787504868 -0.21967608254153134 -0.46898052947245683
Ni 9.024118379981108 3.214008019114697 10.950929143690816 1.4407585369668154 0.711712208281871 1.0411188599820262
P 1.6476070258288376 3.4263355496204038 6.917858243278632 -1.6237557760300745 0.7287331683198999 0.44948873929643235
Ni 3.560602708959613 3.0174918188121778 9.495284027778666 0.688176587053776 0.3599755256259478 0.8672832328133773
P 6.386144610112549 0.933394296353086 5.787854576007477 1.7511657647463323 0.35730594921358466 0.4668904797126475
P 8.31914891355296 5.219666953057039 12.228233709183378 0.7581874690252748 -0.31245742544032634 0.1362070181825977
P 2.1229063125202425 6.865290644000412 0.3905324761680114 -0.2833407105800282 0.8825149621614672 -0.74602897928587
Ni 2.4683755751278253 8.302368977940592 10.398517796652568 0.19629755571659097 -0.13362100262297635 0.9620818632525173
