# total energy = -340887.8160287659 ev
CRYSTAL
PRIMVEC
9.10332235937812 0.00000000000000 0.00000000000000
0.00000000000000 9.10332235937812 0.00000000000000
0.00000000000000 0.00000000000000 13.32363245087519
PRIMCOORD
 96 1
Ni 6.705680148224157 2.1201000337492903 11.286515611131177 -0.923713547886964 -0.3946057141053075 0.19038324711468504
Ni 4.575329773597289 0.48828126899578056 6.130242761469924 0.7895700971016143 -0.5898272631489003 -0.49984970824748753
Ni 2.91508406438693 1.3143467728646043 4.496965644488538 0.34786922928071706 0.8843075352855159 1.2333592149101082
Ni 3.195111360776954 4.552525951307473 4.614840012919546 0.27264157899496916 -0.8745627971939262 0.9188672755382562
Ni 3.4960398851020744 2.7010467511421634 2.7639871213265086 0.6125650710660483 0.6141010480946004 -0.819359412548905
Ni 5.254282858563876 4.296476805780273 3.065088608774785 -0.651795991542213 0.013126252969312878 -0.9025523404283166
Ni 5.222494057192204 4.973427159847155 11.565059065990967 0.8082784721443951 -0.5930609395948496 -0.4260973569556855
Ni 5.678352023253999 8.223203970863766 12.288719476964545 -0.8711481150854222 -1.0285327957868995 -0.19413345818573663
Ni 2.1193080447116803 6.8253888360928485 0.45712332785751664 -0.34055289812496187 -0.856081707670603 -0.8123359300432204
Ni 2.920436817882503 1.7528720133216846 0.2913236089965839 0.813312949244509 -0.5941989098540348 -0.03687424731853004
Ni 8.135202154466304 9.084769700594304 6.506475788288383 0.35575351712480024 -0.5066345923798048 0.4059751322845137
Ni 8.719808407412273 2.0867454609469416 1.243150599712342 -0.1288526347000555 1.5822401732847913 -0.5028015917869598
Ni 6.794992843028699 0.8752917190513294 4.679020255597254 -0.22097808918240652 -0.9725434249054734 -0.05564098640307191
Ni 0.8099881264053337 7.597505321184773 2.401757735158119 -0.3237291416994037 -0.3409452484673741 -0.08841175307618966
Ni 7.641601814267354 4.115266072646115 3.698680749195296 1.3456007234160439 -1.627235507048559 0.8842394010517417
Ni 7.63288993485364 3.9369501959942577 12.52088332551609 1.44371093472692 0.6452273371857598 0.6639603948188887
Ni 8.480418341641704 7.6038139235188416 9.049397831576616 -0.5912876497445108 -0.2116105319245775 -0.07905885110637997
Ni 7.191906797383286 0.4593855034419554 0.04034774497122543 0.16212142405551433 0.8922730699894956 1.0236469284495082
Ni 1.9662629906851825 6.56928507063202 9.23862039864182 0.4940513563981555 0.3440557690718978 -0.19691950557130602
Ni 0.6404669693998594 4.944332941867814 0.8158916308983257 -1.0280689687766036 0.6682446240165394 1.4129746819853277
Ni 6.8462809607056725 2.0141009492213025 6.818249100435402 -0.9725894476520606 -0.27133185904461016 1.5412285067591198
Ni 3.6522802052458276 4.435193230551612 0.4387974297929947 -1.2012255676003571 0.6972530954337476 0.25287442367037094
Ni 6.165106665104869 5.774100766904409 4.61390692238673 -0.051912115488258984 0.7489397251747618 1.8650736052110977
Ni 5.750140822686129 3.0967044470232996 8.754266302873914 -0.2246614515712647 -0.383521688377004 0.9673541673950501
P 0.49564039471996685 5.863850421177979 11.961237471906026 0.666494216984336 0.025953486640968203 0.9475469028611359
P 4.141565570688142 6.53559367490563 12.685030791384767 -0.4026123864598679 -0.5323893327464057 0.25337887411061527
P 2.510432286101667 8.788201667637177 1.3461665255319977 1.2853906295850508 -0.1635800108789118 -0.31955804104084967
P 6.583276876963136 7.77641291378427 5.65293736813675 -1.0639368863178063 0.9214476346709227 -0.5601554471160805
P 4.863094893917989 1.3055984801618048 12.450002127314416 0.4942750423731875 0.34607331372255884 1.6590084285847815
P 4.260973848921878 6.252926415056905 8.064940892511313 -0.7722334055953797 0.2011371431970794 0.31632565014648106
P 4.963604675116333 0.8963622687806734 3.5525469374372327 -1.3354224973314615 1.222985584985268 0.6982632818658168
P 0.3613090402867522 5.59991779856376 3.3210885963617205 -0.1288580340166942 -0.5535631386105434 0.16975322956915925
Ni 0.6228602337947767 9.390441055822814 4.567021171360197 -0.06549319660680333 -1.6489093924775664 0.8704487750255525
Ni 1.5916885891845705 6.8619386750124525 4.708171824506905 0.13388556913827265 -0.38051375478861565 -0.07501579138525791
Ni 6.207974209680813 5.799890478899238 9.173201193802976 -0.768022967058458 -0.000973162546546711 -0.26408263368136453
Ni 8.631315011612156 2.793572918708504 9.88023256598342 1.1649830403285548 -2.4546203610051016 0.7076683772298006
Ni 2.5028310120050623 5.350122635437 7.116737934391792 -0.7853010374126154 -0.6888815835406007 -0.3527103594231022
Ni 0.951306280681835 9.603185697305046 9.135654541094656 -1.1419441562312205 -0.721859324018202 0.2621535349794517
Ni 1.7831041465849489 1.4993535913859288 11.316240689343926 -0.2974154435055394 -0.7804568219464365 0.16633494791622966
Ni 4.338352088228636 7.002202664569928 1.5809821718611965 -0.12932828878489339 -0.9540209406212538 -0.16248214982904277
Ni 5.767327895134501 7.855438854422149 7.857585417813742 -0.36462665124471394 1.0687037115788305 -0.5379097483440026
Ni 5.2134999747880775 2.6851614537785995 5.234641530431139 -0.17317691053872755 0.9605841956610685 -1.9444325040563997
Ni 0.8853235801943939 7.71363640340081 6.992602300902527 0.45258151928914314 -0.09530205243811975 0.0668309415816204
Ni 5.075894155333847 4.66555280062897 6.805084786098755 1.3022593803159312 1.116900068778399 -0.13265015406927477
Ni 0.746633555057641 8.057186682600548 10.973330373699866 1.0052925943120365 -1.7043200080373873 1.7014290596428374
Ni 4.658643379024989 0.5205652910990146 10.513198397831658 -0.1407056773838996 -0.7814407831262606 -1.735900868167462
Ni 8.42661770701783 7.011633706443081 4.6918905326245355 -1.0141317898702211 1.2216205863169411 -0.40344670943570515
Ni 7.581811193588908 6.4512149807721775 6.997411586058498 -0.21282743505081414 -1.2625198956344643 -0.31443666065388426
Ni 2.44563483817396 5.616877287955346 2.4925051135526317 -0.1950667686332834 -0.8731618030813414 0.5104747920615015
Ni 2.7782520273257663 5.110250093586048 11.460562029637757 -1.0344553319189216 1.1156253158310334 -0.029064778576440266
Ni 1.1483294846013856 3.301392648295355 3.8253744162428203 0.16764543919753708 0.3417466613227469 -1.132512321394359
Ni 1.456167430530486 1.187683146780576 2.533142344172087 0.10050956478098819 -0.09232240098450552 -0.7147939325309883
Ni 1.059963535313067 3.5007554060386514 7.9919540958682695 0.20890958805364668 0.39349731153247713 0.519905341346782
Ni 3.7972597157398797 2.8630494742837027 7.079658282115993 -1.34518523314518 -1.3006917787184955 0.21448708214142415
Ni 3.600236511820329 6.885689242818492 5.728176326709735 1.8274470531075753 0.9384631953923127 1.7954417038455723
Ni 0.7602138912220907 0.12191988484841051 13.54293971655889 0.06107012783844322 -1.806666111806482 0.9757632173943519
P 0.3060555154283637 5.809758480241419 7.902778861230024 1.12364818613551 -0.4256646402936411 -0.2000253981901394
P 8.781665482246323 1.5974874054714416 7.880635029804885 -2.2865157227829584 1.3820386545281038 0.1849872729100943
P 1.9370777394831276 3.4553298279044484 10.2953440615585 -0.32669336653405023 -0.13620521841038477 -0.5801758561020653
P 4.137378042443305 6.2822209061262155 3.8364067325035096 0.7957803396773844 0.000679542565527862 -2.3096795624939315
P 7.088074303555887 4.145416276008937 10.42382380043567 -1.1158803692646333 0.8664111146210691 -0.6230981093868883
P 6.393181301292108 7.930149820303392 10.00805959665373 -0.7307604831625737 -0.7852786688151121 0.18364284306705791
P 2.422548812893732 8.783531663311956 5.795740274275715 0.11341495998874661 -0.660353908414553 -0.5421073313651179
P 6.962785279134838 4.097150461326063 1.6183813507487208 0.8337619611274802 0.20350204388483017 -0.3669149330582584
Ni 5.613026582634552 3.3374418044900334 13.595168207426497 -1.0194406036776444 -2.288295697501517 -0.9917657634701951
Ni 1.5030222302612963 1.3627036207701928 6.964555875316622 1.7502005726195857 -0.868026538737305 -1.3836183403103977
Ni 7.03426456560974 0.7398442973076431 8.96789669761315 -0.5057915276532193 0.22211425966937876 -0.12771569288213488
Ni 2.925206958752708 1.811151482503081 9.20976104637708 0.9041857622666816 -0.26332801490352714 -0.7979194975075742
Ni 6.476067050573054 1.9986526113267646 2.2939962474383915 0.17921668897490425 0.4024568347186101 0.692681159792349
Ni 4.11483821649936 6.872962798283098 10.433483335697836 0.6468427613019957 1.2911321600545183 -0.6946580810130617
Ni 8.498907189174885 7.058406576273448 -0.025936275483398396 -0.21039697123245055 0.8898410635092352 1.09365626775911
Ni 7.798233577268776 4.210140897358473 8.189663690287082 0.0601077639251739 0.22600408164208818 -1.6208530005609827
Ni 2.8631860241177733 8.444423805380655 12.34698347049808 1.486348052671156 1.0824151476276518 -0.9779041749967546
Ni 0.17431769751026613 5.0880470905661435 9.982837931968636 0.10303515941631933 -0.12172399407507423 0.6545059342742082
Ni 8.750987286191762 2.4999361555227617 5.535022945087749 0.3139211544700464 -0.0016336789486810575 0.5971304816785329
Ni 3.984378505028165 3.010177368833801 11.214288031565568 0.23331141393677884 -1.1887125227350108 0.6340178416231855
Ni 1.2884569243247899 3.5731268180961493 12.483564255864554 -0.6101469485428589 -0.8906720440509628 -0.500404552309693
Ni 3.2411923781146967 8.429822076457356 7.827340539899297 0.018075369444472095 -0.20526170688841425 1.0372321233331105
Ni 5.847928710525329 7.916531250185404 3.3767144471010084 -0.17941440680800713 -0.06796274119321843 1.0065796885545761
Ni 2.982503269128795 8.233763824698572 3.374290232380139 1.39617946480486 0.1612181955149546 0.2399286621429803
Ni 3.703905145846843 4.266636115374678 9.10838189790182 -0.37482236083079323 1.1618853752398377 0.3747565405898643
Ni 7.323732007195189 6.323468059337854 11.293750021340246 0.6522389926169025 0.057713809771700604 -0.15182184190171918
Ni 8.048429286575477 8.988110624716755 2.4632597804235856 -0.23147898871373038 -0.41102606444485984 -0.17758712379128125
Ni 5.012935578504959 0.15701501286904773 1.53221749511785 -0.8617209082342514 1.3330110596764913 -1.5556860769453467
Ni 6.2071367040318455 5.7794080037886255 0.287448324705656 -0.06493809543428172 0.5576676476972201 0.1254443803494549
Ni 7.865361475697957 9.040491141066296 11.055750032880518 -0.5048055095908661 -0.010475702720343249 0.34513434684805716
Ni 0.3666253804932401 4.898415784330957 5.6559614917953045 -0.38330622993208824 -0.037243200622174566 0.6647327542085391
Ni 7.421010108987192 6.119926876671993 2.47928799994681 0.7041827326740453 0.44534129278696205 -0.6485880261278766
P 8.470049657574599 1.6582611849551971 3.5799133448494653 0.04174237404410876 1.6940183690010628 -1.5591038443776437
P 1.7781610425915877 3.1886388986420005 1.4977359310183038 0.04602454635923041 0.7483267741811112 -0.43610049091498443
P 4.8543739111820035 1.1219025400475595 8.176606795153237 0.7827250491553229 0.18375879981963192 0.13728662440002162
P 8.914410127607637 1.327446453613125 12.25898074376839 -0.8796206713328077 3.1927686519913143 -0.9162825455302155
P 6.606909101579647 7.752188973220119 1.2097514206308635 0.09651689868182732 -0.14361205239741717 -0.4488845300535302
P 1.9612106468245647 3.243195109014401 5.927777591496541 -0.06437296695943108 0.31047099113791693 -0.227037408002609
P 7.101137571015322 3.995348008365182 5.995741174910235 -0.5689205949032202 0.9807943520603559 -0.7480506377015891
P 2.579945254965951 8.601483424528832 10.03903729201102 1.222607375710243 0.18828445560412735 0.7123035620089667
