# total energy = -381158.2107303432 ev
CRYSTAL
PRIMVEC
9.38235227172596 0.00000000000000 0.00000000000000

0.00000000000000 9.38235227172596 0.00000000000000

0.00000000000000 0.00000000000000 13.73202093237809

PRIMCOORD
 96 1
Ni 8.745431147802927 3.3979314090542516 4.847252426565692 1.0093173992007134 2.2620514190930074 -1.460392509147659
Ni 3.2334118646024144 5.4519722296224264 0.8819364082520947 -1.2613983804355116 -2.3018132723719775 -0.4036079176039178
Ni 1.2499357143406142 1.5855330673772705 12.391377529309347 -0.04628422777852029 0.1901420776381564 0.19791349405345915
Ni 5.482840168102411 4.405483438686068 6.2392669755537575 -3.043013977031269 2.0204841929053394 -0.7979302961408516
Ni 7.221249280948643 3.4023223498471493 6.366123882119164 1.030711034385141 -1.2872662493412088 -2.4520268892463126
Ni 6.718345824880041 5.494868343522271 0.8983855479916419 1.9109539126829802 0.5539207790602783 -0.3987572743798358
Ni 0.04388689028388447 5.476413256899132 6.885454898517434 1.6302902347144825 -1.2782409059141469 -3.2889333095400457
Ni 8.812120906683091 6.860150694845544 8.342696497689909 -1.1705505071140034 1.4649377053161803 1.7464189940899664
Ni 8.268235336547445 3.6650094445470374 2.3050299986428815 -1.334586374583411 -0.400299164945659 0.9437637816696198
Ni 0.3969363565018846 5.424951055512287 2.4551476325880994 -1.1992429899526893 2.631255405295759 -0.5920145006082063
Ni 4.205188985594662 7.810498523592109 9.930709320732912 -0.7787400963656459 -0.8586078165265664 1.17495454971897
Ni 8.273789689003417 7.617306511056737 6.028769214530137 0.9240539619455184 0.044097504539846635 -0.04768959276647916
Ni 4.183543899250185 1.0066700885323885 8.389262049504504 0.8209545249501669 2.2569423800012163 1.0726321000989592
Ni 4.168832371123554 4.204626044467367 2.7312993408176616 -0.758829473484648 -0.6190614774236693 0.9042433549774943
Ni 7.077361528812151 0.8809653348075115 0.4032384824219472 -0.45306720067631 -0.017202479921215534 3.3622483161841124
Ni 2.310526180515701 7.09395890971522 12.936208840538848 0.43458919647678057 0.6888214197266267 0.33856672093286855
Ni 1.501054368874599 2.9613705648373148 8.342106347741462 -2.62332432337414 0.3576931573496743 0.7351989785499016
Ni 6.087645350563451 6.791162259695594 5.945607798265335 -0.08538170800061425 0.3895704656742452 0.5637107685675066
Ni 1.8007454603419835 6.743302881523434 7.932178248256831 0.7680952150572901 -0.5321684749848513 -0.851574563828869
Ni 1.2675463892728125 3.610573037537653 3.3130014194145323 1.4567525984022267 -2.170584681240578 0.7522672468860979
Ni 1.9494838885253298 7.005727270363918 10.106533661256035 0.4428527220371535 0.2869991332682219 0.3441416439174847
Ni 0.6877001399255894 5.006441856777262 9.529967482210516 0.06879192196273314 0.050848450110435005 -0.8304336680851956
Ni 9.170020110712734 3.3240735331532045 10.917712122748053 -0.166447562234694 -0.8518697264717846 0.9329684908263286
Ni 9.076290413018187 4.636692742018068 13.224183250676807 -0.5920147577185224 0.6759939289446552 -1.7410556728955242
P 7.043603825878721 1.0276584102283544 5.437468051477681 1.0228627419853158 -0.5940518427532092 0.11204379067283285
Ni 2.380978262596616 0.7485071640255242 10.127983594676383 0.1731725396633534 0.17736523758846226 -0.5188663585593064
P 6.942424540599643 5.988473888638392 7.896227889632587 -0.8209023315559927 -0.5578375976161811 -0.6123964066986679
Ni 1.7336522603205928 2.885748806737411 5.766336381572744 -1.1332332587207838 1.256214779352043 0.2840608765755043
P 2.707971998737787 1.2814979468775964 3.134676682051008 0.5993912526882517 -0.6414318746990696 0.37576364169813997
P 5.286317420563878 4.627366684009222 11.205287782920847 0.04883373367325138 -0.3260001971217676 -0.8194979950092984
P 3.850658045976664 8.70853973926089 11.98287742381762 -0.876940039176851 -0.017231790497254193 -1.8955236941708384
Ni 4.7319142336999445 7.950436305485417 -0.00656201707383034 -0.4167385414486048 -0.18173765562454508 -0.6399617179114462
Ni 2.3738758220405827 8.192970107828161 3.4188746954600338 1.3189630662238574 1.3079587446935539 -0.6378349013764305
Ni 1.225832451740285 8.691632740737811 6.7859803866188475 -0.5378881510774478 0.6258522750932577 -0.43587526227805573
Ni 3.102696934844616 1.1857416611247904 6.173311854844714 0.7126501467151082 -2.4514265366581522 0.2536634952305696
Ni 9.203862254815258 0.1275793476787678 13.605768202637371 0.6901493945094308 -0.8536743837806912 0.3626944672190076
Ni 7.044082325836921 9.281229130409775 12.187800191210599 1.6256018280998776 -3.3574768629373986 -1.4194710883429489
Ni 6.513519695713914 7.426872910045105 9.642844684114774 0.08466668421146063 -0.7694743547930039 -1.1830892630109626
Ni 8.394925237245086 3.888271895632063 7.980596814615437 0.9497359400926547 1.2247920420663874 3.388583354534216
Ni 1.4945523988543468 6.794802612318766 5.262989140248791 -0.37639690440676465 -0.44464529516120194 0.00809151875888284
Ni 8.020381740551768 7.224655074768775 2.1526455884250906 -0.20359640337084933 -0.014667629314503772 -0.5741656453522433
Ni 5.939197775295874 2.90967380464743 7.938577012403746 -2.0442748675670344 -1.9826707216019914 1.1355639637364896
Ni 7.020241769095996 4.035293353377161 12.21075974508731 -0.7709833352383625 -2.504133637243881 2.7135438190830303
Ni 0.6743659410904054 1.0284089983980804 2.2839919504806714 -0.0733178348575447 0.00036072577352841103 0.145267328612653
Ni 2.533178778712824 5.805855786944034 3.2369940466424323 -0.07593033277972729 1.3673998215690062 -0.7276430205795146
Ni 2.6800595011760975 2.5463891305000024 1.393415334159817 -0.6330148542799678 0.3407200198304455 -0.6472505382633756
Ni 7.964828833639916 9.120537585623541 8.033616486454463 -0.299390050733407 0.035581753759351624 -0.25840769478377434
Ni 3.193959073931187 4.69486332517184 5.100676325015948 -1.6609179869026685 -0.9671006566233474 1.5116595348527513
Ni 5.004921915733567 5.094720407889172 13.202555052566149 -0.9202533572525056 0.3020130901785508 -0.29806233306091895
Ni 2.660272120551694 3.74610111393382 12.803488902132669 0.07785686037847882 -0.7338563484790781 3.389835224663446
Ni 5.089109761320469 0.40083847674924805 4.424992163452461 0.39581670369427313 0.03368479384695489 0.5895912358786943
Ni 6.459974612156079 2.6955122351203338 4.307652714879182 -0.7704729712608472 0.5724430062341819 -1.1566364681360723
Ni 0.10606092308793295 1.3196935023645326 4.9139900354416755 0.05847691318997025 -1.563346935924714 -1.4098669895942817
Ni 0.4705474765421343 8.61614233556761 9.292307811794933 1.0080763277047606 1.57304410860782 -0.24131397252628123
Ni 8.822084964636204 1.9644581225113655 6.947894451886523 0.6844119778050213 -1.822471711380171 -1.0211017934301512
Ni 5.91577942440042 1.6557224435987814 12.479042474592505 -0.9088525716147314 2.623824917159643 -1.5768097462978394
P 3.1530614010332365 7.427154380608753 1.2548304874424403 -1.8554448238720822 1.4493617052547942 2.508526109884621
Ni 4.695257383960946 8.833981787126362 2.2828932770472345 0.08644897292286402 0.5256517569122561 -0.022931411985192763
P 7.76477832170367 1.523431278684558 11.064617239326843 0.2041651313901258 1.0883148009415387 -0.9533087450455776
Ni 6.342507563593945 6.988210418952935 12.178668347890671 0.5187802266034033 -0.6895932648956447 0.10172235414216674
P 4.741090174074846 5.825324167596305 4.494531342671947 1.3053773571196228 1.451936407960506 -0.49991141472335837
P 2.2974753287145884 4.641599712177653 7.231144847731269 -0.5100436180613538 1.8203238117992324 -0.9090906557674666
P 8.89967701668164 5.983989124324278 4.4903984165623925 -0.03555964227216457 0.14177474207836227 0.5937312261889968
Ni 4.452629758096989 2.5947645380388495 10.303684088151503 1.1596729409695512 1.2525573851051137 -0.7459593023901991
Ni 7.622945304681803 0.9541664460600485 2.8148304217560534 -0.10688127263528689 -0.013956205069775964 0.6620395236470921
Ni 5.688435650142509 0.17281729666815923 10.099887203013111 0.5267776429865831 1.443728418228417 0.34409433561931707
Ni 9.28317127729894 6.878859104975966 13.337650602529514 -0.8993790849066576 1.1378242205255757 -0.8861435600529901
Ni 2.283476859349197 9.375399798654035 0.7637985215132689 0.5438901342971536 0.5017633803304326 -0.8277057276310713
Ni 0.767274682974313 7.7036053858709925 1.5963199576114466 1.2829827914745067 0.619310874430314 0.13738664031299566
Ni 3.760043289186482 7.849829343685758 5.464822299088136 0.1464765184294058 0.5468111645986905 -1.2527131939566878
Ni 8.471250671754108 7.288304951561548 10.832339286088196 2.0200666457519465 1.78454356887583 0.9298530851257987
Ni 6.84769093122809 5.5575049262859135 3.6375163381251827 0.04332951602557054 -1.105584900875896 0.0821097221175618
Ni 3.861935633226799 2.4999371051460795 4.580178144013755 0.3664179388171818 0.352058070551084 -1.236541726403148
Ni 3.656039915918811 3.2548411568480944 8.082873835092737 1.6973744299574895 0.5143170486257271 -0.6395171741748599
Ni 0.22341163048375848 8.566763016351754 3.9772466172713936 -1.5022706374386838 -0.8804647645006578 -0.02496104082071185
Ni 5.1330191692494465 1.8881983644671947 2.3812419066912316 -0.4275849972448056 -1.2510388915780584 0.7894934782274081
Ni 7.72841232488044 5.265873275290963 10.6846929636918 0.29978085841392244 1.5878433784041814 -2.008823982958592
Ni 4.029391853892689 6.264530835111525 7.057421215848166 -0.4034089142192343 -1.955467935934955 0.9431418318149047
Ni 3.9323595682513495 8.424404587611079 7.7741503532379115 -1.4405284232338802 -1.8340329338552093 -0.7948585991940633
Ni 4.97244021268867 6.482567316064833 2.2656597726703236 0.19888382838652846 0.08218531255050363 0.6807736097214856
Ni 2.138885430803587 3.2166737484175227 10.8361982475158 -0.1077374499879951 -0.7901938467285423 -2.633447013630439
Ni 1.2328879805357102 8.654037655786654 11.524213634472675 -0.6249115084465431 0.7287167132596676 1.4550106760104553
Ni 3.7071174408686716 1.456103519860128 12.063621007940691 -1.458672698243075 -0.22925755558237937 1.6111375730454318
Ni 4.341373826639338 5.1861889587224175 9.469258034572647 0.04172129099818621 0.3808233156092345 -1.4531641097200199
Ni 7.055481883664636 3.3379312672367725 9.72525082103379 -0.5810551733832251 -1.466563156734745 2.107177934849158
Ni 8.838710492595638 2.5034554871916703 0.42610327454222824 0.4137743166139584 -1.3511751321800278 -0.8352750553378969
Ni 4.7895500227827865 2.914665215976109 0.37683279061098335 -0.1956825478404114 0.3477576434035172 -1.2333471307252502
Ni 6.972007096838974 7.946157952917979 4.036225020942833 -0.7088945363274178 1.414686522470112 0.27098450300752036
P 0.823570672174194 5.758803291054329 11.507282241834078 -0.6152590729584436 0.122147454765738 1.6226458307953473
Ni 8.962454334727106 1.6447450916165376 9.08268823892989 -0.20550210503399446 -0.5593792310716883 2.529019344741967
P 0.9488841818156012 4.01290706121508 0.9304140834290664 2.238204437272081 -1.335781680443093 1.3336350664137353
Ni 3.0535052626711923 5.446549230096155 11.428021069346215 0.844008578556153 0.20149966874282071 -0.05375765333743
P 1.9574870348850342 0.9521117109454234 7.934498503936497 -0.35266536511777974 -0.9954470689765242 0.9408167832261538
P 6.007097857599721 3.826160724587229 1.9493290797153238 2.346140119313811 -0.35237585890181894 -0.16936293610927605
P 6.686004857116968 8.010567800232598 0.6516765989547978 1.5666335770957858 0.13660811027575825 -0.047036789673828676
Ni 5.87506001619278 9.382352121576123 6.966611306133855 0.26853064215038913 -0.0368963588057171 -0.816642270728058
