# total energy = -340864.7980628302 ev
CRYSTAL
PRIMVEC
9.25951657728062 0.00000000000000 0.00000000000000
0.00000000000000 9.25951657728062 0.00000000000000
0.00000000000000 0.00000000000000 13.55223847712897
PRIMCOORD
 96 1
Ni 7.136179604544959 0.6317416132323739 3.3825976153818296 1.2468148261943819 0.4032487344922862 0.6363806854284072
Ni 5.992129323548617 5.456114442069131 8.418664284476472 0.09895481869935861 -2.327262051462385 2.1327205592049525
Ni 5.355343125818073 6.727455294093986 0.39431835494023243 -0.9550653227253681 1.712297112705593 0.715428995011826
Ni 5.461559037672882 2.933840712017154 2.76891205899863 0.6733369509377823 0.2830671452036673 -0.9803557218610406
Ni 3.2605257077585463 1.7015564998845125 7.31547069334746 0.2625651685955736 -1.0213902712048473 -0.24559717328266736
Ni 1.9846013951489008 7.759206161004799 6.992222830068843 -1.040792329880543 0.3626682419667625 -0.0928564191111046
Ni 0.6522005145699382 7.48506892045267 4.526298812612422 0.6426899154758867 0.3928208542907428 1.425146284350855
Ni 9.064436842808105 6.11850320246017 12.59165513998712 -1.4495298554015423 -2.676499621845539 -2.5516836191087022
Ni 4.8482549733625975 4.526921978061628 4.861242370971137 1.7474088688070615 1.6793628238714173 1.3838955052311843
Ni 3.860579404196436 2.7334092214749877 10.34534462710812 2.1083264466313043 0.40878354826758634 1.701006627393438
Ni 4.915617954684517 2.1554394714910874 12.914415952706625 1.6732788224608666 1.2224011732367075 -0.0867536486474764
Ni 7.867486945001847 1.6810744497561159 7.320932882032243 -3.310655017487853 -0.9814510118077483 -0.5858600509710362
Ni 1.8376158328802898 0.5004527830513118 10.776564006538266 1.0161562764994176 0.09077331132983077 -0.6697158092454272
Ni 0.3463466527226931 7.7897903434524 10.579093709319364 -0.9498133302978092 0.2355313044062331 0.26472849479547955
Ni 3.5131438323529927 3.505393617182347 1.3266581285492918 0.11075695354060924 0.5636320928107713 0.025869668677910285
Ni 7.448882730623658 7.197829464289474 4.625243226290998 -0.4804273378568178 0.6803421786110219 0.4720869363119225
Ni 8.635036032385743 5.840328812786892 3.088107957929965 0.08083445494956401 0.7256966954864212 -1.7436594290669583
Ni 2.84908835902203 0.1260562775013348 4.4826198221668205 -1.0245596700717645 1.5134047996786324 0.932488980086749
Ni 3.9396001165814885 8.172754679465218 3.003067633976888 1.9322873840534338 -0.3709263682104967 -0.304614789467456
Ni 3.3053602858424957 5.064723946193364 9.229710875785845 -0.35674801982758564 -1.6832775855447912 0.23141136870058854
Ni 2.9387112176082644 6.803568518350505 4.850129099468379 0.37125881184925097 -0.6947696668902614 -0.9930122342827867
Ni 6.294322898589463 7.83577310156163 2.4440372987003216 0.6263310145018891 -0.7485900551448269 0.17159208255011094
Ni 7.320036560851217 8.663916463828087 6.952230053075373 0.3829650445425856 1.297813685839752 -0.28531197537378605
Ni 0.49611747750424334 4.008296468255347 5.9862273078380195 -0.41954027256345805 -1.6399002470004207 0.4695346022037139
P 2.0689463294253767 0.3268118511151532 8.567345264185638 2.566809933227179 -1.171341378446415 -0.7029928261310021
P 7.19638497974154 5.916006839775765 1.067719458106001 0.5635814420784939 -1.14610625802871 0.6424952829665773
P 1.9552765069225753 2.2498402405051032 5.646472504792725 0.6403237292365553 1.17449895023879 -1.6112293614282895
P 1.0220561533102561 4.288082013770551 9.368133237349781 -0.7758131525268381 2.9405339187874717 0.5337856988733001
P 6.9840272321625845 8.495717349640781 0.381668003726211 0.7645473498050317 -0.431494873822173 -1.0509407311684547
P 1.5698861776305344 6.9840272321625845 12.966009051761967 2.247114595277517 0.9516007612155355 0.7779039736175958
P 5.297045210986073 0.4437984323684029 7.460507127427993 -0.0034676468336262856 0.8062300742557986 -0.16574385129945002
P 0.16031741388473456 8.252516153156904 2.6877338793080097 -0.25601862572630746 0.9325596854236843 -0.38087628033435694
Ni 1.5296906172293727 5.31161043017774 1.2216181752687625 -0.7055143070012753 -1.1641322622924852 -0.11448299624194476
Ni 1.8137633188067142 3.701686103923703 11.671486074646037 -0.4912887060513539 -0.18190092067528674 0.06699292108078139
Ni 2.2938970192170887 2.631878624884631 3.153497736321341 0.6979586061412044 -1.0278311417341846 0.6423744411179969
Ni 0.694996147157381 0.7400038781967558 6.4909126158051045 1.6216484998790845 -0.41729621372428777 0.563749592225242
Ni 1.9851291875798767 7.2047463229901565 2.3044769425790714 -0.4943069240523874 0.43564489143480456 0.909841417890562
Ni 5.794957182755634 0.7050001286034567 1.2495689512712842 -0.14218817546669704 1.3483248072154261 0.44356543183346187
Ni 5.56035807694503 0.516220813414624 5.135687953417153 0.1979885702657687 -0.6532250106792556 0.5822962448791777
Ni 3.2664888362769404 5.364454489889656 13.298526616841459 -0.06993863397266664 1.0699316704486606 -2.9977031689096116
Ni 1.5385241958109688 9.178708533872545 13.068978577190455 -0.05617911829472906 -0.19347525577644745 0.513649076024425
Ni 1.405807548211372 2.544857690387944 1.051935686564923 -1.1310642760939231 -0.10081758293971023 -0.4403957758562286
Ni 3.5191254799040523 7.8742741704738695 11.814448377067999 -0.19448749909104568 0.12530811188190677 0.13344436783579597
Ni 2.6996212463761995 4.4567533632908365 4.379961416487116 -1.8880466690675033 0.44403465816039656 0.7329700892193828
Ni 6.574321412980323 5.960795120278049 12.29631175512936 1.2672712942765207 -1.6513187732500079 -1.1244783953462893
Ni 5.523866323077033 2.7245293453117267 6.888142162680404 0.12838392259375309 -1.264107037615926 -1.6723295711737198
Ni 3.318462501453563 1.0561219138990317 0.7758576513894161 -0.2125276444222082 0.05366997871963015 0.676453642189893
Ni 8.879348370829568 7.366028578476781 0.8139096337595091 0.2204013907433301 0.9896464031343472 1.1760300421713359
Ni 8.745946519021338 6.842014030164747 6.827306214421553 1.0827923284614125 -0.591204346002085 -0.3168211017256608
Ni 7.644499272672711 4.380714215164981 4.6612655226809165 0.3582958239306797 -0.7735878627407451 -1.042189724448702
Ni 6.7664656364045355 5.600970315581172 6.293550654927297 -0.797525347392949 1.1797522282179296 -0.2276968959634788
Ni 5.256970024297239 9.075918643060913 12.533232221684624 -0.31785082854175584 -0.5327194623923147 0.17798744455349347
Ni 8.543931651186242 2.245099368142654 5.162969266388805 -0.1555568834641192 -1.4350586583685607 -0.8525634101046994
Ni 0.7136929625367925 1.0657981084669224 3.5596849392970973 -1.0752582248678966 -1.2199478266002086 0.329158283134775
Ni 0.08991916310888753 0.4964035965589303 8.871796309308447 -2.07134292742842 -1.0098349622670801 1.3872723921232173
Ni 8.46592948559781 5.449808711446419 10.023709771574698 -0.4102236231482225 -0.16443284579751036 0.8781505145451843
P 3.8142355249502224 5.742631655958361 1.788990408809647 0.30523751065311944 -0.026708876749754 0.8601515068646025
P 4.289841321873803 1.0876042694309251 2.7864079151096637 -1.4425464821051737 -0.08850611256220886 1.0598701724476005
P 8.095271046791428 7.410196471384761 8.879440040041265 -0.510773811359159 -0.2145001947675467 -0.10739292216438279
P 6.743076098147605 2.816735608954843 0.8247645647565793 -0.14073010286393184 -0.21020568115725086 -0.45018576536345695
P 8.908052871461589 0.5065270257657006 11.165784071785598 -0.5613990897151944 -0.11680213129342465 -0.713525607341526
P 5.787503272107641 1.8696630189084906 10.654864331471565 -1.1469326105847475 -4.815056328116294 1.6120947947523785
P 3.0736964467094245 1.620461655840888 12.192975552854088 -2.074439306965556 0.18023176050297995 -0.4421693228168836
P 6.46154050404548 2.510060428008869 4.6309220876579715 -0.28401331116702055 0.1618969667495341 0.4684794214663222
Ni 5.671027816155969 7.254127323593566 10.627610797048913 -1.0255839975712209 -0.3448317280059739 -1.384514626872422
Ni 4.02797294046278 8.239312082866174 6.149354984929792 2.3187046488106775 0.3056879679269768 1.3004881473481216
Ni 6.323045918254148 3.635341669398404 11.277155682334572 1.192241876044508 3.4916575947185864 1.2520884158884953
Ni 8.547376191262085 2.6198782917171797 10.116542904473553 -0.12390737487963821 -0.13724702941133782 1.9308290543403523
Ni 7.408085301660857 8.149985528802594 11.747255770846603 1.2289569720773545 -0.5301594149746225 0.5987993847405235
Ni 6.390038518922751 2.719473649393958 8.964656294804668 0.28830936743921315 1.1505879479491474 -0.7066345366486476
Ni 6.857421865342709 0.16487494782379275 9.585715204043764 0.5206118804955033 0.22360498528229233 -0.37334011985831184
Ni 0.23518523319447712 2.6969452461559884 8.086620806633224 1.0643287224395865 2.705744120532953 -1.9695850920626272
Ni 3.747613304934936 4.079020654006112 7.146054878714008 -0.7818357045718342 1.146801998544154 -0.8386097761380847
Ni 4.16295816956394 2.438549183369806 4.79223397359686 -1.7120340888521937 -1.6563517076882248 0.11054123798537736
Ni 2.0204542423899277 2.5904145107458603 9.365369271724408 0.6275337765607386 -2.4410140830755767 -0.4796531786949546
Ni 0.07387612511048794 1.8376806494946203 12.7291024744812 0.9514148704569743 1.892766957361308 0.03530356039730049
Ni 5.784299479456455 7.64299923102678 8.084262407823232 -1.0048135977930888 0.6096864639666726 1.3807258492539514
Ni 2.1643656452360127 6.389834809563427 10.910364943500445 -1.1738345771819139 -2.656378168505315 0.9117599750695136
Ni 5.348241076790732 4.449901321204483 0.2166374960280254 1.4794410411386778 -1.2208137741449296 0.29389123240236475
Ni 6.0330934238054095 5.358796925410248 3.169664851838602 0.387452648000294 0.9889452633022645 -2.1775922229066627
Ni 8.738205563367025 4.2401547572314096 0.664501782018209 -0.9366608520762514 -0.223144500706106 -0.27203299887669274
Ni 8.786716169435138 0.5745428029890899 1.4002712833959252 -0.40396452961238816 -0.13912779137381845 -0.9337254235970112
Ni 4.437725057226707 9.227932122698293 9.932015559184793 -0.3941830247455921 1.6299624190614188 -0.1394916024711404
Ni 1.113910555332722 6.504949116614163 8.792719113873764 -0.9619499656603433 -1.4237766576968383 -0.7579861516477462
Ni 3.5276627539629954 7.968647160938886 0.7042538115870242 -1.3019575328047963 -0.003051128121497971 -0.7616736278016625
Ni 3.2843504432831234 7.334055468579243 9.091247772350044 0.5629049848367595 2.109495784349057 -0.00503267732790101
Ni 8.286674508909007 2.6286192751354465 2.399857368421109 -0.3113942742831347 0.3540208507044097 1.099852369267493
Ni 7.162272921571099 1.1055492120841044 12.44202505985383 -0.3010460982795912 1.4548870059483976 0.48827871558043656
P 8.533246169338064 9.062649756155853 5.322261651815486 -0.8191732646800278 0.03263166999209219 -1.9104777443775098
P 7.2979433548808945 3.865644359630538 7.322544963825803 1.412221348759071 -0.0006736290282569043 0.21289351240205914
P 5.2886005320904586 6.997490568910636 4.444659509008423 -0.6492475140887464 -0.04024470645265972 0.33553461897476405
P 1.3387501309284386 5.783605015731486 5.854079194541263 0.7825121618135684 2.493430906114396 0.30957290480367977
P 8.530866473640508 3.8878579393131885 12.017094743916998 0.12522557947042948 0.5102081686636762 -0.40830995106527745
P 4.296767440090821 5.604035215487365 11.09181535151178 0.5393261690755551 0.027293288498314285 0.9089495022039119
P 4.222607973780546 6.31019370958407 7.456130154057426 -0.8123014772608591 -0.9207596074649627 -0.558101135690213
P 0.5681583664775486 4.104326912143955 2.875012226899278 0.9929469282624899 -1.009868900828809 -0.27061657814514034
