# total energy = -381169.46534360765 ev
CRYSTAL
PRIMVEC
9.23542460373463 0.00000000000000 0.00000000000000

0.00000000000000 9.23542460373463 0.00000000000000

0.00000000000000 0.00000000000000 13.51697743858618

PRIMCOORD
 96 1
Ni 3.9480885535701526 2.7597018374811633 11.038098992866873 -0.801552209164155 1.348374429506439 -0.3024002983146405
Ni 5.421101816774374 1.2748118183929038 7.244140438479239 1.0447739402361105 -0.8357419676719866 0.21596032425284098
Ni 1.6962981209090437 3.5625834648364503 12.366736712226615 1.1841166758342123 -0.2803790568485429 1.0784466498982073
Ni 4.844368028713373 3.2955411659352243 8.404153159931735 -2.076136492162321 1.3257952586543424 0.48762179872272793
Ni 5.385804024403615 8.800768464317457 2.9347251374696404 -0.7954059870571012 -0.19242110348032024 0.7333141028223628
Ni 8.492563878499311 2.0261413062888574 10.825544774867854 -0.10954185018658555 -0.5304242386002349 -0.6013416915464032
Ni 5.4212588189905695 6.411065437864475 1.5904887861595551 -0.3305369086498565 -0.33351013234556753 1.5955294341945296
Ni 8.361781032407652 5.8540585164973375 8.994318025817117 -0.5937780202665323 -0.7394556969437265 2.478444717118209
Ni 6.834685123435991 8.60088617225039 10.91667624948787 1.778211713120531 1.6175771580231884 -0.8728617553424193
Ni 2.2706306986046854 4.438415710176202 1.656897952983316 2.4461259503808455 -0.8641210330353117 0.8018918518917609
Ni 2.1551878925778714 8.472135119544804 8.081287337748181 -0.4573061784583221 -0.9839892048485699 -0.48501058635212607
Ni 3.170391928777675 5.749347273718776 6.845524741150683 -0.41679510571815315 0.1137764570932234 1.0374241847392585
Ni 6.94300741718707 3.1931110730037524 7.80587866780858 0.5203411433326199 0.5538392750900656 -1.047346586059293
Ni 6.328325269928937 5.598043314427793 7.962350770639771 -0.9727588833503893 -0.8270069017918338 -1.4654413844254761
Ni 2.651518075097315 7.78942483555119 10.522642246244905 -1.448779350388763 0.13395576025457573 0.9020879991973884
Ni 8.014593719850371 6.802407314870893 6.852012626849391 -1.0634028681912073 0.22099171602916134 -2.005633501045752
Ni 1.5672884763179582 4.208222754958735 8.611206759109187 1.665229984014461 0.25451015950158107 -0.5282858521009934
Ni 0.8498770083751311 0.7660590664025266 9.363548449528384 -0.5896974224392554 -1.147213889270592 -0.11258449366765126
Ni 6.434975951848749 2.872364780738852 5.156294490597825 0.4566639168886329 0.4441323600805254 1.8772943156470054
Ni 1.618120252667685 7.100166635599734 2.1874657011429686 -0.25696016370397035 -0.6028504148814456 -1.8492296962003054
Ni 1.8557015474708687 0.6353667274707944 11.986247382529166 -1.0786024587497813 1.789954455478756 -0.30324439148249066
Ni 4.459444771722047 0.8126573241696381 4.967503019791367 0.1314281087367156 0.39163557573339003 -0.7816377296284152
Ni 8.636581087873882 0.7053056735316312 5.451694160371479 0.5000697946780936 0.3413460834502186 -0.31804160439632323
Ni 9.106174716517515 2.077370205891316 13.07874360976249 1.4630492300442157 -0.5234385513110211 0.3237605091579715
P 8.922288179653524 0.19941682667316707 11.918027148964455 1.6707748250920902 -1.185579633532984 -0.5990423539892651
Ni 2.8736115630439416 8.297871894991209 3.655625748781822 0.2072064893196109 2.0201700040990302 1.1345326942584977
P 5.353590863809893 0.03471411354348714 9.660921729513872 -1.8077955974252349 1.0261211010216136 -1.3545173091793834
Ni 6.588477942166484 8.026054881632714 8.46938665721892 0.8349624091934846 -0.0013966232372104978 0.3450865243292573
P 3.4532822160902628 6.406447725623402 2.9263172070210954 2.0154934245589677 -0.5058768882781739 -1.9276920513732674
P 8.675656168857838 4.497781018747432 7.20468393446417 0.41321998677238514 -0.40907819668986967 -0.8947454427893882
P 7.552517726735203 2.1023335582665545 1.0489041001351516 -0.38346306722492673 0.19825827898738757 1.444396647940035
Ni 1.8466693023273306 1.652983980087783 0.8790674145358472 -0.8724994869069941 0.5608828122004083 0.8707012573559908
Ni 5.72219512574127 0.9233087919751154 1.105278054716614 -0.40537066593129545 1.6038793488211218 -0.3401170961391239
Ni 0.009654712753634526 8.015046255649997 10.277984769203503 0.310858970604955 -1.1418706226808077 0.8778967466631655
Ni 1.5114141582009801 3.8215632381647646 5.859677348752275 1.2994008278212137 -0.6484705267134058 2.0241832390234817
Ni 0.46173982366401756 6.049304625474368 11.9598756279204 -0.26835375025289265 -0.06905083205107462 -1.282991533225255
Ni 5.136955511732214 0.7998182370545598 11.740670980751789 0.46996423354196476 -0.8835963681511042 -0.5804818173782583
Ni 7.701900717733901 0.9517659054319492 7.931613430878296 0.43192887603579805 -0.6110175240732703 -0.2722317451510602
Ni 5.357488212941358 6.76214086412874 4.182125292457089 -0.9989041742871895 0.05304108688637962 -1.0059927057028544
Ni 7.74744983127984 7.620471980074827 13.4973235241941 1.3860470043565485 -4.608885222039733 0.837784709133628
Ni 8.835392070701019 3.8252389371086584 4.779779164055044 -1.152540700800144 -1.8187754934755063 0.10104384001790338
Ni 1.5010797182054598 3.1813359067890175 3.462049404551163 0.25258106079966824 -0.3595631206788776 0.0988468323665846
Ni 3.5430413066322313 6.44746224574861 13.487929250410861 -0.6193964921655849 -0.6248783412157626 0.801528040794439
Ni 3.919837390079271 1.7714929470426695 13.303625272360277 -0.90109966714219 1.3362010273686986 0.9180422085337996
Ni 9.106082362272693 5.507850158935163 2.9063529899180423 -0.3126327746759261 0.41919008831289095 -0.18935763406364808
Ni 0.8200059514300809 6.2991136222919115 7.637024631374176 2.387083137385076 0.39494689949481016 -0.7665309558939637
Ni 3.1947826848350203 1.3729659097891422 7.7356986771687595 -0.74432150967646 -0.34988034617347485 -0.5640306138007706
Ni 8.221744290984887 4.327516732994604 12.807781796711042 1.0242447099345071 1.2265640463651455 -1.8384542028513566
Ni 0.18523583238083322 9.134296584065646 0.8945579920197494 1.3045504903429532 -0.09479580222566254 -0.7677337179528133
Ni 5.346507293232087 5.401624306541529 9.923651085181938 0.4789924051825041 -1.3851993116442725 1.3873528676521654
Ni 9.237456275531208 3.5750882295852753 1.4896785866822517 -0.2366772450852182 -0.6496511772850683 0.1103769444933712
Ni 9.03554219007807 2.7700547483256477 8.690010789130437 -0.7475816684849705 0.6760201541969003 -0.38014762969844856
Ni 0.24770978483275222 8.46410030024534 3.395234802592636 -0.1495479582658779 -0.06066363642864391 1.000917348062476
Ni 3.749887108758836 3.143572256081526 4.688985705971075 0.8354884569002837 -1.6871545520016942 -1.2734571113722584
Ni 4.865572563324379 7.355978658330672 11.13169078456893 -0.13566194431240505 0.5647821472548145 0.8567802763995244
Ni 7.587870931652855 9.064172005972718 2.1637435898181305 -1.546855108917278 -1.0849991063047444 0.09965852963460256
P 1.4976349048736195 0.9862786867217256 3.0714352789939383 1.2751926060061263 -0.21067670725639845 -1.2822112034158046
Ni 4.321800005240156 7.239815489194251 8.758379713029308 -0.26851033043541495 0.2759801564498989 -0.7806411700431007
P 2.4318996809119033 6.19831819949378 9.1356652739739 0.34503998736203806 -0.527413219688053 -0.5106815087556689
Ni 8.698393783932879 1.6632630075364105 3.033723346663547 -0.43836357591754826 0.8695013235106188 0.32348128735465576
P 3.5564419075558242 3.159032356664637 6.715558306583248 -0.34375777821550474 1.3615973559546164 0.4848930869376552
P 7.234532826390464 4.227349319061258 10.600297389460575 0.3447167996946644 0.5508848204474319 0.4467083483378178
P 3.9294699378141487 4.042936363001783 12.82784113868626 -0.1640268686083433 0.631073671393197 0.3187797681139284
Ni 3.4888478357710038 8.21142832183833 5.8654624186478905 -0.9331680084316445 -0.43761229957382053 1.4534595294732515
Ni 0.8911168728577021 5.588124468533969 0.6018809253834325 -2.0415926927491808 1.287516160568486 -1.4703287944247645
Ni 3.7028972689936817 1.7999288190231943 2.2814490748430702 -0.25098491995714195 0.5154604182015509 1.2207147866732202
Ni 0.9142479170156828 7.956235072547695 5.765112143309798 0.3823932311995157 1.889058141051153 0.6335414162073993
Ni 0.8553859390787307 1.5588842400392062 7.112998334375227 -0.05754977339001057 -0.2580510827753039 -0.08654050419540579
Ni 7.166162978949144 3.853166860742665 2.9865487984087493 0.5320188367808645 0.002259999678770301 -0.6489713776092243
Ni 5.597729309995399 5.701831014758139 12.744158033911095 1.0260979610931618 -0.4680734442771552 -0.6846228082642467
Ni 5.801508951193932 2.1160204573490935 3.2564559259843375 -0.7339252540438005 -1.602134598215873 -1.4298652870930795
Ni 3.2262939531681 5.449389921963185 11.18686690459506 -0.4029029211170932 -0.3195079045292045 -0.021824552074259186
Ni 7.17316343070661 5.324840987396975 4.785401690479774 0.4626859547129967 1.6509210235909568 0.3315643214731064
Ni 7.282113733322476 8.011970859297442 4.819910777599757 0.7682014016178512 -0.9533169725756937 -0.7245972917746553
Ni 5.407636567879407 8.081014892725959 0.11452480483328897 -0.20555481264880082 0.17182888115126538 -1.1962867355378428
Ni 1.6702357530204301 7.673464845753376 12.903211437885046 -0.8279736365804772 0.46151481722303095 0.8450820141259898
Ni 7.4199616791429746 6.610642960923632 11.171160218178276 0.23018752359581646 -3.2842503022420795 0.8228386293467572
Ni 6.144835856317678 2.3592630673598323 10.089855478332414 0.6596345137500252 -0.5765488008724393 -0.17988311891430955
Ni 3.214721966291972 0.7614053360059736 10.018445329151572 1.2556524790906698 -0.4266583716654781 -0.7451789725807489
Ni 2.8973558393875365 5.1647818456969175 4.450302625027171 -0.6778754622380841 1.007825388036219 0.2574489304149308
Ni 1.919749216254545 1.1944820962472056 5.1440344645977785 0.8702574849503528 -0.19459060032781325 -0.09305285139262684
Ni 5.462873641707116 7.335586841074096 6.60935554275082 0.30670586766852986 -0.0001681501467480975 -1.2540648228885758
Ni 7.172507715568377 0.23808462543746053 12.905550770906373 -1.0133728002170095 3.5948079395565316 1.269637223405536
Ni 3.461353977087658 8.854056863579435 1.333553735811588 -0.6510585991555562 -0.2496199212888153 0.09245224169415045
Ni 5.706836614827462 3.8107116143982442 0.6151513068218267 -1.1793778755976463 -1.4345585788036908 0.7584394371350809
Ni 6.93754004589364 2.544026969549628 12.518411012039332 -2.9859282877618702 -0.060573904928315034 -0.9306624684009713
Ni 4.677964150394083 4.308667231626545 2.720358929187225 -0.39798645765208235 0.30939781267839617 0.7334156613972337
Ni 0.3357021386712864 4.124300452689482 10.63963198587248 -0.9740385213937612 0.8238830114508715 -0.4214405749099645
P 8.83569683970893 8.285367130242383 8.179271497333948 0.8576724491964907 0.26723043528172685 -0.3952616025217515
Ni 5.0654640908159285 5.091018510358024 5.673980668689783 -0.25534114004330866 -1.5882434420560776 0.8632455724088939
P 7.340924916424775 6.883577460644467 2.797095147666921 -0.4333496676427247 0.047329381213583 0.009852467314047549
Ni 0.6433350517139891 5.894602029973955 5.06750142545669 -0.09431012083849566 -0.1722430858705485 0.060515026665921595
P 6.537341396808846 0.5949100269843094 5.452410829311294 -0.9048737894726416 1.3092401825091389 0.7773056779119646
P 1.769876747758294 2.441144340818531 10.087449650254815 0.6891672331018196 2.055548126488008 0.9219407722572573
P 3.5194263262313865 8.806910021598085 12.705120818167515 0.8725467952051618 -0.8557924585649583 -0.539829848184851
Ni 7.373433610601928 5.210765024193519 1.094446748883954 1.1188008853455378 1.9621661738907368 1.0403089624862212
