# total energy = -381167.0207376443 ev
CRYSTAL
PRIMVEC
9.33829888344886 0.00000000000000 0.00000000000000
0.00000000000000 9.33829888344886 0.00000000000000
0.00000000000000 0.00000000000000 13.66754434564258
PRIMCOORD
 96 1
Ni 3.801892190325877 0.35080812999588845 10.232767584171702 0.47484084490797573 0.7550769484207511 0.5663960287091536
Ni 7.643808328657758 9.263788363244245 3.7523562513168582 -0.2888986642837799 0.9075703624681983 1.5386628029144729
Ni 5.665751232407655 7.3677495440209135 6.533864688146764 -0.06700269127279428 0.024761008994763807 0.10732581637187322
Ni 3.1078698347947817 8.331630053886476 3.108805532319327 -0.9087751814095768 -0.07614193456990112 1.1850229896985658
Ni 1.984621920199757 6.687454487502611 8.300613828756484 2.3741903405828078 -2.1750159775390543 0.15079185797530806
Ni 8.993071085434147 3.3123132070989025 6.429458773940899 -0.8298618547421256 -0.6036142896306637 0.26199695479692947
Ni 7.567822592557697 1.3167187859875598 12.600668766426722 0.9372717461873729 -1.3534029930692821 1.0730823002625003
Ni 3.4035763997873496 1.814216646468172 8.46513037136054 -1.355126403518292 0.053540395120301336 0.6329585471207357
Ni 3.2197893440929537 0.5515834185910129 1.435365605631865 0.17864410430088587 1.5196880615841828 0.3126703127820809
Ni 5.46447354334526 0.09837430710901937 0.45640747876898763 0.32944573246820685 -0.7996146258218099 -1.572672584201014
Ni 6.827491614030387 2.208535645185287 10.686734965503927 -1.246433531595563 -0.10788194598565937 -0.884868035774676
Ni 6.776187001257408 7.791642934556745 8.774276615767539 0.045685674962572934 0.47516377546503324 -0.403770154213395
Ni 5.37702971480391 5.367420605494956 13.504148226806134 1.318997776116535 -0.08088973366753166 1.065491632399436
Ni 4.616350583522264 3.103228700366647 2.2042605720641606 -1.306305268250531 1.0614056352555203 0.4998083134865908
Ni 7.140371310236917 5.0791566645249695 9.34910586118341 1.3509270207249637 -0.7029709717541313 -0.6917681610597763
Ni 6.456275566168814 3.8495828815220188 6.921080043082225 0.8550882334090822 -0.20417207336866128 -0.0743835571178977
Ni 5.397069703702856 5.50588889784984 7.944177506165351 -2.2497186085592675 0.9364636484637807 0.5360816939963284
Ni 1.4989650224050093 6.253737206788918 4.433805521548074 1.2400042310304515 -1.3107725599932654 -1.0557335245714077
Ni 0.04198779221171235 0.7367712190826322 5.366096434746646 -1.78914661486548 0.4742410065404477 0.425506517449222
Ni 3.412064913258525 5.0673623933323455 9.903612167251296 -0.2981574638778865 -0.18121932122722983 -0.7340486669955423
Ni 7.695122279729385 6.265783612045042 6.931563217144647 0.20600964079803233 -1.7516864131364929 1.394624204502598
Ni 9.017714855566636 3.2605696942894595 10.997152152356936 0.20501153855082113 -1.0394586986707839 -0.26613668799691587
Ni 8.390993618392816 6.685605504370275 10.729103760300482 -0.32911585993261383 -1.5968890335462174 -1.2113523716217138
Ni 5.181821919862816 3.2221892868455306 9.113285805421478 0.03158908766019076 1.0802865313204233 -0.9602494380294688
P 5.300577063771441 7.6248609207006455 12.541543328535909 -1.2147644826270565 0.35867017655096295 -0.0730650954167903
Ni 4.73134239307568 7.4085765857106605 1.367082098256805 -0.5323278833808509 -1.0605993373041411 0.43225977701265555
P 1.0461135677612403 8.021607877066282 10.122552314376819 1.7382480282433999 0.3141355844736977 1.0942712756352895
Ni 3.7053995503944606 6.166442791025938 12.201494786242428 -1.2762290176904407 -0.4724654026972638 -0.5990711503446714
P 4.344979624806795 7.94167204063805 8.27487747768216 -0.049604293290688765 -0.13386551453361462 0.7071055627477951
P 7.929364163019778 0.6068045138170298 9.331761839104185 -2.0835986048673214 -0.21845378009865604 0.641388937276276
P 7.19424395513814 3.729679126879671 1.5259947278421022 -0.9495981289632097 0.7354067236853334 0.7530354925106901
Ni 3.485762766189787 7.066813531785377 5.832569665628483 -0.9373241966918631 -0.5492938218112282 -0.634498637914346
Ni 6.668927302984666 9.02408357524468 10.98165337809059 -0.7742085270438795 -0.4923667696068811 -0.11962057457882626
Ni 3.211917158332557 3.986351603522939 4.57601660400114 -1.2176554310216061 -0.1469881679585017 0.03956850632124153
Ni 1.013037313949465 5.04346568709171 10.130698112287606 -0.6902200998463661 0.8793321935581114 -0.9011688298172286
Ni 6.29869177648115 5.4492801314447075 2.9950510473367915 -0.43027514248245896 -1.182624664669718 -0.16447681166156836
Ni 0.3084066511540627 7.206514479561819 5.999983882303064 -0.5279086712672327 0.8873380945817234 0.49958976971788155
Ni 1.5052030059019788 4.961092554716309 6.419317381609 0.6586400110472399 -0.3353638977248547 0.8282297184553413
Ni 2.620802853904162 1.1211561356978372 12.540176201613818 0.47293257214166945 0.11530754902576915 -0.6282662838513889
Ni 3.614024298122236 1.7228787473905394 4.130372448254019 -1.4591293261645193 -1.4568179044225233 -0.7791105923311873
Ni 5.9062964672855545 2.360236306724612 0.43444380034852026 0.474259518483209 0.6356227242164602 -1.1571182928684975
Ni 0.3596356237079921 7.7861333383543325 3.232073875964606 -0.755150481971164 -0.099807396507641 -0.49836566750279326
Ni 8.961022044473669 8.565442375439053 11.687240282667563 0.5336417170962681 2.746708221650141 1.054826953596738
Ni 5.741288730172605 1.102572921388003 2.521251921165475 -0.025878667538974783 -0.5192900763602863 1.2398301673464325
Ni 4.5862532469792505 3.756498720597181 11.285659822921641 0.7719595831087027 -0.4539974258000633 -0.2886235562455223
Ni 8.07292182813791 1.1009387191245752 1.6231167691024038 -0.518493805711236 -0.24953970287018312 -1.1231997857441818
Ni 1.9598567521848425 8.510234353831143 7.071655439634447 -0.6072649990093735 1.7789257084684202 -0.41247205286276706
Ni 1.5611767679990372 2.491738228287972 0.4004729375262514 -0.7970468650946337 0.5844408020260063 -1.154125785899077
Ni 5.145103729578261 4.948271070672388 5.35890687861743 0.08041459380332602 1.9912088409799904 -0.10299427887605488
Ni 0.5821411332573799 3.6494444648946986 4.382990235624257 0.9990026475382666 0.2266417152260871 -0.0014369895568426864
Ni 0.6429175823491861 0.711080625671685 3.056909805241919 0.9274678727230737 1.5929842991751726 0.05219879349074237
Ni 7.673102571517029 8.774144011926733 6.720003127440766 -1.260619850398274 -1.1200057042869163 -1.3422909423165206
Ni 6.950701126394183 7.682683665930039 2.2815368610373965 0.6827970679094176 0.1901024826494726 -0.9551326856281938
Ni 7.990670093644935 2.734328550569818 8.53204675181351 -0.5790900792370544 -0.600587844099514 0.43052479659941983
Ni 6.868356008914726 1.7069102567021894 6.358346695905312 0.4327212900301064 -0.9640343589931978 -1.264770639341854
Ni 2.344958850136226 2.696797928302871 10.563644983362828 0.43113234827643165 0.0821842841092391 -0.09649581563590479
P 0.45741041204379973 1.274668427174905 11.821687503624549 0.5308173602735955 0.784670602917468 0.26420347552994494
Ni 7.680293061476111 2.6744700562351253 3.496403757499363 -1.8774416398581475 -1.374635162975181 1.3437186759019826
P 1.6740114305647291 8.910753982850636 4.913249649252202 1.3589108102613885 -1.1803464101585026 -0.7851220886325898
Ni 5.557016082948505 6.589551764475324 10.281109154783621 -0.6006384948317913 -0.100755105132891 1.4892770533924933
P 9.04790557509613 4.670932939120747 8.236226259577435 0.026229880230806444 1.122676052030228 -0.23915861674617522
P 8.89963206916068 5.106106994423552 12.138761029753969 -0.5606367576278732 0.3214992239276205 -1.2637697088811655
P 4.883229820587968 1.616982440720429 11.874362044809214 0.13164356718163134 -0.13354798329319578 0.3804350790318803
Ni 0.9564285475443318 0.1408644997880026 0.7197671110742014 -0.8611976887409297 -0.6953561355213509 -1.0137049867454477
Ni 7.552956021109829 5.912244963524431 0.9018013681123377 0.7229438153316323 -1.5317316230122782 0.8660478177443794
Ni 8.753338282538639 5.47983504462148 3.127981728593319 0.45092572885327503 0.5397272611687156 -0.5990536668431747
Ni 5.269816708024409 7.438505832878007 3.817221941386692 -0.5869728244192407 0.21451047918019187 0.8644192810020209
Ni 7.656601797805735 4.557706068011832 4.902082911728734 -0.6919249983526149 -0.32967430353924515 0.8995924864690442
Ni 1.2660305009253587 3.1239970765601504 8.272131084049738 0.8335465026825645 0.3210521090878729 0.08265325332585766
Ni 9.282343562658134 0.4313565588154392 7.788736856017439 0.7362181638430353 0.8975733991564865 -0.964736270156229
Ni 7.4944422417804715 6.882596914353167 4.764300984324489 0.0472789875916218 1.1317785285521282 -1.0712871560352903
Ni 7.3064716282917015 7.108630433131828 12.713071065765003 0.023018829492676484 0.37486966912896086 -0.18754063545956734
Ni 9.260660033197112 7.29071791847226 8.600343332806679 -2.3601459466745998 0.018571592354600274 -1.9372889510330829
Ni 3.236346147596138 8.297246438263958 13.345399951277043 0.42819357736308195 0.24022125368273464 -1.0743645094090337
Ni 5.722565441383048 1.0789937173014041 8.317821511675445 0.9774596312601683 -1.0542970492351973 0.6504225082334539
Ni 3.259691894216533 7.407129149420196 10.238644175510986 -0.8179591897672688 0.5522079101342297 -0.2273127731511827
Ni 1.8501690962635797 4.202598585318332 12.203941420488245 0.6358191564979824 0.5817403723757077 -0.39897967480328705
Ni 5.507597806502454 2.8461266619855636 4.503551406491435 1.2319332810968588 0.22613957877868796 0.050291549165700486
Ni 1.7719048152933683 7.20605690292806 1.0983267969926855 0.48829902729541075 -1.138984045161632 2.1007391212023494
Ni 1.7081055589291536 4.6885729852671165 2.3985037207548987 1.4075851355386404 0.7391849597808431 -0.2148915166686944
Ni 4.288809758438125 2.46609526020013 6.560366779710236 0.6189108107784179 1.898893124863704 -1.0745059200829044
Ni 3.825256613543568 3.4924116348272753 13.280452084179107 -0.7836118226356504 -0.8730718144706964 2.0774428696785705
Ni 9.2500704025301 3.2606630772759413 2.2081695838782793 1.341527838898251 -0.10314365996972559 -2.5804560632557045
Ni 4.000835304726232 0.17332909503832356 6.799740058107791 0.9272876383914676 -0.3847280499802793 -1.0106530872930013
Ni 6.7016487014478106 4.558705265967185 11.593986164707328 1.309956748960189 0.49282622574180285 0.432240750849262
Ni 8.447509001811467 3.289649156279823 13.466535427511083 -0.23087117992640238 0.013699608974279631 -0.03473328971612728
Ni 1.3051766488584366 1.0359534988320445 9.390409156104214 0.35896559630419467 -1.5161183419550535 2.0040003363177035
Ni 1.7736417388419257 2.117561939754933 5.947896720103369 1.0973090340203489 0.19093217763961956 0.524042246333291
P 3.2751094252846413 5.3821844556576925 0.6189919273827407 -0.738825005338263 0.4123265284238383 1.0134064816684225
Ni 3.5770633120728266 5.93886845297033 3.2630443434312215 0.6339548495957339 -0.27164939028502894 -0.7926934732219445
P 5.756818320824491 8.9824160866766 5.184919433524411 0.8844003521096383 1.9646370040287324 -0.0609513428723918
Ni 0.621783144848675 5.092454401799946 0.18650636826073913 0.5377161442759578 0.4881966973895914 3.279821319936448
P 2.0151021269873444 2.5081176041168405 2.369077807884688 1.504696730381673 -0.9956774398197755 2.3003495433422576
P 8.254122175106765 8.38002111748123 0.6542953654221015 0.5027455417380439 0.4145183938688345 0.11386464593165552
P 3.360601549408527 4.427894378503789 7.821484401716799 -0.1715108356902143 -0.7072048073298207 -0.5527229020974352
Ni 1.1640656179861226 7.0133424337260255 12.626815068811698 0.13745014656107943 0.08109387925853775 -2.0250031638216157
