# total energy = -381174.33910463855 ev
CRYSTAL
PRIMVEC
9.18080849430116 0.00000000000000 0.00000000000000
0.00000000000000 9.18080849430116 0.00000000000000
0.00000000000000 0.00000000000000 13.43704124175564
PRIMCOORD
 96 1
Ni 8.401514052567984 3.7945475579724026 7.810320471137316 0.3199059112985716 -0.8236351571061236 0.10515349131090278
Ni 0.26991669185131956 0.4324785160493243 2.30570224874406 0.9872359939206418 1.394456311466166 -0.8599753862980544
Ni 1.9509401958425008 7.481413411504204 3.728805623522897 1.120950841809005 -1.3804193737571258 -0.2959776826177483
Ni 1.9019605817926577 7.657684937231848 8.088225384579031 0.8160388328161042 -1.2883836507751036 -0.25160224182616664
Ni 6.3094281048225245 7.47459207069089 12.413044514064213 -0.43204174746457846 0.445507128940865 1.3234095320309853
Ni 0.49792666462261786 3.862311106482598 9.782636343716884 -1.197994205147253 0.44772830496189986 1.3466975560246484
Ni 4.44453044747583 7.926104239195347 3.4683552634516692 0.8033676651063391 0.6425819291431127 -0.10098701863803898
Ni 6.583943463717436 6.834937590898066 10.217593678096751 0.813628937823031 -1.0681735501069731 -0.6802259647481318
Ni 8.536637194008582 7.64098504633088 12.241453364576982 1.5065204138539732 -0.30803487089259857 -0.11989311151392254
Ni 8.229814569538899 2.4609616577564517 1.9674114846085407 -0.3601480466480701 -0.9867541691882166 0.21687023766162006
Ni 8.068645474010316 1.7096685450027866 6.667580630351751 0.12734673957849035 0.5950062362466785 -1.4275237834440964
Ni 5.929884295181557 2.8561495653057474 6.799317889568997 0.6436720768834978 0.8284392633629861 2.376324099096359
Ni 5.069963854698231 3.2608304289801677 0.012117749312912427 1.7270495884244192 0.7181553928040535 -1.9903266954853527
Ni 5.297142964288366 0.8902676034152395 4.589219991510606 -0.16834812169151653 0.45904964351199007 -0.6204874112369185
Ni 3.0200545418065623 4.315264661942224 0.08248130282759038 -0.08501789690329228 0.04533060561599935 1.922403035060186
Ni 3.9319199975277543 3.9911545748191486 7.512703443482587 -1.024664313970429 -0.582208570261378 -0.3355680433158608
Ni 9.0771664830055 6.343801052339415 4.972444387332 -0.8162856587195877 0.6094674059773311 0.6926598196361103
Ni 2.364039861032142 2.747788481026404 9.38589412526625 0.8560889067594547 -0.486052397353079 -0.9740534337920966
Ni 6.987182940436687 2.080756829894006 8.823473198087166 -0.8960055404487344 -0.2227117840440616 0.8225023290532608
Ni 4.4219272966247125 8.001754102320128 0.5511230240769769 0.9189845178424109 0.22363969517496968 -0.18925196172371925
Ni 8.688395960689727 5.212798875389413 11.650828993281475 0.028003170081145324 0.5685881512644659 -0.4976041067464204
Ni 5.430384039959475 8.752211761488313 9.5867380852965 0.16475809034741304 1.5814670425641923 -0.14060411880902882
Ni 6.339890027862333 2.6010516166667714 11.25157398750836 0.012802036860674727 -0.1806575351864889 0.06633163334769866
Ni 3.742492373030957 6.212405319203266 2.183707663646719 -1.5043655722944995 -0.8966598862032815 -0.29636360520225735
P 4.601072415454063 8.472325629543887 11.715608778986384 -0.9217309702392964 -0.22267758837201648 -0.7166006467224239
Ni 7.280592403495532 4.387701242045928 9.899216087883278 -0.7457852387061801 0.4628080821131578 -0.8267654752049891
P 4.901009433450009 5.445917968164223 0.4834127242568452 0.6991102032471443 0.32960514086420656 0.6554127623591938
Ni 6.04247773224009 7.265343080358364 7.69078450659153 0.5133217745919934 0.021551758028846756 0.4830097538720132
P 8.267593597058132 2.235398370485488 4.473325135668132 0.40834877472301284 -1.160076347055557 -1.017122754177745
P 4.234464365175088 2.432620501510554 10.844673204306806 -0.3802828697247322 0.2657561647290455 -0.3490449947563731
P 5.609547520406089 5.00411909519205 8.277365649765658 1.6894577462135743 1.020501440841991 1.3385363603700948
Ni 3.8472086762835365 6.981325584529697 9.807132577307847 -0.04023236515748555 0.5447077451024426 0.14011072411237804
Ni 4.100277666214919 5.964147072994868 12.02404263537092 -0.42664988702504586 1.4186719894804212 0.21619737996431154
Ni 7.27050269480935 8.544321530833273 5.771827493779102 0.5841757212900778 -0.7500149605168115 -0.7837154380930502
Ni 3.082236158668716 1.9497466907203866 12.592819436365694 0.2964911319190571 0.8294463644712617 -0.6180965424072387
Ni 2.0778189711318786 2.290529126318535 1.4089272881707084 -0.545620486724699 -0.7423093643424377 -0.10622178467441705
Ni 0.6930317011772259 8.562517893541198 9.959253067849078 -0.46609600883581015 -0.576774029509368 0.16856795101180644
Ni 0.23889290332325402 0.25926052727256554 4.638735764784537 -0.14639038647350272 -0.33774036837683125 0.6499954479983644
Ni 1.0217321926161256 3.521776552717504 12.609561558986368 -2.0592001214182987 -2.072751634850488 0.4949666691235734
Ni 4.802095401252632 8.109628603741994 5.743770942600785 -0.05094640914088001 -0.23843330854437647 1.0195897276609989
Ni 0.5794963131530855 4.06307702963948 1.6089917975481327 0.6663222101828461 1.6288049084182077 -1.9287287201678975
Ni 4.875174637960551 3.309442810684745 4.9803316200274494 -1.7251197183915579 0.05179590162536886 -2.13633090226403
Ni 5.931821445802835 0.7004323510151975 7.083564905613456 -0.47344962098740395 -1.67654078104159 0.6788756213678243
Ni 2.719502409632296 4.0595699607421905 5.228312605815171 0.6203115477806865 -2.2539449879357893 -0.42333496371920004
Ni 3.1229989489932337 0.5183998678711932 10.262889951723578 1.035143873345514 -0.6808592274567564 0.878161570288778
Ni 7.33644844321048 0.3240834627780438 3.3407438596334864 -0.3124797940378296 0.2413648803688746 0.10133591733702547
Ni 3.849375347120606 6.411408527102872 7.264252400292925 0.9527539009833722 0.8914055797828776 1.1848432695875917
Ni 1.461346033133967 1.8645396058100596 6.101263367989397 -0.515886449995376 -0.713019871349701 -0.18797592322477305
Ni 7.776640674672114 3.3772522632380984 13.002071424657812 0.7180654041934085 -0.9857362694466636 0.017504584542666627
Ni 6.398849180894778 0.9331924741725105 13.290792248748474 -1.0351477300002558 -0.12394722697863816 -0.049080302466418695
Ni 6.326256527044335 5.153711191036125 12.166851031717071 0.4133878798088171 -0.8297381846800677 0.05679901126691509
Ni 2.476431320300779 7.904538519719605 12.458865011863907 1.2552135917810383 -0.4907683147715096 -2.091300087276637
Ni 1.4476207242296528 5.109377066153897 3.6226662949324115 0.2635750979173267 1.5305550862056738 -0.7023816749095645
Ni 0.43202131177946823 3.9804864751891733 5.650315819215786 -2.9678369774777984 0.4213408161073066 -1.242028717659648
Ni 8.02521106837399 4.872034801408528 3.0056783135702645 0.7294605334042276 0.5501841948359815 2.1371611114748097
Ni 5.687244703855727 5.2175086302174485 6.181455895225118 -0.4848789458702682 1.6337450260323028 -0.7860862523180719
P 3.9559553545254094 9.023871888898782 7.866366553590939 0.7577110436094886 -1.3794750075659856 -0.13385497301065333
Ni 0.9560251452394196 8.233743955633244 0.5378980692430877 -0.9511518466035749 -0.4720565972946193 1.0447243179450973
P 8.846636378264815 1.904411857697308 11.31142276089721 0.0658714058818285 1.4891999202976547 -0.40397301425282045
Ni 6.049308253862037 2.740159229053505 2.9847837112054965 0.16896364378832837 -1.1112541833465313 0.11556800177600741
P 6.617857370802745 6.788464337604664 4.605210205904347 0.13419461573825922 -0.34810088567554887 0.2379363143032999
P 2.997653368745341 2.254834142358687 3.6460874558326095 1.089641233062446 -1.8030174593103014 1.1817715726408033
P 7.815245974968195 8.199361827307722 8.717361411922576 0.10055044532125264 -0.33917350127893203 0.7597761536686335
Ni 0.04889882293388451 1.7061798377227604 8.837314185180238 0.30401340843803126 0.06986150087782807 1.5782827312989398
Ni 2.778773710158217 8.992840755723812 1.9381852984105519 -0.12261282443793077 0.5936039565825132 0.5040313504290029
Ni 2.0392228516444297 0.708668454438649 8.174638827743557 0.8614571130499036 1.4281616741384116 -0.2834980620934988
Ni 9.18282840954714 6.20201264383224 8.929841128812578 0.04823646640888467 0.5915504164875941 1.3131752558974867
Ni 2.59742519725727 4.159200096012836 11.258857122995847 0.5506811890770581 0.5689337075293427 -0.8804552514189611
Ni 6.66668091110585 4.273739864501279 1.381408732378206 -1.31405303051675 0.47307861080123037 -0.887579006947936
Ni 6.135470142870055 6.624724615659217 2.143087175855992 1.1685884982916261 1.5980208331578156 -1.512206922715789
Ni 3.789213508157415 1.7551319093467086 6.339542075215194 -0.32258114413788963 -0.8219256306141846 0.18789287659266352
Ni 1.8470868886012966 5.723958757573688 6.58557489341128 -1.6308242528410817 1.335556194695848 -0.05652390322865749
Ni 1.2764170048666774 5.84077536660278 13.075813515748937 -0.05465393989945425 0.48356691192706397 -0.5458462295822598
Ni 3.7639571036117507 6.049418423565616 4.928330601856931 -0.3523671171510706 0.4600500597520464 -0.8342936652612342
Ni 7.877767281749719 5.786103651201315 7.092110402287794 -0.15396099973190905 1.0167635710661134 -1.286336795548404
Ni 8.691287915408695 0.9004968603926219 13.290457149233418 0.5437294403495733 0.3489400937473926 0.40166390650366957
Ni 9.13776900078301 7.478723434575131 2.8892463804228394 -2.333337311122188 -1.313815460584647 -1.3769697246456285
Ni 1.4501913506465143 0.7238461672684897 11.860876713964954 -2.073941027172899 -0.08955126599727158 0.0813892990117695
Ni 4.451774105486201 1.852870798039235 8.651035578044098 0.920984321881259 0.3681930284397336 0.8019558723604769
Ni 2.4206854502894113 5.254635820323834 9.057184453018717 -1.0510872840486478 0.24350995173633547 -0.047160973956518776
Ni 7.075768562923461 3.814010872271497 5.136308968274836 2.4751117960902342 0.4280241416647532 -0.8966264618621849
Ni 0.10332632882574756 9.070143164402289 7.249808234072752 -0.5987158238877818 -1.3423680754113592 -0.40048377015263925
Ni 7.615141070032791 0.21764575790703067 10.934325636756578 -0.5943356925422151 -0.2374891994635523 -0.7748929547054138
Ni 3.835833654388925 3.7314570410557164 2.462795065240192 0.4264609109426914 0.4293850265680218 -0.3839351217653388
Ni 8.317252590946717 5.866141940852024 0.8823537463747587 0.03199635040093844 1.037525229093497 -0.9918580660736853
Ni 7.591766731256615 8.230227705927325 1.0731897069156504 -0.11646248856581878 0.8185621134585902 -0.0782317272193943
Ni 4.263099307297199 1.5837629354283635 1.002995998360658 0.451983480693828 -2.2492051592579587 2.420333929018406
Ni 5.55702411422443 5.114325522006355 3.547513113554603 -0.023366956860714595 -0.9848440966496975 1.6791419661098628
P 5.464619275346891 0.17003959282848222 2.1828740462229654 0.6066916430044068 0.13431751446936865 -0.5999710364511216
Ni 4.6501713800161175 4.558041965397528 10.192493347297825 0.9404316319725933 -0.2964037144115734 -0.7709295991822916
P 1.3891481540546855 6.450023008207585 10.921318267087258 0.08065010685289982 0.20607083305327092 -1.020613540939823
Ni 2.7897906805161945 0.064548429327392 4.680215576263187 0.7866696356253678 2.5292700273001922 0.5801303475761106
P 1.5012641890643732 7.8557149794165 5.847114714962933 -0.6331212979508452 0.0007862433467212265 0.4310022504564706
P 1.5586626046294376 6.198156704206948 1.6843331855028905 -0.5192486815993896 0.6675383419781342 1.021541452070731
P 1.7369630890646768 3.6873248939633836 7.21319241500715 0.1467050895004441 -1.0481886223446142 2.75583538076239
Ni 1.0505782933367642 2.9184046286369543 3.532652138622554 -1.7243882395421721 -1.8062398229023406 0.7219274582519761
