# total energy = -340877.80123676395 ev
CRYSTAL
PRIMVEC
9.09640520966809 0.00000000000000 0.00000000000000
0.00000000000000 9.09640520966809 0.00000000000000
0.00000000000000 0.00000000000000 13.31350850307811
PRIMCOORD
 96 1
Ni 2.3441345741677684 3.708640865608698 5.956450874115619 0.8766289356943353 0.9701461283178905 -0.624891453841885
Ni 7.9548247116941155 1.1676055002371006 0.05837618162942678 0.08731774868106251 0.9917868465161176 0.44904419555984604
Ni 5.944355383860434 2.003492384894878 3.6416840447691365 -1.5727047229905302 0.6946593665646423 -0.7280248293989655
Ni 8.51766479557737 8.448686753458796 9.050310271388831 1.145252394668847 -0.23486641712872455 -0.3502613836619774
Ni 4.149234357373858 8.67370453374195 10.562139215703265 0.7327615727530026 -0.7586165861428935 0.6783886544290769
Ni 4.084759035926351 1.0181606559846887 8.792348039682649 0.19897638810033472 0.6934684315803348 -0.6347894296818873
Ni 0.6839996555565147 6.257671971323461 5.3969901048370135 -0.8580743126205996 -1.2836517925170732 -0.49558270544101746
Ni 6.331953217787956 8.474675183675433 11.476723651645342 1.8735055380285346 -0.5253943894858113 0.044754678507871314
Ni 8.30560939298365 2.455010659540746 3.499136095088043 0.6758854283912489 0.1441118748519712 -1.4397401230046303
Ni 9.1105957885109 3.427343625139918 1.3359171989215488 -1.840418782776895 -2.154962401322289 0.8816819247372105
Ni 4.90963017364946 4.59666834599688 5.895887006988431 0.40365136924734357 -0.8225257260920286 -0.6047136933424295
Ni 7.094877834763672 5.044002274160546 7.968454765539621 -0.7921280876367777 -1.2494779748488418 -0.38793447273271897
Ni 6.691461351852344 0.7527693899915172 9.613085770793774 -0.398087759116637 -1.9130771296735698 -0.009670690320544635
Ni 2.94094973220543 0.8089205908610597 11.934788609254777 -0.026419884754425468 1.3810284680960345 0.8465328876399033
Ni 3.7194382988138606 6.769881462772061 9.410759883411714 0.8435864034170697 -1.9619072638023953 0.46380438458815604
Ni 4.952610689145999 8.727882724281079 6.282258645468561 -0.5003999243240027 0.7952229245120176 -1.435972685542398
Ni 1.2632451065716224 7.136330154153669 3.1384336029951485 -0.43784729840276204 0.3315800052023902 -0.6425832146946933
Ni 0.12448703676715143 0.6059415815715614 11.334149322388598 -0.25207301081499817 -0.7961202395153063 -0.19219047552675286
Ni 3.738804545902142 0.5240311799013628 4.246676871257885 -0.48131359711651306 1.3110317271919227 1.093572192685736
Ni 2.4890948905599064 8.752861453498749 1.6495967329598802 0.09287390261260134 0.5791589848017767 0.19605458646784943
Ni 1.9475494917089062 1.5700304749602547 9.943806510701146 0.0013138337154170922 0.44240123632203165 -0.6878978794710927
Ni 8.457837737287266 8.038648087419112 4.209132367626052 -0.8364672758737851 0.957030416871539 1.0110001862197748
Ni 8.56518441736656 2.325013930025181 9.380352419453654 0.8815135174801463 0.3892485635584522 1.3297416448966004
Ni 7.563515544364987 4.613560370817425 10.58003275475792 -0.715639054140103 -1.3728245921290032 0.9443507645213415
P 1.50757455551068 0.18622524983097422 8.394300255236095 -0.9480755216710963 -0.6033162987742706 0.16900478143890893
P 1.435667470854565 0.24701015960928643 4.410445825087525 -1.5475940439658316 1.5810860050756899 -0.955769033660612
P 8.384520709794756 7.439222261032772 11.055125273628303 -0.24544573530646763 -0.33209756826875714 0.6878024915438089
P 1.4236693121371184 4.1826545507991035 0.06934553689657533 1.1280041491113606 0.2866998568602482 0.22333733344320245
P 7.559249330234219 1.8956817881403838 11.340606860579284 -1.5975436364110809 1.8025567176237989 -0.12678161110363972
P 8.495678783735013 6.695600216307566 7.154639398934924 0.25849176985714833 -0.1239117457550124 0.6496756027651005
P 8.4572919529635 7.523664192324704 2.1445803615098993 -0.011101252119484107 0.5096648945656964 -1.6962169193142789
P 6.221404603009239 4.951682855795597 3.904027105314077 -0.7601996143592973 -0.57726202488938 -1.0266335218816576
Ni 3.1756006058030444 4.365474106449781 9.941463276671113 0.15373062888865782 -0.6191216412376433 0.22580584958835306
Ni 5.554647183881018 3.157726169199722 11.906057612811217 0.5865156822771641 -0.7785565195999301 -0.737719173868594
Ni 1.6253821017954806 4.486556358677175 2.4517887127494498 1.4922543908532624 0.9056782876518079 -0.03472660484790793
Ni 6.972631242645579 6.086477621768991 5.51529431485644 0.74587291332398 1.6732438554578732 0.5764408145396653
Ni 0.42186308341406514 0.5959983008330921 2.1695963859896947 -0.44233490186047036 -0.3410249526653739 -0.19678246577280947
Ni 4.553123853365784 4.151935989776498 2.350873191285194 0.02300494553560554 0.6986723443787773 -1.2857153599143214
Ni 7.0913302366591955 8.29138261494416 7.196550177156882 -0.3862725116492638 -0.67258464615279 -0.4644911262425356
Ni 6.6841205526976974 6.751006421575168 9.726916368639403 -1.3951440815618101 0.7818603871621824 -0.5503382039153426
Ni 2.485674642130975 7.728642591520263 5.109923924066032 1.5306900691216414 0.3720131735167722 0.7650885670204823
Ni 6.153245237376314 1.3789786724261135 7.432146167275151 -0.2895959474611206 1.910226290488336 -0.9296317131436119
Ni 9.22129904218135 8.12072495330806 13.288146346242256 -1.6250917212326788 -1.3840942515055519 0.2469356895884328
Ni 1.3596579073648118 2.741128994869455 7.782038491195329 -0.23979805010238703 0.37143904618085705 3.246572842295963
Ni 5.286039428939787 6.522595682079274 7.215815454145268 -0.8323676518831148 -0.7769035573775394 0.8062557852874115
Ni 0.007137949314314173 5.812875940265306 0.952278120622406 -0.26793697443044817 0.20152280867127229 0.09028068796412837
Ni 8.55533301032259 1.0029969481894019 7.2082536123394965 0.1083596569530263 -0.7279163288455592 1.8956291094004514
Ni 8.548428838626956 5.488343484948897 3.2950937160077407 -0.8661303501558567 -0.6744106436179353 0.8066584200424689
Ni 6.786382342160574 4.831501147702417 1.5959434050121049 -0.09447929942650826 0.11950076117151033 0.4440853088926739
Ni 7.697532885065625 3.8215636421957964 5.399213266315819 -0.7165564237480497 -0.17609022753078063 -0.18766713373510263
Ni 2.054850689761219 5.492627891890456 8.169874650944228 0.03131320829098478 -0.07491963212702582 -0.3157769767318626
Ni 7.45343084626147 3.678950198395851 12.98879274106223 0.9741110265029095 0.03460164923426944 -0.7693452854143074
Ni 7.156360438835864 0.4103424859799134 2.419210846463882 0.20299296545889556 -0.04064605565613645 0.8537962540705362
Ni 0.49170619368580676 5.582282063474349 11.94076585724055 0.2971002262579657 0.33203663312383463 -1.5271128932933442
Ni 8.858943733227985 5.943927852806818 9.331331890774111 1.8849842280920956 1.0635149682890395 -0.38430201818645426
Ni 2.6078757522220886 5.916929721591213 0.5098607995753291 0.29007288709753914 -0.6111352805980571 0.16581764196017895
P 5.103019752370397 4.683147872097537 13.385535191334444 0.8916454637078257 0.5208702763632126 0.314904087208606
P 4.544373111374742 1.8731681847850536 5.872788504766133 0.3922192161510019 0.7213571875708028 1.5160185831523956
P 4.8991238254169724 8.827406495719732 12.914316831522259 -1.599768926197174 -0.027084257811301745 0.290826477434112
P 3.0992817645298243 5.799649766819387 6.265869651866421 0.5470227663888644 0.6346919848720747 2.290629744951332
P 5.122176782134569 4.864930437533059 9.020754230975847 0.6393852765826858 0.7482470699831113 -0.37609865644005547
P 3.2056824184479242 6.668938652091618 2.519328613174901 1.8408705256023328 0.17944526004594255 -1.0644562491563863
P 7.944836858569205 2.955613137703932 7.440720439001509 -0.8794918590644273 1.0817330339589628 -0.5711098892450551
P 3.9912752776707037 2.1731494419374084 10.695220536288645 0.6615697830995252 0.8282371746545091 -0.7415748001692584
Ni 2.623248677341486 1.0704286013906392 6.790462079980721 0.5900398933803387 -0.11931872706769128 -2.018851542397923
Ni 2.7223813033481075 2.240626577165626 0.49532019554967455 -0.3717797173497274 0.9713594318997012 1.4103948370732937
Ni 7.211302727428266 6.241134706313364 12.650296393822277 0.32888291798620134 -0.28682532669451893 -0.19835932334162612
Ni 3.929228696463953 3.085118661328108 4.243321207307266 -0.9560762804883857 0.09604587258267974 0.135557814634373
Ni 3.007981143569239 7.861495592330201 7.527484682591062 -0.5688537462210268 -0.2767499447363879 -0.2545757226321938
Ni 4.9497089358246456 6.815827406427727 0.6764405426723613 -0.6188614455977213 -0.33410431428614074 0.5215109952710051
Ni 7.426651028775372 1.124406671011055 5.06278089346024 -0.33919124189074484 -1.8961135052360378 1.9307272386551653
Ni 1.3461042633246334 7.953041816236481 10.36548493708567 1.942083544208249 -0.8101607767687725 -0.3057396471005186
Ni 4.079201132229338 3.2242754710775383 7.815921691655236 -0.19666650902023547 -0.1285988668180366 -0.42221704806467286
Ni 0.22649139795731946 4.686659084580429 7.044323652134345 -0.5285815289645412 -0.7726409254464435 -0.07723645318566054
Ni 6.0574873777716425 2.858727323830145 9.61204696129754 -0.9078981781212622 1.6156375177983142 -1.0757415922622184
Ni 1.0044705658635689 2.8073235369368232 11.808816129486445 -0.23013070221595203 0.6787102994345536 -0.14493797029769234
Ni 4.581550120228574 8.49577884419437 2.528807977238169 1.0537519753650046 -0.6203133475528995 -2.0359604341640676
Ni 5.108450306391864 6.231183238810038 11.514427342371608 -1.4153395826730786 -0.8889290932179271 0.12282648311063361
Ni 5.2030984045382125 1.7173012783230004 0.6668029011552008 0.3234859153403461 -0.6328060807032715 -0.48424182650690156
Ni 6.812143362242309 8.267359008293079 0.5938233503028862 -0.20614050994894176 -0.70946686389112 -0.6030129086012389
Ni 0.5951823532690627 2.182709764008702 5.733183242230675 -0.09245301302509884 -0.567030834079675 -2.617908808785524
Ni 3.444590409770911 3.939362092075201 12.216608893033833 -1.5791718187721124 0.4998376240626295 0.8749602897426608
Ni 0.6941121294353513 8.352155699395457 6.333781595272571 -0.48864355511902297 0.9860466015982308 1.184585645050831
Ni 2.3885705145276823 7.959491167662311 12.831386722807157 0.9320611485207109 -1.0358288152276807 -1.0112755513683485
Ni 2.671714325291869 5.588485811954484 4.2846197974460685 0.04574069657022445 -2.948195806208103 -1.7462834969533667
Ni 6.4572198164975525 7.024589910268062 2.7734439750390756 0.27765368749757985 -1.4218133633228804 0.7026837795310157
Ni 4.569551961511127 6.844772168398094 4.728212374070321 1.9617447700826018 0.46852647265417374 -0.9063655435268198
Ni 1.8181713177602754 2.2109268135473825 3.23803196495805 0.08928849925418816 -0.6487582331571538 0.4755085603989617
P 2.701586920612639 6.393017387211929 11.356862137022102 0.7272054188214637 -0.33617945164761454 -0.2693567375961103
P 5.992539043243538 8.638083010210849 4.134616433902337 0.478330346118473 0.6013440055392482 1.9473345081945432
P 6.998801600970137 2.4725121435228288 1.651540634793025 1.0747859132171684 0.8203778265110904 0.13329498674212528
P 5.166066938170717 8.232792667787924 8.452094266920172 0.4395164585750689 1.0301646749633675 1.1849304299847594
P 0.6321192170204378 3.830923843348376 4.362969866044237 1.1018912540743926 1.5730669914259552 -0.0444587445340073
P 1.227332498067847 0.8032125964750114 -0.01337080629171709 -0.5269925872108666 0.5599579863932937 0.4742389496579188
P 0.9857137779368251 4.187220946307942 9.82149533410474 -0.5148132715358553 -0.8703947818591656 -0.27342139458378717
P 3.8925792791230944 1.7696419949721192 2.323034552210991 -0.8618456067375738 -0.022121257379071578 1.36340021349131
