# total energy = -340859.3157653224 ev
CRYSTAL
PRIMVEC
9.34040093176152 0.00000000000000 0.00000000000000

0.00000000000000 9.34040093176152 0.00000000000000

0.00000000000000 0.00000000000000 13.67062090582567

PRIMCOORD
 96 1
Ni 3.0092156932684566 8.0700691621903 7.871174661822613 -0.5851928497006825 0.6753290416671466 -0.21427008103461165
Ni 6.7039607826102685 9.130727746005135 12.80194903525415 0.9521098396414698 0.6068819046383419 0.7566000699334969
Ni 7.624363903969895 3.1102041096287194 4.3942981635804745 1.4713302391060854 -0.019255505795502323 0.5514651184309342
Ni 8.2671703055527 7.094277462490278 6.749240244873462 -1.004437959621225 0.524276216720968 -0.15863835060292034
Ni 4.057787798099738 0.4685724281180365 5.394221723482899 0.7080257605692193 0.5607835676183826 -0.6379788831534626
Ni 3.4937489987335537 3.2014598280748685 2.2710867626139706 -0.20762815023806175 0.28010086348649177 -0.6217217978646518
Ni 8.977031446411338 9.266499815947123 5.531201507283137 -0.9821603791699471 0.5775073081309666 -0.02739381863192056
Ni 1.571615883904717 8.43671726576094 10.750809102977753 0.8771961210517151 -1.436252935786978 2.2306963018204935
Ni 2.2814863651644255 6.247364616743169 6.197754010504185 2.897725308262377 -1.1992974973397086 3.338198217213445
Ni 5.893596926246966 1.6200085018442771 8.634227518690171 3.314167658626802 -2.752279802200647 -1.1537100385178969
Ni 1.0704286433332246 3.173830921712155 1.851330072603929 -0.6527017911859339 -0.43225000682064263 -0.14785771504764858
Ni 6.9303534237257 5.52009296829153 4.856241709059695 1.3751858932723284 -0.3600922537094702 1.5240082862260915
Ni 5.521503368852978 8.701059956420558 7.920552692074975 -0.45745787354483797 -1.3036863425704452 0.2144279467687146
Ni 0.4764753414626922 8.642224770085624 1.5091958516394226 -0.6512650587394074 -0.35483614751685344 -1.7189608978790138
Ni 8.15837331389858 7.200860779090995 0.0747913934814587 -0.67037709697851 -0.3293050931252845 0.03807058161947637
Ni 6.6081656292444855 3.088095380297907 10.607376970118908 0.6810057803369497 -1.6199911667813196 1.8653808520388713
Ni 0.4065166714944411 4.794371826417377 0.11006541811931776 -1.3204957008182998 -0.32549806067436843 -1.135066969495413
Ni 8.628531742118168 2.9081245324964327 9.173274206915478 -0.8132977797358574 -0.5056462603246067 -0.3290397552790398
Ni 3.221084010721272 7.499903059722717 4.469719100093998 0.6881472764777374 -0.3943552886573983 -0.8262877642376222
Ni 2.5833681277211853 2.218429317546211 4.163688331382296 0.3703275582842332 0.44836902386969235 1.5079046957960096
Ni 5.672164038099283 3.277518713981419 3.089765444009081 -0.09971843633826052 -1.627139862010959 0.35634075708683793
Ni 0.7395178482934771 6.939525697575662 12.563164484040202 1.1783106106753967 0.6674041303931152 0.8082350205009693
Ni 0.24156985881278562 7.956172311552393 8.988488382362828 0.07524847622135428 -1.8663007927499793 -1.5079386343577383
Ni 2.0949959174166444 1.1744526900409795 10.096464503954156 1.010812495689001 2.1889570131001785 0.0804035380597325
P 3.9371004758845185 0.44844292977378913 9.024469475361625 -0.27971288401945377 0.09084118845328872 0.4764794089526632
P 2.121438592843569 8.712847542569897 13.17217638051451 0.8608336205332916 -1.1073116537590155 0.9424332357836543
P 6.363166909199193 6.508765081065987 1.049336149638742 -0.2635051639113397 0.352605972634754 -0.6161317053713841
P 6.963848101959875 2.3074433397357508 7.030458238144816 0.12049577809492798 -1.7588230241812743 -1.4089748167973153
P 3.715574183726143 5.509613038291879 3.007987430527856 0.46604792920669413 0.7141799530960733 -0.3610713297932879
P 3.6636228729792157 4.695578404308377 13.25421405714546 0.8148774655181513 -1.059601749277562 -0.3526561091463991
P 9.361510375623093 0.38079227290973894 10.201290891113757 -0.668697652393558 1.4260322865002344 -0.19280728317514537
P 6.092799659849938 6.615021483629282 10.544697274703887 -0.9484138788471215 -0.6592812441756646 0.6565851854007402
Ni 0.06523989934808794 2.508523493953632 6.862090970591618 -1.2976992717490747 -0.1055782375531472 -2.258519494680349
Ni 3.6495935905732675 7.364766137053434 11.069594189349456 -0.11017614133647476 -0.6149276577609539 -0.829176912859959
Ni 1.4671061363413633 3.041449417358289 8.421294395515465 1.382337416715445 0.10418547097067862 1.4650212661689221
Ni 5.39775239508706 7.264431548768016 12.546499340452522 1.5934275573601784 -0.13015901221630488 -0.28548578194748897
Ni 6.229487089096708 4.49728168960912 9.030538867976396 -0.32458660460369265 0.6686107491067066 -0.6290124179887941
Ni 8.58859218714624 5.307075781507201 8.835514095771682 1.4740208985643712 -0.227433357889447 0.27022397069241205
Ni 0.9657974705559714 6.667720026461747 4.665085730977846 -3.7568398892220336 2.438375359901149 -3.033457957911718
Ni 8.082267725986684 7.996859098609858 11.202595896334318 0.9048017985841256 -0.09921218612580332 0.43878395128441855
Ni 4.152340678123317 5.07608766306572 10.404928447144387 -0.7429189729019786 1.664556097875888 -2.3936751887802967
Ni 2.0033479021255887 4.784396278075464 3.9637551784157132 -0.7149152886002009 -1.2176556881319223 0.13833434893824564
Ni 4.3320966967002 4.535997652040981 5.0422445878716635 -0.29543183741660733 0.25078077436613583 -0.6628167681327487
Ni 4.242204676810155 2.1325163085116476 0.1854050931435389 1.7238246537292186 1.174346483821326 -1.0496986312312373
Ni 7.7552322633505515 3.8543538628124163 1.944673370689046 0.8329466643150364 -0.016819385550183936 0.1088571654147351
Ni 1.9152585796419004 5.328203768725747 8.701404617220012 0.44160316590076854 1.097203104570104 0.47153774867667175
Ni 4.960612284647118 9.143570797475293 0.7731068645784513 0.28149388717927654 0.2687075340478856 0.2560232537119978
Ni 7.634077921081871 3.5172120862194003 13.179763588303025 -0.32075308979021533 -0.22456426387176806 -0.6300022927058891
Ni 8.134433865958203 0.454614132760214 7.86916460751252 -0.6570783229870748 0.28955686669306907 0.745535070368587
Ni 3.0651366744697968 1.7977283129880726 7.345484747126271 1.1857087029116806 -0.5352836235750652 -1.1189147852155827
Ni 5.035625045633917 8.48252259260433 3.214277660462141 -0.3113451662127541 -0.3892498491100329 0.41149863320590424
Ni 1.1836249638909406 0.5544742286713166 7.999568748960035 -0.13693823992166737 -0.1940028461451433 -0.43623367405873903
Ni 2.189390010622047 5.114345945845191 11.667820724709149 -0.42850493795591366 1.4946665998391806 1.0854109970311823
Ni 6.403666888235273 0.9822832784431211 3.881951011811494 0.0027099427319953327 0.15903275782786158 1.4207520119379016
Ni 8.964057629326211 2.237287587304939 11.471824550793237 0.6401010717027878 1.199345834079141 -0.4790096315736847
Ni 5.728748187776538 8.782461551738695 10.548866829741181 -1.9033295633685023 -0.3007036273385079 -0.28923573590822443
P 1.8916273649368074 3.5299990952831446 10.44434120349601 -0.12891151296244896 -1.738722396776657 -0.20786674861142912
P 0.884197858735168 7.836988793909316 6.827040181539313 0.5325058037196119 -0.13269591970554567 0.9111763346519017
P 8.941052221492754 1.9359662488123315 0.16683917793827674 0.41710260965624296 2.347891554787279 2.2152961652153396
P 8.800992907460001 4.949571930583315 3.5934045398612406 -0.5392670337028455 -0.580279214449149 1.8597321383935261
P 3.405024528977159 0.5435356849791686 2.8520335559956327 -0.04751810018562139 0.22808410409956847 -0.15834961571790793
P 4.891997698392726 2.491654729622645 5.382383699167787 0.5347742880388144 0.0628758135886143 -0.4250676301395905
P 7.971079591658848 5.201202335387743 11.829954208588761 0.26333495688206265 -0.40684545070460904 1.0118715330811348
P 2.1821792209966198 4.056134547110488 6.579259890055612 -2.032752725860048 -0.3708924296487677 -1.4726777542729153
Ni 2.1961244397929454 2.5115684647021936 12.519555085488184 -0.7232806298457608 0.6153629455261596 -0.39256682929840775
Ni 4.219628927425882 3.0132507465303537 11.167270499490577 -1.108004308950666 -1.1789346174126405 6.178347012612934
Ni 0.3805858500461095 0.4930143896359365 12.716384423179468 0.360423926017276 -2.642407822368152 -0.800184639392667
Ni 8.700312724335022 1.5906889828880373 2.5562697561392027 -2.9385932501213325 0.4085673184917222 -1.3649392758436558
Ni 5.693067855692168 4.184200786170381 0.7067031512571402 -1.0977687472655866 0.9686777713024801 0.13281650444381
Ni 1.1789921249606141 0.663741976539324 3.268453854743753 2.1286790421457273 -1.6042411030359147 0.0039558993239544775
Ni 3.6459975361616226 0.27595934746939077 11.895996448388692 0.6557806872215739 0.5848974299474508 0.4829501042786716
Ni 7.153346158851941 8.304345101808142 2.138850968516784 0.614701914903393 0.4768558184554755 -1.1782725583486096
Ni 7.424535363495288 7.201066267914517 9.071687070846679 -1.6557068750153745 1.3004776058251604 -0.6217750197000904
Ni 0.14900555017684042 5.126423084427675 6.255129292152001 -0.09591191810797675 -1.4622861266259461 -0.3077685046050893
Ni 7.332009350503726 0.9140497805523524 10.252296019232373 1.0051992632672815 0.12003297952589648 0.6068891037271935
Ni 2.329150431820587 5.054819569831136 1.2613651219899478 1.1094618673327992 0.6398866416991367 0.5555256616535529
Ni 4.426649576723778 2.730834379801821 9.248858600447713 -3.9350337933593775 1.8001771616480287 -2.8118874865609507
Ni 6.7321034110317886 -0.005537923793932645 6.038135896632511 -1.3871127266169014 0.8049784612368847 0.25546069634030844
Ni 7.3778240177481855 7.907975842035287 4.417032699782924 -1.400018636045292 -1.0589528028396538 0.3170332177364669
Ni 6.129255245223051 6.05826819709708 7.409230182303285 -1.3543234480010224 0.6659694548291176 -1.5154588539941838
Ni 3.9600498413115592 4.158355896411886 7.4788413893517625 2.054913064007171 1.2832023636844805 0.671001103715754
Ni 2.3607209874345054 1.1989432216444396 0.8887466340558715 -1.2555223812707088 -1.3488747661816254 0.8986275514526135
Ni 5.777860016598426 4.811016421122703 11.862709127058253 0.7079296013109873 0.9298476858091599 1.714832991753569
Ni 5.877699563627176 5.513125029093901 2.891883443117296 -0.33262001643113037 1.1042142457806146 -0.662479182287672
Ni 4.160980549112333 6.674463796033714 0.5609106990481069 0.40878354826758634 -1.8122353783641434 0.9534547837051386
Ni 0.263888747167655 6.120503289421204 2.104988278480482 0.24457258867289491 1.0651699873939593 -0.4880290614634757
Ni 2.866027344877518 8.005489629197806 1.6896066323312569 -1.311910016031818 1.2397599762301295 0.6290417285648328
Ni 1.82472207207808 9.178485216671989 5.512226482511044 1.7599813061554332 0.7530437200408063 0.12022426960109615
P 5.682821435719248 1.4754190932929574 12.074644695398767 -0.5627975127246179 0.5678777554610026 -0.40830300908674194
P 4.020510257432534 6.377485744038287 8.639093867647228 0.37567365308749495 -1.0770299720563385 -0.6150207316953924
P 7.803167201637719 4.21811578245267 7.2146976492349175 -0.9283993833984076 1.4952859785907344 -0.37881117027521216
P 6.492092465157453 1.2983717910261445 1.8728746417101612 -0.6307980491343071 0.1895137000255381 -1.2167478316056721
P -0.1475222944870504 8.27092514678252 3.497969925976728 0.4897421874998404 -0.7169639435991136 -0.886833387031163
P 4.947423638337398 7.931364206312581 5.789439311803921 1.1563266502051375 -1.0063421186224732 0.2890534446940893
P 0.28702492061608 1.9151651756312082 4.721640925411785 0.056720335510179735 0.7447516552353431 0.06607683702441523
P 0.15408112411784733 6.292712263934168 10.612749568813914 0.8703999240654882 -0.015539747506811946 -0.6137891732811365
