# total energy = -340857.2256495398 ev
CRYSTAL
PRIMVEC
9.42075033898902 0.00000000000000 0.00000000000000
0.00000000000000 9.42075033898902 0.00000000000000
0.00000000000000 0.00000000000000 13.78822038514670
PRIMCOORD
 96 1
Ni 8.853536324670417 6.421390646105888 9.41560372229171 0.6461231095271518 0.05651696125012201 -0.3793611292414112
Ni 5.044472626949311 5.247216593685779 6.96116195404384 1.4336070135236987 -0.13394290473876933 -0.02982248267807122
Ni 0.6106596275560882 8.342347573076427 -0.1521008394661167 -0.8252747495920755 0.8908810747379755 1.8893229646767653
Ni 9.0960170160802 8.2115216139635 11.472006544311594 -0.025397614137498196 -1.3935687666548902 1.1423452483243812
Ni 6.786058468623519 4.665325111254134 12.108194520971463 -0.9975548593481466 0.5607550283732923 -0.8897778143714676
Ni 6.64895828982533 0.22042200463345157 2.818284333041134 0.015085947798844986 0.6082016518910299 0.02062847488362899
Ni 3.4322996318463055 5.453417975774334 9.11630271765418 -0.6630990752598579 4.057440929544406 1.3526280625764704
Ni 7.3013075635873985 1.2146926993665124 9.132641124861609 0.6454422814100432 0.30651534892427856 0.9749080684829081
Ni 3.840001441634611 8.339775708250487 3.797399866801705 -0.6918779471647633 1.400194499501524 0.7079303726419356
Ni 0.7625503842910016 6.743269420860077 5.490124987158191 -0.031027815840082042 -0.5995650592619545 0.17406985466664215
Ni 6.637832383746813 8.052367458764117 8.725709932446057 0.7224031123368139 -0.9916593197993179 0.3313745740598035
Ni 2.426257709640673 8.946547392166774 1.826235993298693 -0.2925969390709735 -1.2706360969836954 -1.53513447804624
Ni 1.8859776811876996 6.766576357048266 12.608941312957127 0.7690025573629079 -1.674868792655806 -1.8915942772094456
Ni 9.162310835787672 4.80820020997284 1.5060322279439622 0.2805690613721619 -1.5353393949681946 0.297532685809694
Ni 1.1744849371792887 7.0942206309726945 7.944676036109288 1.6219999696812326 1.5235963954996534 -0.5126728281540848
Ni 7.932007953210235 3.1631582171493045 10.532752089128008 -0.47041829036024796 0.16784932767822705 1.1078035057937694
Ni 7.052571493992911 0.17066819618935933 7.12457994081912 -0.6557575472931222 1.413685077788791 -1.523809282841408
Ni 7.99407185604281 1.6839308499718157 1.0481762278247422 0.5309225183928922 -1.2814234174071866 2.1851535801936883
Ni 0.2544987425396433 0.9048602379930177 10.829419994062789 0.055464351615891576 2.5529899966249516 1.0440751143968727
Ni 4.593962927897007 6.414098985390585 13.49120870763304 0.8371249640624422 -0.20026811032856476 -2.1080040302948793
Ni 6.854528481645249 1.526557216575008 4.831944268973937 -0.6897328757973025 -0.9444965460705863 -0.7590662720858024
Ni 1.8452894607362889 6.352524961572475 1.0362439055224135 0.09326908116849097 0.2005822991348739 2.151019871734773
Ni 4.149652082527737 1.3635593952621339 3.9869877557747104 2.4117636708508914 0.3438277122214918 0.7776792592012993
Ni -0.10835746969949608 1.5641836931860138 3.3531295306586313 -1.074143394537163 -0.8298564554254869 -0.2680166786284481
P 3.739500877667108 4.335824949524906 4.6193706913972274 -0.046289627095158985 4.951276201814698 -1.7856280601892602
P 7.004638716577588 3.7299764991358795 1.229382475275261 0.40895452662781184 0.6376767785320114 -0.24069896465010163
P 3.524180209309285 4.964829604097672 0.7934250091776439 0.3526476245059669 -1.4294695943165574 0.3257076055820133
P -0.03508570026098359 5.942467964214627 3.6676393945452372 1.0706274109641045 -0.14012332251786835 0.28122906355366406
P 9.514015705922544 5.975289858183766 13.569855957180279 -0.9127133401217185 0.7322764055864679 -0.8203215193518582
P 4.451332768685533 0.31902051911979273 1.8768386113428481 1.4777394850665388 0.5347578329785823 0.8271130883523949
P 1.4245210703121634 1.9731007797602034 5.316931087819254 0.910247137969413 0.34031687085475587 0.2751453192534294
P 8.56997174129754 1.2128085493108787 12.771421935079731 1.243650312423471 -0.40668141432291893 -0.40904554367972135
Ni 3.639518454964904 7.856387590727375 8.129948279379864 0.15765284676119948 -0.07235315695143023 -0.9111552516059792
Ni 8.81785994336699 3.1796633716366562 8.347802187487487 0.20804286917797715 0.13245115068459123 -0.5132323002019805
Ni 2.6918851844839167 6.249169910270686 4.014509535637352 -1.5384527437861957 -0.22463368365712283 -0.08175413855035597
Ni 1.3523487024311132 8.895355035155207 4.827573040844866 0.7774825698094611 0.41710852319351394 1.4436895945706816
Ni 2.074496315004133 1.135190987769047 3.4295713825657477 0.13747354359984712 0.7685639271635925 -0.7618003831875138
Ni 3.1693382293317836 3.470133364963431 2.9406824889552126 -0.15433715212440519 -0.993005292304251 -2.309277699069823
Ni 4.663412698947666 3.6777667010942685 12.216418216017008 1.5822229468936106 0.4846655443078814 -0.2753396946524226
Ni 5.647570218257113 2.490205762528882 2.2608679598321717 -0.04915640711999276 -0.11009669424879102 1.1424339513834452
Ni 2.401198513900744 8.858859048577582 11.65092166529446 -1.2993365502421816 1.4093288577026246 0.6794374074085653
Ni 3.4459597197496503 1.967825159604429 0.9107463227668174 0.4931710106757312 -0.4410529498242533 1.7474474353544809
Ni 2.759931263743129 3.2989394909085497 13.030019646065407 -2.401952084077108 -0.37018871871352377 1.177480144354301
Ni 6.412949653856649 8.496697145633943 5.058290983457329 -0.20321099500697262 -0.2433975945281873 0.6349426674303
Ni 7.3447466431200334 6.436181224042612 13.488133774742249 1.7788889416932139 0.8642336473537761 -1.2446844101149401
Ni 6.275095815036207 8.08666841052693 1.1374934191370314 -1.7057881079424817 -0.3687663844447004 0.5316413988367877
Ni 5.913602785362317 5.861213993065422 9.14625034071345 -1.124013797005045 0.12838109438027567 0.5108206054366945
Ni 4.904235338308491 6.329670221397637 4.696184662940332 1.1079091781336983 -1.091728454608778 1.203564757256495
Ni 5.845208138342814 1.388307706242883 0.12251214699244452 -0.9343139491106297 -0.08731234936442382 1.5686968873827178
Ni 8.868063121599352 1.475553274569003 6.0604468461732175 0.6317591274959958 0.4929067012707511 -0.5537318029779237
Ni 7.221061612717958 6.630446515528729 10.908136957162084 -0.9430325599305501 1.313484045387157 1.3161929596778883
Ni 2.7349191717545915 5.362017856575542 6.605949738580407 -0.13827084269016188 0.6449365454182183 -0.578643735728255
Ni 4.997839913072376 2.028862200656684 8.378977334308003 -0.37922768898734044 0.11424285520668065 -1.724622467040165
Ni 2.2514651089795312 4.543901060918818 11.257571426479918 -0.22453083953067138 0.3022599160820343 -1.5888862178463992
Ni 7.112591094015124 2.8346754964501195 6.758448133708263 -2.127013995738479 0.3336605418805028 1.3050346290682233
Ni 7.271227107949206 8.997664383176119 13.257925494719835 1.6049353008894618 -0.11009438025594588 -2.079426475767503
P 0.5760157604831506 3.5647271185065224 10.085531173997813 0.7003864988564067 0.10350875661862818 0.2680519027417577
P 6.581891968595047 3.6802255169168707 8.774078890599258 2.020767271363397 -0.22245518794856525 -0.8852233622315658
P 2.1855292777826287 8.897013087204165 9.42499338409396 1.5895351642843076 -0.315319834589786 0.4253432523984804
P 1.7954725332653332 3.4874392832244268 1.2307644993410682 -1.5772715164256061 -0.37627760522008097 -0.10619375964995906
P 5.203956508408428 1.4262356468627901 6.238976658469708 1.8016642877165168 -1.0262563410478973 -0.3478316911745623
P 3.305637644356328 7.578682714027519 5.9255294552144795 -0.9324907798589618 0.43373481889628523 -0.2246812490656066
P 3.4294074615109076 3.7761287547486275 8.181047370963679 -0.9952439518267828 -3.1144916733562815 -2.11026865795934
P 7.2807232242296 8.976882208062477 10.615178943686844 -1.0017128473805779 0.2873706576750277 0.12517955672384248
Ni 7.690761380086891 5.481011353339091 7.7754115317113754 -1.1321734499977016 -1.0651813002478687 -2.4133163600499925
Ni 1.4294481227076457 4.235917892824928 4.567692223671306 -0.5776736585055019 -0.60015178500336 0.3362514425361306
Ni 8.492420125007655 4.150707206558892 5.477660392465146 0.7631414705964406 0.7770002308564037 -0.2504208199235558
Ni 9.241237881618169 5.252982092856018 11.459224470334174 0.12007823094153512 -0.21965602793687333 0.7176722825200478
Ni 8.622087331836369 8.316741973820365 4.1059115389862 -0.2913928914605433 -0.1516590910716098 0.4017762637118177
Ni 4.8767079059956835 3.7739902444354834 9.91414417456223 -0.7887262610440803 -0.23624684241601895 1.869818833205567
Ni 1.0519869213122612 1.3156360385970898 0.5431486469126758 -0.4312051104958961 0.3939691089625731 0.22828259326361974
Ni 6.4402321466622245 1.5777872565876894 11.774699019049264 0.6378582984151981 0.045274298456767184 -1.5463501442564014
Ni 8.352088628864054 7.673813450336466 6.90465817802544 0.5689121102627879 -0.1593225211541385 -0.2821135230411464
Ni 3.9461073520176253 1.1703021240557816 12.531024171556451 -1.9241313306052021 1.890247019152932 1.2358917515239747
Ni 6.123440577058247 5.736492680132748 1.3554509554977139 -0.6089300454166223 -1.5802033453604205 -0.7057277085636621
Ni 5.116560208077858 8.962534405388828 12.156604930425887 1.5282012412615165 -3.319087978746555 -0.125128648881249
Ni 3.9192205307237318 3.15999284505584 6.062225483825736 -0.2698056522080708 -3.294003010753469 4.137511766855068
Ni 9.552263952051907 8.72805193096521 9.269020616263518 -1.9247923612279687 -0.23354024211813326 -1.6666438336428524
Ni 8.45143986129762 7.046184225304312 2.0444347008664967 0.3730087046608221 1.527324495083518 -1.2498692967499894
Ni 1.65098648624906 6.811023456860666 10.308707806012603 -0.2843277570836458 0.03718612213199402 -0.6449673986561538
Ni 5.194347343124696 0.1484380517579647 9.684804487715464 -0.39699504027309046 0.11849314584260238 1.1719481587924785
Ni 4.228013883341545 6.59206637889547 2.1576221892336096 -1.737362283204337 0.3335787807999739 -0.1529850089718849
Ni 3.3038100188023627 0.6101066295147597 6.436769078859971 -1.3312434262531074 -0.7081566297201288 -0.3386518244475071
Ni 7.290567908270286 5.350599907238402 3.11040201559156 0.641586912219695 -1.7069307061873569 3.061787915204662
Ni 3.9208220582710203 7.723423121301302 10.455179747187513 1.2270268449341772 -1.7945788416246446 -0.15490819413652676
Ni 0.5226782986332431 5.138275037469037 7.346626082800529 -0.22630695759448766 -1.868069197504312 -0.3165565352103645
Ni 8.05044562570737 3.227181636039739 13.181911344875347 0.8675254307311704 1.0092302388035457 -0.566854456402811
Ni 1.5419413017792576 2.2921250671801072 7.707477559380474 0.3099649980357759 0.03446229544292775 -0.8917616775707158
P 6.8868793381004805 5.562246482987739 5.446057543582001 -0.6903669098368755 1.1170157684206568 1.4086855676916707
P 9.523719078709059 9.058880418483659 2.2347253778102534 0.6858507671340769 0.5711867652295776 -0.7608112798013671
P 7.884913622569669 3.0072824830467257 3.7483827610293656 -1.252605721844546 0.9668656577944058 -0.8862898558228671
P 0.40228299422830305 9.567619775005323 7.312899796804684 0.11660107102621207 -1.083526892634592 -0.1853523695589969
P 3.484782631645983 1.9873920579321853 10.753184456586766 0.24783840390836026 1.237973830863984 -1.106362659582185
P 4.995908659265352 5.9091561912310215 11.170540651260138 0.11070398881548676 -0.9070309450249605 0.3039537588446894
P 5.784623293303911 7.623176917591309 3.2463123536296163 1.7064283126296418 -0.16151567215071538 -1.1771371591925857
P 3.3237160641401338 8.073300365882208 13.640506873891404 -1.0499822239099272 1.5182058206117015 0.05271044301983825
