# total energy = -381179.6446861133 ev
CRYSTAL
PRIMVEC
9.08595598755130 0.00000000000000 0.00000000000000

0.00000000000000 9.08595598755130 0.00000000000000

0.00000000000000 0.00000000000000 13.29821501029529

PRIMCOORD
 96 1
Ni 2.784854518353063 3.875787051394115 5.195066915340441 0.138093179461717 -0.921780078309677 0.24742085675496742
Ni 8.456280829498628 0.8464558135172083 0.5253962989002244 1.8615964452957745 -1.3548389541848602 1.3386744286098557
Ni 7.414230738305203 3.4598865136370014 10.547705200802461 0.058953595716072664 0.07263006476190072 0.33340960221196125
Ni 9.030058934085549 8.377869031516282 12.170632253797596 1.037553511228271 -0.8315736952269098 -0.41598546533266423
Ni 0.205161789063866 0.2568463396597843 7.269721338146476 -0.34487260854623836 -0.8315130171923034 0.29234831339527717
Ni 0.4458714713404932 4.342014697960523 9.00101658517816 1.2329421819773476 -0.10562914539574067 -0.47082606732162785
Ni 5.515038841056094 8.796386324524718 9.907768618135744 0.2660392431871031 0.21942000066666725 0.8701227591447015
Ni 1.2316558154455215 4.239279796478903 11.314121013069835 0.38830522580857646 0.3299301283037931 -0.5292312467333982
Ni 6.920281840795094 3.884945694773745 5.777063266888549 -0.453998711351644 2.1410779300307126 -2.354932263684144
Ni 2.833573412997482 1.8718613424019594 3.5083482757341553 -0.23752930867286834 0.1611426050820128 1.1503362369496577
Ni 3.440696975127301 1.775259461040627 6.413409988444858 -0.11967122531110357 0.6506780758876859 -0.8626693881904498
Ni 0.5925587750886023 1.6831914715904406 11.493500494143584 -1.1215743343256168 0.6252598929248973 0.7248636580621645
Ni 6.8695276920663115 0.972133661822145 8.089995061621282 0.9275110672561832 0.6048209083442552 -0.10197406514165663
Ni 0.505969616945873 7.322880539357983 5.641661628757341 0.33533715825197735 -0.7181497363770987 0.41412167265104805
Ni 2.434200228720077 7.570963474712556 11.217083914428855 -0.042534788038417065 -0.47861368168684676 0.762144396790494
Ni 3.6324378989768307 0.8630794781276949 11.032092038498362 -0.7253028024821122 -0.35203441640200017 -0.9747031515609536
Ni 5.394477294424838 2.6109947553875723 11.660326818775571 0.06963524379963491 -0.7621564809753518 0.6034582236687736
Ni 4.778649386702076 6.596331175063627 10.414350628498072 0.4446110994891569 0.5587799069247924 0.5348629910978788
Ni 5.052454662738923 7.100329139615274 5.9909521164346895 1.2813434560988706 1.7416742803161296 -0.1425483870195932
Ni 4.197720634952686 0.6808451897623979 0.013900603677078871 0.42534170973658364 -0.5313308095749043 1.0501915117072558
Ni 4.674651537373463 0.18370076162072574 7.462292718350071 1.0996996457397126 -1.357487447551301 0.42054711656141763
Ni 0.0011175725552524357 5.44518601337495 1.528257754418371 -1.0012631614376692 -0.09963667525773162 1.0983904400099858
Ni 7.267974108858874 6.928604576247217 11.323017072328758 -0.641565057842824 1.5419335032459442 -0.1631454944446545
Ni 7.687236450237478 2.476686157731137 12.62903507528609 -0.9001750984453917 1.5986877773178534 -0.34918949075403727
P 5.87059954678531 5.339516348191326 7.116725655332417 1.990786151620275 -1.0690695795586815 -0.18701510197340052
Ni 6.395268060631261 6.298248225306176 2.693779623864576 0.753101055641303 -0.7148926628923817 -0.34949288092706904
P 3.037961987228405 1.1079596140861177 8.50549854311283 -0.5003009368522933 -0.43275317170930633 -0.04918134682065723
Ni 8.358661321095115 0.18378889539134322 4.870577452433963 -0.9599303641271534 -2.080949083059616 1.1686334925969486
P 8.68708227704759 6.949765767151144 3.41395791599842 0.4764518981488375 -0.1310871804575291 -0.1644559857259619
P 5.010105023063869 2.910240707478946 4.649587928481887 -0.6964987337662263 1.5899349708258876 1.0274251645450176
P 2.0458210508805212 5.726814297298564 6.929939303144507 -1.0025232590970152 0.17490906273848586 -0.28669779997771916
Ni 8.699112082439088 2.007478317684056 9.223162751295142 0.6735117859527497 -1.5100227705802767 -0.35473124650787297
Ni 7.506407759224194 2.0363989147846127 4.0449312033337845 -0.3870410143841721 1.2086334300286539 -0.9627457220887613
Ni 2.914865458947429 5.460904716794354 9.69594137194559 -1.0091291944493073 -0.5701243854033342 0.39563364114918964
Ni 5.108787588288234 5.273125269644743 4.533042374284952 0.5609056950185437 -1.8005988225664797 0.3691487074847836
Ni 4.529957692313341 3.165292570881313 0.9380068120861437 0.4869013756169357 -2.0804721434231976 -1.0729735425987779
Ni 1.5486466390849278 0.8255826474100423 5.18926916698673 -0.24312711447561997 0.5417903143453315 1.7432632220698043
Ni 2.7089777020204364 2.4815471440486987 12.630776853000253 0.41093376184136965 1.5017039663019363 -1.4194939711610843
Ni 1.4546342551077167 3.6817382947882105 2.6766380597772654 -0.8562066632842416 -0.4994193055782882 -0.5128972854600651
Ni 1.908395970407407 2.4453759542726012 9.763496361421668 1.309778314400796 0.5073383033150489 -0.3410041267297676
Ni 8.033265988401979 6.6268872441962605 7.165756198258504 -0.40990403502527467 -0.10694452177305452 0.8814515538939595
Ni 8.37450722789479 2.307278513075189 6.223896940941247 0.5337759286812872 -1.6249816780173756 0.738688993981031
Ni 0.6717237988012768 7.792897029465369 1.5604520213698017 0.5407891267743267 0.7926795892648736 0.2346627857583507
Ni 2.990451524696576 6.290561506755415 4.9251404338063365 0.20590139735494215 0.5800038493005752 1.8947688182826852
Ni 8.275652029511486 4.37306140870278 3.680360863898972 -0.16892661990280583 -0.04660767255621005 0.29721129791453327
Ni 7.236155091879247 0.19803749117302508 2.451432652364726 1.7370871751660792 1.3091404237064808 0.4717912594483745
Ni 1.1091135304643052 9.029550120564458 9.925481688838708 1.3536863286376557 1.248457246893811 -0.4053428980171535
Ni 5.595304174008127 8.267265692369227 1.529760571496735 -2.4420859759835163 0.026426055402012556 -0.0808892194468994
Ni 5.84210598960424 5.0532451408877606 11.889083017688865 1.0083460364263794 -0.664114661008566 0.5119392924221698
Ni 4.722925220186928 5.437917248787942 0.9995096464479628 1.0349165878260564 0.6067914018070646 1.3001058243080383
Ni 6.16899141903771 7.171735665726892 8.384364581270347 -0.8146141845544358 0.15231240838489252 0.07805740642505911
Ni 3.553962499304349 5.290570304653563 12.296553605716197 -0.6525346694804504 -0.21342701630802596 -1.642731288691313
Ni 1.6523900816529953 8.114312713547116 3.832851367574234 -1.140939626226106 -1.5597782447368491 -0.7471918892457197
Ni 4.05400807311181 6.135364296867066 7.667218272564859 -1.787403149811812 0.09186525884242888 1.806759957071869
Ni 6.131466421857283 3.7037444795753762 2.822838356298045 0.07708244410629951 0.6746312442691735 -0.31535454448246336
Ni 2.6579600605753755 8.146631458092099 6.585276292722362 -1.2547567067492778 -0.41974647503699325 1.9159508516769392
P 6.912676895845936 8.659179306989214 6.558041140410418 1.0307745406332247 -2.2273260997966804 -0.46118982978344447
Ni 3.359432187044555 7.280885251956546 0.7704935892006842 -0.823314283431595 1.4709219479240732 -1.2845066843182007
P 2.601300040619651 4.605734563132897 0.7987018473717143 -0.4104107994583642 -0.5780768074811915 0.7326823827756349
Ni 2.038552286293514 1.6019630273306293 1.3675480951863506 -0.4077499647967494 -1.0063025236337892 -0.8728509567091419
P 1.8320194265094234 0.39329922286938657 12.607093400784635 1.234222591351668 -0.6543007602419376 0.42017636348556026
P 0.5485218734337896 6.349265866751235 10.599527857925533 0.06431331736608924 -0.07660961823493903 0.26374787604976513
P 0.7109333321747431 2.698356219767671 4.5857563636655065 -0.3635804693683867 0.9696313934650012 -0.40507884572248953
Ni 5.752791044741383 1.0632112820973516 5.5743319709834624 0.03705319609855554 0.5423628990193498 -0.7156897048723804
Ni 3.014474791656636 3.9566702293360434 7.678163214841746 0.5799696536285303 -0.27823629947392725 0.5444030693778302
Ni 1.0775034904665555 7.116029671123211 8.448701325225526 0.14636621810378664 -1.1010415044795876 -0.15653133156224655
Ni 2.432046857211176 6.245186243821018 2.5571931771056877 0.1330443041838999 -0.9512914575052327 -0.9515922765751029
Ni 5.4825020335735015 4.502899716138205 9.33557237844207 -0.9235567105941255 0.33946249327426053 0.11708006754515965
Ni 0.7087354394827465 3.5416146854621697 0.19120303527009108 0.23977028218824514 -0.33340548844690326 0.36725509000649653
Ni 6.63282945924614 0.048512643449262836 12.360437869075835 -0.23643967515311543 0.9466398176658343 -0.41329943386006884
Ni 5.158887548204184 2.0659646147422666 9.141339176934771 -1.6821825527083998 -0.18499190089578463 2.356049922228355
Ni 8.194032889155125 8.251728708064498 9.278829676289169 -1.2042612691028873 -0.0994322725564094 0.34119130303990913
Ni 7.708861024883826 5.579421923385515 9.580538830979963 -0.10414459043041419 1.1250625499845335 -0.5675720512951258
Ni 3.3448583140476043 8.024207290535422 8.966360932818453 -0.45295484346816184 0.1817587386704676 0.8385254439543947
Ni 6.057352280937006 8.104063755479435 4.127193629356097 0.34814356598802626 1.9183648604350705 0.13725011473513135
Ni 3.7668010123676683 4.05393538546594 2.9148491042271085 -0.5967440448733915 0.3168501551913833 0.26606572554966434
Ni 1.3615849824382842 6.1812483733225525 13.034377732480573 -0.0555769659343559 0.09735250720924524 -0.28236214871684273
Ni 3.3735063324761487 8.860851180455743 2.5690021937728553 0.2905462271895319 0.20589934047241315 -2.5883524352846456
Ni 8.305199557557673 5.174878830295601 12.340969391725107 -0.2847229356395355 -0.7712692419098975 0.6650793389146804
Ni 0.47002557606311984 0.7328204909417966 2.9722841562069235 -0.034069173769567127 1.789727941290247 -0.9884014749836526
Ni 3.64613952022334 8.688072646222569 4.751771312450469 2.1265938774819246 1.7120325461902965 0.7136477347416871
Ni 7.272907782822305 6.26546609701877 4.962321981860027 0.9942394218216682 -0.31957346765981737 0.24100801125008817
Ni 5.521389924113992 3.027949264009802 7.227925033175608 -2.5990880765345947 -0.5203334300231361 -1.4616788320592504
Ni 7.410669043657568 3.623769897206824 8.184013805767506 1.0058446101607643 0.8735582671888117 -0.6921437992316403
Ni 1.3057154406313964 2.4618487920179075 7.355947058059854 -0.06321494209558791 -0.48950873133279565 0.3853718542118653
Ni 5.336763303603996 7.251274122220223 12.83596862571804 -0.04388615985998893 -0.6174519668447044 -1.6955260638948413
Ni 0.17166459606021436 4.573079638225765 6.452240637464227 0.6901771624235726 0.14323667133586945 -0.11989542550676771
Ni 7.641870273258816 7.3807762492935 0.7011241343645761 -0.34824820988669053 -0.29735399413998465 -0.8119080984771824
P 6.884701238141691 5.259569023689974 0.8646886008881438 0.45965950918184706 -0.8136291949333472 -1.2415983149904488
Ni 5.0747061683309 1.4724790721688208 3.1540041794776896 1.176231873769497 -0.9984076942667449 -1.342325909319514
P 4.335690872769827 6.996431235799733 3.4692913864170163 0.39515541596119047 0.5166894055126456 -1.6430565332412155
Ni 1.1933312541605234 5.3182370398628604 4.26343390120153 -2.2486613709393466 0.5530134367546605 0.3215323911584011
P 3.7553708800545986 3.4403062790307493 10.617853322044953 -0.8305699365527437 1.129781038506125 -0.13507084769562544
P 6.239707412513561 1.5513815117607894 0.7848484906644511 -0.41810945365420255 -0.047618887429543795 0.5205602013219616
P 6.983411061233255 1.1954028520678204 10.453088600768956 0.49839986317483836 0.540637945908443 0.34727659000204064
Ni 8.170863702034037 2.9127847750843987 1.802998883895795 -0.12552768409188061 -0.38974092981383845 -0.16725488862733776
