# total energy = -340863.47907440015 ev
CRYSTAL
PRIMVEC
9.32899015781218 0.00000000000000 0.00000000000000
0.00000000000000 9.32899015781218 0.00000000000000
0.00000000000000 0.00000000000000 13.65392008473693
PRIMCOORD
 96 1
Ni 0.46421053702023496 0.60508947917558 4.946432879758479 0.19989787147333962 -2.0421321101924184 -0.3662397613681047
Ni 4.610778622145397 1.3762965497600128 9.471273779918814 0.9631735536547993 -0.8977490055024021 -1.8011379828994012
Ni 1.133546903783254 7.851352524930183 10.195819108862013 -1.5684847713719117 1.2690630960696208 -2.5729294158613563
Ni 7.308647866959621 6.256487070993178 2.1997692862137357 0.6078123868724112 -0.8794777179970402 -1.7106312949673959
Ni 2.1688595440049507 2.6753770501848875 9.303944352723006 0.10251142570236538 0.0899490156563225 1.4509413910370883
Ni 8.071414067489876 1.8687739261526617 4.096572162496568 1.9201489489186867 2.780358305604418 -4.690201501721722
Ni 8.974189748317553 1.7948136942897917 12.28698495924936 -1.7358083084536555 1.6506466868836476 1.6597381076619546
Ni 2.799620537565022 5.292046766980138 10.664612045717144 0.3887693099291885 0.10148838375448974 -1.3132318201670352
Ni 5.470584975531048 4.551903366937706 11.942592236804549 -1.4135341540332238 0.7492271745081935 -1.384840642753273
Ni 1.645596500969079 8.54462707975578 2.476684491871548 -0.28921516708293415 1.5830287306243576 -0.30656497121529136
Ni 5.617106090773006 2.4259851634051057 2.259327423481513 -1.3325626592851634 -0.7978652472308712 1.4402283754949583
Ni 6.696367602375377 4.603837853665834 5.988841149691945 0.6820205947547093 -0.37830877671749685 0.731572694651224
Ni 2.8881619806289094 7.375602027413685 0.8088933910506838 -0.23370633538235236 -1.358579395063899 -0.7454587086046968
Ni 7.618034487734121 1.775082880668453 1.1665071579702753 3.6213928891339116 -1.6925839505473814 0.9762920933146283
Ni 0.4803030445837379 5.924477649730857 2.8863297670141432 -0.23614991182683845 1.4827845036896141 -1.1017634702472767
Ni 1.2352702095643762 5.944320411230898 8.128751905163384 1.356087996100613 1.0272089347691535 0.3047436017358364
Ni 5.497527098338813 6.810060002187788 13.31494728833524 0.016476914609100654 -0.2128724293561366 1.4025344604886103
Ni 3.0584720200951763 0.7139522609209625 3.9883512152557477 -0.43597013598470724 0.9717772361634103 -0.2224770423254362
Ni 0.1362153801083914 7.418394104047765 1.0210047684245116 1.1808179504782823 0.4187951668673175 -0.533779528225713
Ni 5.070781784724392 9.008762984856881 5.013445812848862 -1.0445643953284656 1.0426545799002624 0.6468139649465892
Ni 4.850207147720646 3.872417059172316 0.39327942817526 -0.4726628634200505 0.3313738027288551 0.6686408310136935
Ni 0.9870257885412962 4.922693399180597 12.69986552808646 -0.48904259032965447 1.3593237294290912 -0.7626874137781575
Ni 1.6172830166472056 5.375280014795543 4.773615207809274 0.14870077977423424 2.3092285909994423 0.08524595375369835
Ni 7.749330691472521 4.377777770605659 11.945650279691108 1.5692491603417618 -0.1524615323682471 -0.220773172260452
P 7.867351742594767 2.402839939483337 6.126513718021449 0.2271068277879637 1.989627869646115 1.8882847532202383
P 7.363026549039424 3.0981855300649332 9.857324173826852 -0.5446290693457071 -0.6549440502528914 0.3309120326010882
P 9.15445381999846 4.188679145497135 3.873863052605558 -1.603381840359413 0.12836926730573375 -0.21496145067468142
P 5.044380743330355 5.718801409584452 6.689847571339937 -1.0079629420553478 0.31437701106054244 0.5331004998808174
P 3.7301966082705174 7.911533838722738 2.966723270306458 -0.5708255252354169 -1.8366104647743982 1.4739879884439067
P 6.410452720168862 0.21480558965460456 3.0372868169496927 0.5965512121362953 2.973284116635299 0.25313899018566727
P 2.352099563461371 0.49004717452581253 10.077411837558243 -0.5999795210915538 0.2060626055231548 0.47396178473713213
P 7.664222316688846 6.964958550352658 0.14342202479987315 -0.7436851616440417 -1.1103586681154556 -2.2006254505770424
Ni 4.15268790249424 3.8378904675824463 7.685996179096509 -1.3708217027663616 1.0650751136873076 -0.29729897253233317
Ni 8.517675627958123 6.406161384818594 7.395904708115396 -1.883845486501962 0.3780616937036973 -0.6074748010273344
Ni 5.713773084032725 7.8717456968338455 9.166135581141079 0.11781925970402934 1.5226448302196616 -1.3393907379505903
Ni 3.0253820929486572 4.754575672338924 2.9753255318857654 0.9571741415382549 2.5280132720749555 2.085279335003854
Ni 0.47297419012467246 5.109758304492691 10.139346068551482 0.056757359395702256 -0.9133815698333367 0.7533617655018574
Ni 4.039937730660908 6.458618294980667 4.713837839279037 0.20390262175735852 -0.1593718863348352 -0.01801109186543995
Ni 8.510324383923317 8.577959560639489 3.1113599295902548 -0.294665391564228 -0.2936806590534555 0.3447373685199547
Ni 1.0372250831495335 0.950875952710239 8.057369273207641 -0.5884964601526187 -0.39836646669932035 0.19840560319852926
Ni 6.509918410396147 2.336342899533976 11.638355218450371 -0.4574301056306961 -1.6833364638071848 -0.1861185583010601
Ni 1.6742738158967356 7.084826741473498 12.08187592168838 1.082039252345472 -1.3963740973141694 2.511214712460378
Ni 4.744024584771202 5.970497556867529 1.8061680078872058 0.1648236534780258 0.2774842517992512 0.6909904023534874
Ni 9.200193857438377 3.9250885361019026 0.6325988045687727 -1.9429651754822537 -0.28913854820872786 1.3031019308218847
Ni 4.8795654789104095 5.581329414537623 9.213173281074956 0.01802009072650445 0.21668511823400746 -0.11985505918713553
Ni 8.620751637273568 6.568261913180001 11.614775263599642 0.44397680833926767 0.23929205700024597 1.0074834313157681
Ni 5.972027511209799 7.5893105278570046 3.4461260673656287 -0.714127502591583 -1.6225833529885278 0.21539725266051937
Ni 1.4980025518895543 2.9744178211692853 3.919835381893782 0.771390083758478 -1.7905121277544387 -0.4307983619757806
Ni 2.8086136838208002 3.8886961465336563 5.754553830446115 1.0513595638734279 -0.5599423026640098 1.1471370132860697
Ni 3.8838730587595514 7.585924104526249 10.805629989821878 1.7020252984659396 1.029607002687685 2.8995759883178707
Ni 5.777658006812358 1.3444473782691149 0.15345068893365033 -2.2957917487682464 -0.39713310851285155 -1.616481096745532
Ni 9.304109475844092 4.426848257436978 5.9892506923481985 -1.6284981758110666 0.4594877594906731 1.670164188091285
Ni 6.575034759841509 7.3821603073076805 5.901374406263602 -0.9986763745470995 -0.5150701247416677 1.2014096585867051
Ni 2.834921435315918 3.277283478009356 1.5299076973198038 0.015923098988159676 -2.718152264389319 -1.50633863686047
Ni 6.556600675815144 8.507805556652508 1.0951469155902738 -0.4132284714128174 0.72770575549665 0.20120784853401474
Ni 1.3392511308993345 2.197359608124662 0.0948170545641592 1.285029132480574 -0.9271611401159323 -0.4560576507632017
P 2.9142738233362975 7.193537460683643 9.152427563393942 -0.8585293978801473 -1.4768575966822177 -2.859076228431612
P 1.6310059607781695 5.210753949062246 1.2372460896234774 0.4735190407727587 0.11777503672965522 -0.8398768157759665
P 6.846741590442683 3.3642203348118396 0.025097781506140237 0.8241306086853032 0.6157470683384557 -0.4663150668251518
P 3.681350017196604 6.049234231555045 12.55439672290431 -0.6128378651114607 -0.1403511222579583 0.30513415230603574
P 5.590080007056212 0.30061270578118054 7.460651629561041 0.24732212639357407 -0.210929703807469 0.22432026618176207
P 1.1767961009220362 1.558473064368758 2.1750558590911413 0.1710002146023829 -0.424080840746289 1.1179904736291004
P 8.556913359443394 7.9783014193789645 5.376039394572742 1.4803846359988697 0.14601783362543239 0.39034976704243096
P 0.09185136867752873 0.2590138069542728 0.31625182443593775 -0.28637281253813257 -0.13114605871992252 -0.5985512732854594
Ni 7.561015701514915 3.6824041930543867 2.5111877609866875 0.24201099859330577 1.2881134278328528 0.0636502298607936
Ni 7.909686698724144 6.075607285979406 4.425699858781287 0.6139256988590007 -0.06999776934537623 0.6531098252576301
Ni 4.0324092358181565 0.07375499408524874 1.5813701371594024 0.9266536043518944 1.4545208808582306 0.769668473081681
Ni 2.9578961800707555 3.8398122395001755 12.434201084238264 0.28746373160946626 -0.2675284261381199 1.5160628061267696
Ni 4.2247450204191646 8.946016198844058 12.99857232123273 1.2461010879568089 -2.6157351981729726 -2.4656730192748375
Ni 6.927008219472468 0.7803242924057728 9.439923709387132 -0.34291214238575785 1.2443730495221086 0.4859595805289566
Ni 1.9886421172735018 7.8655605765355245 4.675498489520355 0.07864747460057422 -0.43564309166259163 0.817885656216856
Ni 8.440767435289416 8.84298683447807 8.381007791839975 -0.2884548918781419 0.23078530508081546 -0.6251858451538523
Ni 3.1741048498051 0.2527680482216553 8.039373651706194 1.3123033948154947 -1.769847400316236 -0.11245388162705794
Ni 8.60137532526812 8.964161084183775 11.772982804479163 -0.5135133217775091 -1.272866014755479 0.3558195944760452
Ni 7.608108442489154 5.109151920149718 9.306347500519156 -0.7285141103305581 0.8277934022488712 -0.16570991273772107
Ni 1.772731975215698 0.010058516901431218 12.325106943543561 -0.04116259028123878 1.225396508419606 -0.10160922560307016
Ni 0.015933914735340865 1.1855653514204088 10.191121962451447 1.1563490188026408 0.28501527006897365 -1.17591022876402
Ni 4.301578581168736 1.7780308414742891 6.476340577078283 -0.9097974520265041 -0.6164230113595577 -1.1284684903422888
Ni 3.8422937508114168 2.0446720305641675 11.399466841389865 -0.24518014034990673 -1.2957658021717877 1.6908577118848944
Ni 0.793257071092894 8.11007340160185 7.182384653267893 1.7521798078331436 -0.05716462213644993 -2.0699822996354675
Ni 8.703285210847081 2.6696490503912695 8.324480643388071 0.14346524240690778 0.428409807138946 -1.377274400370241
Ni 6.3626043310133795 7.0252704700037 11.264319630624094 -0.2635730410347977 0.11927296143142041 -0.6619500492570793
Ni 5.936577349620633 2.5991312157985056 4.754335917298703 -0.8031272669607588 -0.140070614903062 0.22797020422952352
Ni 0.9105457965086275 2.3936508844398294 6.295767715831953 0.48837590327993313 -0.08036008641630676 0.4265156754400267
Ni 7.288609196671851 0.507334725694466 5.410270257183039 -1.833806676777016 -3.784834060442114 2.4485276178438027
Ni 5.887450888849962 4.861392606601016 3.729977377008058 -0.8461145691555622 0.16306604735697078 -0.07187030377774074
Ni 3.2570209119641804 7.217662228544059 7.022593049904728 0.4339687892839623 -0.3634542282031676 -0.33038804177681813
Ni 6.054738335591258 2.7427043702346268 7.7566007732952675 2.6956512550733254 -0.8018435151523288 0.2529638980603837
P 5.7240443019036915 0.11965549015130501 11.201047622480356 -0.48535922794079633 -0.5534474389682855 0.25576614339586917
P 1.6502143509655622 3.9817901366647845 7.727640789973886 -0.04490200271901299 -0.729241475414886 -1.3923642048238278
P 0.936173464640627 3.265202436099364 11.313433030808914 0.28138538662587026 -0.14625514644721907 -0.38569812720303254
P 3.5278508175155157 1.3991339170153492 13.519564688128916 -1.7871938620144832 3.416446913713703 0.7999804938016609
P 2.3023853763275115 0.33429129218987724 6.093949013005842 0.04988171532179151 0.062388589539550614 -0.3690834014644869
P 4.205256760535016 3.4549447615104283 9.79409321323864 0.5643160062516732 2.2053313406931436 0.7221621999706015
P 3.8425642915182814 2.981246641770146 4.096735419819676 1.007513256112439 -0.7104017170005636 -0.6577928325555962
P 7.896252953279829 7.388625297302758 9.683769511676187 -0.12544386612882266 -1.2807464459448201 0.5070644808283719
