# total energy = -340851.8224283135 ev
CRYSTAL
PRIMVEC
9.45843608929097 0.00000000000000 0.00000000000000

0.00000000000000 9.45843608929097 0.00000000000000

0.00000000000000 0.00000000000000 13.84337729004506

PRIMCOORD
 96 1
Ni 0.9949234414697349 9.252043626742566 11.920795303004361 2.4773154886097726 -2.9037002948988895 -0.5353561286842136
Ni 8.525087140185217 3.335110799858529 6.900522224300561 1.08720562703776 -1.700968317956335 -1.6477950763674656
Ni 3.0124740839284017 3.809687834298859 7.749065961879872 -0.4732819850612881 0.7143578734348343 -1.2299501892285591
Ni 4.229065435296365 3.8774291540928134 13.980150341612891 0.8990067891689033 -0.7199929602334245 -1.3668488341615428
Ni 2.8709758789413096 5.269635289685064 10.903888564206351 -0.4674944318452336 0.09498863496275899 0.07627588904460411
Ni 8.74263117191671 0.887930557446106 10.019960816944105 2.022504822879794 -2.1104306374585007 -0.37104386762496744
Ni 2.946321781409704 1.0771740023365632 8.068585177250924 1.1655389128320248 3.0023476096601582 1.4329904629856223
Ni 9.337131718458066 0.23000835890609014 4.826161376720639 -0.9783926845973988 1.2970104732121663 0.03636979687828575
Ni 0.9979217657331645 3.1026129805545373 10.368758621455369 0.14493719896674392 1.4793330548059038 -1.3607992855333533
Ni 6.3453716097249675 7.6386330446240365 5.129524637282972 0.8217148001549591 -2.055885455222769 -0.49024021018218156
Ni 5.696163468421221 3.5446813699052533 10.036088396444338 -0.33247449199220164 2.721850796286829 -1.147941768575552
Ni 0.8627900341268753 2.21351052286793 7.925347565853597 -0.2547497863162129 0.8987463364186651 1.9778720146617679
Ni 1.3064748702177178 2.92573076588451 0.2191046736982613 0.2878267713758398 -0.8883778487001474 1.8824447494996934
Ni 6.5392600926146995 3.88598903881964 6.090988860828787 -0.036624336091253054 3.5239221111792474 0.5704429450850176
Ni 8.262085864258006 0.5000911659879698 2.1502506101276446 0.8012459907776458 1.07455734214613 1.8073446259307455
Ni 6.4625048831581315 1.6418993918391915 3.2830534589087987 1.370898321640568 0.01325532234800943 0.24139084851080364
Ni 2.234432583658802 7.604478631642192 9.76091032980186 1.4662163149182879 0.20872061197129219 0.08392183562563611
Ni 3.5881428840707406 2.8974405833232537 9.653361289731892 -0.7174555385235514 -0.8583697323738314 1.607897468841579
Ni 5.776607467981061 8.796591550222281 6.85854946798701 -0.8519304045063909 1.6364364568215366 2.3616186745653844
Ni 9.471867141589156 6.96685707463719 10.091323771944579 -0.3123280989513137 -0.12686902861112342 1.1759927611754972
Ni 1.4576301385264558 8.068698678484871 5.784842928347523 -0.38039754092572553 -1.125649532836255 0.5404451131713466
Ni 4.29622033204826 1.368153332431677 3.3706404694583623 -1.5599289113821007 -0.22411869169391727 -0.4268532612851036
Ni 6.038833152142971 2.0309532465005593 5.421371305974163 -0.29495746888335006 -3.7158079109813875 -0.13952759791539843
Ni 6.149213102156296 0.12419494187189249 9.501803092042643 -0.8883637076327604 -1.3889343532066725 -0.3004010084964246
P 1.807923321794969 6.372526779946754 0.6620139180238003 -2.613353328204357 0.498778843780812 1.7087464192398574
P 2.759517667205488 5.566942313572715 4.958061160690291 -0.3361611968151695 0.260756397521609 -0.0811365595710151
P 8.032643119834418 8.909496902690925 6.4335573392836 -0.3072846229901353 -1.0689235408991205 -0.09465362022084343
P 7.8359454814045 8.209203747674929 9.391166818409319 0.18233800821270532 -0.40952016932329466 -0.5856821306322751
P 5.981382610893532 5.679412577977897 4.236544220769847 -0.1261858865011698 0.09554964967255157 0.1993062606359277
P 4.779981508002124 4.574856402951652 11.810753965005643 -0.4400255370010035 -0.05284079795011545 0.6013463195320934
P 6.385314585638101 5.296629666492093 8.564841893218723 -0.44717268956874606 -0.5506847886214838 -1.145426458352866
P 1.2317532245360316 1.068216863290923 6.25103222159918 0.5632610826245976 -0.9044490432303972 -0.24938260846702856
Ni 3.392107336172179 6.071266129743287 13.373020891107714 3.5183608150413854 -0.21337096625910995 -0.8096167313398445
Ni 6.7931339776453505 5.136867221275718 0.7051831665118743 -0.5588750377417601 0.6379410879369917 -0.47594410527448355
Ni 2.2306586676300686 0.4687657712622512 4.3803767678017795 2.1483160996503647 -1.9017907581264728 0.4828644865434006
Ni 1.4025631231899016 6.241290978195692 2.7895926566705587 0.6932182632427416 1.267785514908778 0.20439395957148027
Ni 8.361418360833838 7.945786300556579 0.9993537729681274 1.056811845237251 -0.4050729321852185 0.4852998354577706
Ni 3.703469596196918 2.250861887272611 5.48737605688873 -1.76875596702427 -1.6671020042261933 0.7269038284206449
Ni 4.283621695080158 1.4215367461313528 0.33955218316267477 -0.5837314346638076 2.2055408856007888 -0.353715660759165
Ni 1.0049210084932212 1.7776468676396426 3.380359012615063 -2.154020863344626 1.9506648581193569 -1.9171831814221434
Ni 3.7876307611685185 3.7496645984132924 3.909494198526419 -0.5100377045240829 1.196093131469798 -0.6984118916285391
Ni 6.818265042528419 6.40643527358838 10.321774785663065 3.5423682336995763 -1.8977623536933703 -0.9788228301562819
Ni 9.544697100038396 7.139492451470373 7.779535368132908 -0.13577841528561133 1.3975341790605416 -0.31909087159644406
Ni 3.8590514126295834 0.4373978135738025 12.130300609841566 -1.7521661809863889 -0.271813426666719 -1.5911187067213437
Ni 5.725144116822321 9.133501046321227 13.092194246389148 1.059591721975233 -1.6244751706946023 0.2779005134010633
Ni 8.606949905169394 1.1206071411935636 0.00346840854069296 -1.3572807308571335 -0.41502695807413686 0.31143798303687653
Ni 4.994905552916675 5.779407165085085 6.33881313009007 0.48308765829780026 -0.036882989069278414 -0.19897381699717345
Ni 4.036491675033183 4.994319129874618 1.9814856253720508 -0.9288956063085357 1.1379679451922917 0.36981230921071145
Ni 3.3028575325452945 9.276890938540767 6.492460696327558 1.3916391537323451 -2.1254348241768173 -2.5010154033298737
Ni 6.879186829849399 1.8911670184588325 8.17767026735364 -0.9825653279178497 0.3814288104037173 -1.4205836046808373
Ni 6.9917327617438785 8.220932208516105 3.133185483761742 -0.15944413433366733 0.8880235506845222 -1.931050683432855
Ni 1.4278266061792415 4.910602511402642 12.923305356119828 -0.8790501435413184 0.3428172686791064 -0.8718423129389694
Ni 2.8129010809051636 6.162294119368673 7.100669354398847 -0.6274162771462679 1.0134283360452934 0.6224149672769345
Ni 8.327821995585566 2.496421806916654 4.377276292427798 0.15859695584202363 -0.2557206348699144 0.21217103241373783
Ni 0.6584745712118906 4.223201204875776 3.423605820279667 0.13689196006476426 -0.7781651976987825 0.062344366565176494
Ni 3.279069565597264 7.735686058084768 3.8687113134820783 -0.3699285230736016 -0.19076119927939406 0.28913854820872786
P 3.9201907439822947 7.877950396401003 8.120262289066932 0.31160741873520525 -0.5969929276594041 -0.18401719568734115
P 8.421810475729732 4.57349438814429 4.75204412510972 0.23706728143478528 1.1513129990406301 1.5061866846636383
P 3.9374050977975696 0.43456122856874707 9.911387428237767 1.3494625203642954 -0.1175994303837394 0.290850388693512
P 8.66033331886907 3.0186031505615323 2.208267711703201 -0.7897850413258979 -1.113274813320986 -0.41470145641391803
P 2.4395103965284632 2.7897279123076784 2.169021822535224 1.7916269580851725 0.5361122901239477 0.47298270865331443
P 6.27643852697457 1.699785021152093 12.89525825536794 0.21902225100761633 1.1243328709073603 0.3287499919527629
P 4.900898155900185 9.128667785442323 4.774539123834372 -1.149821244986452 1.0902138177364644 -0.36397590503459254
P 8.898156237732403 3.9773953658915153 12.858434671701113 0.7759746178053668 -0.21150717357749382 -0.34567325007066274
Ni 1.5375444656612114 3.161964667472586 5.783721157818682 -0.4984417721563673 0.4690332370872632 -1.1240467071255091
Ni 9.075568124827514 4.812433402474765 0.979089073490531 0.9986925724970156 0.5189342356827643 0.9032802197332765
Ni 5.586984739800499 0.2792754611879595 1.6940692881792523 1.4367740983977708 -2.1268039366102016 0.007344099069897028
Ni 6.91869471769907 3.890037249497078 12.120057123477862 -1.3631927254661942 0.02856675589409919 1.0450878719321033
Ni 6.91590447903121 1.9047587912239696 10.625650693465388 -0.38994687517705745 0.1275449716322255 2.4860847501619703
Ni 6.199257687890702 4.200387456852456 2.6951813844299397 -0.28566781605130803 -0.02943553165229769 1.8133862041391349
Ni 4.4182436169773025 5.923279437548899 9.182284822515205 -0.0864497442538124 0.07877680108958691 -0.6621387682291177
Ni 1.9667872155759316 1.0474177621701601 10.17623877427831 -0.8145331948048553 -0.48430044765897884 0.7797322850755862
Ni 2.754892491922153 3.054422248307931 12.121828688571048 0.7595658374300404 -0.6721483299463198 -0.39776200034610204
Ni 0.4129959941188427 1.9049101262025654 12.182060955895802 -0.1703129587273712 1.3460753490596171 -0.7619330521106362
Ni 9.006701251130254 6.57441709982974 12.907052925262253 -0.1623944752112429 0.3377887051162634 -0.5231652430449765
Ni 0.6893166398497188 5.347771430821319 6.573375726008278 0.25959425889270776 -1.0872951014277727 -2.0581786221323197
Ni 6.265041111399072 6.4584661309168565 12.586398697551731 -0.38785759674819653 -0.7184739524857368 -0.21449968054691446
Ni 8.038554642435818 6.13270813105319 3.1162690706855773 -0.6344572431534493 -2.174824944574171 -0.902857016152929
Ni 8.996599641308983 7.570674180798351 4.435418245360696 0.1085486330353808 -0.9688528634277638 0.8247571865257087
Ni 8.692671712107765 4.694079990776672 10.756109957607533 0.13814305886304595 0.12671296264923337 -0.07088659970823276
Ni 4.884374267924754 7.167404296585139 2.1481877252006605 0.8607911973311305 0.06569219999148686 -0.2887950488263801
Ni 6.505588059877129 2.521316410895667 1.2496060227922572 0.7270974324886897 -0.37929428055921777 -2.6793872278059787
Ni 7.214497850236926 6.844152782304466 7.245346539780067 0.2102275355341218 0.19116331981381915 0.27459124652217226
Ni 5.313163012903686 7.679521864153394 10.801530313902218 -3.973270211132758 2.925007283906782 0.7746204177703175
Ni 1.0279050083674615 9.212062817084783 8.130699673371963 -0.3764066745987775 0.07670166372811307 0.06778764906793486
Ni 3.486852491209325 8.88586027072149 1.1044048400476487 -0.3203183162456419 -0.9309383477701775 0.31200002618793365
Ni 1.14391272789732 8.684319912976507 0.6534748418565312 -0.9562817116309725 -1.1763519442871289 0.3930882490195166
Ni 8.60271252576871 4.989239949655496 8.228628538021319 -0.7870517015551349 1.5634153272688043 2.4908258643913816
P 1.1699707195242879 5.114961483123973 9.353180792938153 0.4638748328147753 0.6852072200128071 -0.4368818491656992
P 2.8143103878933373 7.668266325120332 12.116623711150968 -0.11158433453791104 0.9740678319697998 -2.0425622557513017
P 2.0801844067250124 0.8647990059677348 13.551005013590641 0.9536211340796736 1.446600340459573 -0.2997281507991161
P 4.802133165494087 2.683301588610168 7.139804579863726 1.1810555204103852 0.4711022038011499 1.9886886456612978
P 8.431760750572407 2.917880263869852 9.212531955518429 0.741004272377769 0.30123533147226184 0.19783841784114958
P 8.465688161086359 9.044468786726073 12.284986712369667 -1.3578692563707517 -0.54619024318524 0.4931465851956991
P 0.9023433224701254 8.443877007296235 2.9306709070920474 0.14186087403426534 0.893109706958178 0.21176119856982886
P 6.456442025578137 7.508768716116498 0.5619550135507088 -1.9423545384814485 -0.5453574628712994 0.9997189568790008
