# total energy = -381173.39023375104 ev
CRYSTAL
PRIMVEC
9.19121416941842 0.00000000000000 0.00000000000000

0.00000000000000 9.19121416941842 0.00000000000000

0.00000000000000 0.00000000000000 13.45227099910852

PRIMCOORD
 96 1
Ni 4.503125187122806 7.788681015136203 1.3380303337938584 -0.6914652851073768 0.7211725823638224 0.785764350202279
Ni 6.786452617554785 5.213753117529484 13.36080969137643 -0.08567249976815568 -0.40192230237137877 0.4633433857913375
Ni 7.683331316001207 5.7802352329358 6.980921250364779 0.4145343347084345 0.8570283878545885 -1.109807937818308
Ni 5.077098142242526 3.2085885988599814 0.8903492597563597 0.6463884473733965 1.217999444624586 0.5716279665320542
Ni 6.741434049559391 8.651120233329719 7.85786144747343 0.3412532666260962 0.8618762028651931 0.5992835234657937
Ni 0.7210617969620823 0.07348927363494791 4.657553213641429 0.02561718634747201 0.16989181202955256 1.7067921237269639
Ni 1.1440672177743392 4.753512249052274 5.985951154773145 -0.15367792127385144 -0.6995866286629305 0.40965720912179127
Ni 8.801295484958292 7.182410132712317 2.262941316954277 0.8445310267185261 -1.8078984415516863 -0.3512078067356467
Ni 6.684577197452509 7.727835175991755 10.715016611838045 -0.10443409664637497 0.800442521039744 0.5914246895430072
Ni 6.906002742894943 1.1278355331929044 5.883095032097347 0.4572434435411868 -0.1020637966419855 0.04327269464570612
Ni 1.3939395716989593 6.637766342654521 10.118422239905287 -0.9947510713507642 1.1056972580840443 0.3580320287463318
Ni 0.5677100616464522 8.525926702364984 12.39450607429048 -0.7554726411972731 0.36397899035838605 0.0010582660611852743
Ni 2.240974314604544 1.8881879333535805 3.839453332701198 0.3323423372897115 0.46137417788010865 -2.0215293463404023
Ni 7.72365317345237 8.516018573271674 3.889024309175179 1.0063580594620734 -1.1190860206861242 1.325144255333905
Ni 2.139650367364604 7.356739895711223 3.034254240253889 -0.09885608833796523 -0.8911952635442846 1.5701449326831538
Ni 1.0535245649930753 8.418371111780644 8.421578845596565 0.09731111244834853 1.7600152447171626 1.6192779427643789
Ni 4.013371329296226 1.7168453150256628 5.200204348423315 1.7188845361151237 -0.19894244953860576 0.6423394741150034
Ni 5.707091548961249 3.1633402505052803 6.441525643713553 0.7096201016395327 1.834796808604427 -0.5655686477118518
Ni 8.90362127456481 1.4472118502006552 0.5678727461408415 0.9060536687133558 -0.09640736968715655 -1.0761223726404048
Ni 3.655152940351249 0.45666548608639584 11.1852676318881 1.1711562590188023 1.0002084949209096 -0.4910781327024446
Ni 9.083649590474524 4.705092931739139 4.021784966932605 0.13915710194985711 1.0880618043904682 -0.9112724939101338
Ni 0.49396711049482955 6.923015680698021 4.913845630805082 0.13907019866300563 -0.5226237687192096 -0.37445983528505183
Ni 1.886588662052805 3.9381320484447975 8.588858028050502 -0.700251258830123 1.6301948467871987 0.16574950772640487
Ni 8.949669258569898 1.9462855994007195 11.633752937183171 0.5662420196297926 0.07201994198172759 0.7591508613798087
P 1.785540451244033 1.8160093268881188 1.3838751919613201 -0.7122320853410831 0.357322661384133 1.3287299158026342
Ni 3.1379173515515726 5.614968007307954 0.12412918834042454 0.6756231758687977 0.26958607999809703 0.34223697069560416
P 8.932886101126128 4.983090401642914 8.969557208228622 1.097061179675601 -0.7320198094909716 0.16489564436654183
Ni 6.414520936766376 6.8911405492549775 2.453089159887866 1.3249287968889891 -0.4238113891349863 -1.8833207243467436
P 8.536469025249982 4.980673112263006 1.4517559865863068 0.18307514348904602 0.8511385047327147 1.3317100814768807
P 2.680194875812365 7.797247226931162 12.074516703284097 0.031117804450727052 -0.7474204603167579 -0.3812390629904144
P 2.0487124923653326 1.1460065640068888 6.126635558440909 0.2575970259570209 1.198162098183685 -0.2979494616321385
Ni 7.39121614082162 7.555095493079252 0.1210133666682239 0.3883286228473441 -0.8201731666994521 -1.4486826769098986
Ni 2.8916019975890226 3.630777839835981 1.7926232010393068 0.7762610386975342 -0.8512675741114113 0.6659108336770402
Ni 4.546149261599417 7.880372569714001 6.598257907675305 0.822458363189203 0.21985837375566655 -2.477106715033076
Ni 2.095881804523839 8.224693842528103 6.4363868357580145 0.287499212833092 -0.43673581050613813 -0.27383457086180585
Ni 5.46163097793532 6.808318516546423 8.459340030723613 0.6386319433564291 -1.2014145436827115 0.7732119674585652
Ni 2.2402482086691347 1.6620748685812865 8.358488511902408 0.10652286085460365 -1.4947313916388452 -1.5264732028268162
Ni 8.283802542156192 7.1192481075460545 9.229629971863591 0.44889352891459466 -0.3515394790434526 -1.220658479513988
Ni 1.966680904092794 7.835262089574885 0.8312396410068333 -1.1668236930817195 -2.7339195545259045 -0.022802342606496214
Ni 7.720564925423287 3.871183242957159 10.959161920087304 -0.6894089167989804 -0.7154457071823743 -2.100768174668072
Ni 5.0269692590561466 2.1883362298945355 3.1166488814941324 -0.03999685210791176 -0.07961960870585642 -0.7539050395998371
Ni 3.133928364514006 3.312706675269093 6.611105387124868 0.2083735130445185 0.5488847592982676 0.5170534737202837
Ni 2.9682659166681535 6.142415035275227 5.595929325857228 0.38642497806672804 0.7441312480425248 -0.5441696132107854
Ni 6.785561069760674 4.657418102790157 8.702677431229548 -0.9594230854734316 -1.2217558263432249 1.1163573089010514
Ni 0.8835348934207563 6.237939326246263 12.915055095871361 1.1097593439685598 -0.20361105865886867 0.7661810287537127
Ni 4.902051464522581 7.020460935472862 12.657686387504715 0.8295893178070293 -1.0200882645639722 -0.12854101699690765
Ni 8.525310891002043 5.899426900915439 11.434322886855025 -1.1426244701276966 1.9057960226311244 -0.7915976690546044
Ni 3.1074025198356257 6.386395820787221 8.21979492526768 0.07490986193501294 -0.8235292276558785 -0.9207848042759431
Ni 2.8610687834443302 0.17649337486213965 2.17259535616058 2.1576944555414714 0.9011037809072481 1.455301467777997
Ni 5.723654117260087 0.25092842445599445 12.728982637390438 -1.3396622464444221 0.1781082864020739 0.8842072622622256
Ni 4.962888112452657 1.2845273558114185 7.4108559276922925 -1.3394784125683898 -0.9826028660240046 -1.43555282439616
Ni 3.2066768262705487 5.386970743589345 10.322102307759176 1.5944493137564733 -1.2452281984335525 0.16279788129724868
Ni 7.379580063426322 9.146149848205983 1.6310747407464834 -0.711876244663561 0.7393518243760105 1.02135556131217
Ni 9.040331397138 4.052921124740118 13.076360908104755 -0.8284924851984248 -0.8601149971997122 1.9374391034577019
Ni 4.420698376632259 4.345367183637109 3.8928717515114126 -0.43800002193054244 0.27974090904391175 0.12654147006837563
Ni 0.5852377074543772 2.7297079476358013 5.059130237266167 -0.468163175777484 -0.7381534331925351 1.1523231854726992
P 7.7095446593909305 0.11305837062902142 12.236414429723068 1.2303754496914359 0.41613381798507043 -0.4259636595912987
Ni 4.357940764898378 7.6526602336409315 10.559750346568672 -0.7570548980827284 -1.3878002396022293 -1.1527798133941438
P 3.023900337263523 4.162526356129477 12.014129505736825 0.13414550766787867 -0.9418904759063069 0.18775095169816053
Ni 1.5890414791792036 0.2413566938087091 10.403879299393601 -0.7091192507437143 -0.09448829828757276 -0.25222393457056563
P 7.459047302888996 3.379517612541147 4.855691898350272 -0.4398260193956876 -0.10111711645800005 0.8121888629423947
P 5.323477834705682 0.3962599061103789 9.221504938358501 0.14448982701668017 -0.5997969727671025 2.038404010608554
P 6.372857162016862 5.66370901712412 11.229781602214457 -0.27988977591695025 1.476476302083399 -0.09743529673103864
Ni 7.273982201503275 6.082892731000385 4.442720526268227 -0.315015930196122 0.8318364619699933 1.260401820850197
Ni 8.403913331573058 0.3633057261000304 10.15591320332979 -0.7478842873270539 -1.5831405736118735 -1.431612608801489
Ni 8.309905590973447 3.310546739891609 7.0235114995230195 -0.36079519331376575 1.9072417539387152 -0.16926317730661816
Ni 8.156835106817608 1.6121573833254705 3.744144116146473 -0.8964701387899786 -0.1439583799932424 0.018561822162587387
Ni 0.37487930323759694 3.0975403468141764 2.496916546500614 0.1659279422857981 -0.46787366956152326 -1.52240186097092
Ni 0.7945455558684068 4.094879018349546 11.124503594551562 2.6167014187409836 0.6527727536331854 -2.576743133180491
Ni 5.667973740592855 0.14344452534375673 4.0640388176448194 -1.1236260746483229 0.14434455968806753 -0.07609694026457861
Ni 3.239746815581988 8.861746101884732 4.383059434656364 0.345117891787825 -0.07695440316886748 1.2171049578347748
Ni 0.9519340725363392 6.351983914177429 7.569714119538352 -0.8453622643705699 -1.3920998954188477 0.3554287867955298
Ni 4.191423534115904 2.287445094470758 12.476295933625027 0.3043471376283662 0.013480808095254202 -0.04119987127707743
Ni 2.440800506272137 2.4306717880338917 10.474920033519776 0.47597624406399963 0.7776129247397382 0.8686407752825364
Ni 6.229933778528013 1.645006783491975 10.716012020354563 0.11199776792624583 -0.5177129616811535 0.5353702697516005
Ni 5.259488600245915 5.615694113243364 5.799664540997348 0.5182366953951075 -0.04046479288326579 1.1291899418893456
Ni 0.09049210110221617 2.384770863458759 9.260570356804974 0.3320412611095249 0.49178904272654006 -0.10083738043405213
Ni 6.735349465644946 4.287251135161225 2.906295992005975 -0.3287114254053436 0.955980892561102 -0.06493758121364944
Ni 4.869018240068631 7.183871535797508 3.9260318147236997 -1.5473716435423803 -0.668135866352817 1.3312197721040235
Ni 7.253954545386091 2.457326309713484 1.7482709960859022 -0.8206735033746383 -0.5619914718835547 -0.629365944673471
Ni 1.5981132077646372 5.450454461258636 1.8518532246971098 -2.3563183453983934 0.20978376312848385 0.6581119064579117
Ni 6.852951053538182 2.804708256913551 12.699738031500738 -0.3805638913002607 -1.447257257317282 1.9376329646360626
Ni 4.694173769064877 2.7466289732951563 9.205752116045863 -0.6473243289241045 0.46987450204163594 -0.06295757466914319
Ni 5.275674328755489 3.9155032786602613 11.207410186432343 -1.0293048980662338 0.22131824613064463 -0.3123394118052234
Ni 2.686794167731658 0.4744256696179394 13.40596888495172 1.612731142784797 0.7043079453979999 -2.197208197365377
Ni 9.148943977375154 1.256815844479015 6.955536954511436 0.8262026607229834 -1.4035009381669377 0.653989399649106
Ni 0.507505769265188 0.14859987748516482 2.467523042938084 0.09627855741877613 0.46985470454729406 -1.2062554167147805
Ni 7.099827071577441 1.8471583523957529 8.45738873591238 -0.07206905005210815 0.11451487792114472 -0.1544734205919533
P 4.538750334029737 4.723208815266888 8.40593447961352 -0.5150904364566419 0.10200003328358562 -0.990052123213198
Ni 1.8185828669123554 2.530433228830545 12.855501541467651 -0.7374085846067107 1.1223716334159315 -0.6134150777711693
P 5.356409955801537 0.7244993111373125 1.4279452266334958 -0.6598363453481862 0.8922620142459021 0.6815655094951617
Ni 3.615483659120518 8.54608303548338 8.474702226425432 -1.3636210712528645 1.912269803280926 1.233395467464682
P 5.08597685532614 5.591263865441862 1.2927112130884908 -0.19336238434766698 -0.7933717302358917 -0.05814395533058374
P 6.701617708898704 7.791594630092214 5.855343079421705 -0.5368453116352303 -0.510971529192262 -1.1287222582243077
P 2.2935940168858084 4.889845531836202 3.9934548868729474 -0.7139866061383445 0.117392713689572 -0.7052471693828176
Ni 8.69326195122659 8.05127400975205 6.7847338604671705 -0.031239417630255877 0.11387235924113938 -1.1991645713062702
