# total energy = -340860.0305290554 ev
CRYSTAL
PRIMVEC
9.37367286359992 0.00000000000000 0.00000000000000
0.00000000000000 9.37367286359992 0.00000000000000
0.00000000000000 0.00000000000000 13.71931774125505
PRIMCOORD
 96 1
Ni 0.9084991563266634 4.968149565610623 4.0123377344197335 -0.2144595713375984 -1.1105972664888228 1.8766176012949551
Ni 2.438167221457381 2.7105192776011524 6.691816095348365 -1.6354026162403836 -0.39522483574654516 0.7153464626003486
Ni 6.371960141420205 4.99813594412048 2.32759163050593 0.3243636899596091 1.8129126069368262 -1.246337372337331
Ni 1.018993196326868 1.2839962931859479 11.376551733830693 -1.4699030197412557 0.07377626255120197 -1.7270213062896451
Ni 7.070195636518927 0.2836154610882687 10.992177729059927 -0.36142485647796463 0.9200358419250607 0.24872312050615872
Ni 5.063142363303308 4.8788278398149245 0.0006064766144382046 2.095675076415881 0.04664469644173257 0.10915129961638623
Ni 3.558480444452912 0.754499089887633 0.7178442807207218 1.1015570106634256 0.9341437420813525 1.4496198440121872
Ni 9.154816050143761 4.772155446116211 12.968595965624745 1.2179467370097796 -0.04121658344762579 1.2964389169794124
Ni 9.10268905705426 6.561186469328458 11.168374652113943 0.08375728502331381 -0.05533476801656277 -0.3199640182300167
Ni 8.812939464644687 6.640122165930995 4.728842517332059 -0.45789316131004365 -0.5012059651650659 0.41983414965479304
Ni 3.482075639440767 1.4327189819753847 8.367274764492688 0.24354748984249025 0.49272338161535134 -0.46863651586947674
Ni 6.188133048904785 5.674662013577182 4.501376292227505 0.2519069175507791 1.5548656379265804 1.4402224619576873
Ni 4.66331773405683 0.8047457242622011 10.161143540111606 0.4264861077536719 -0.7751199831145553 0.23934862126979423
Ni 8.271038080451687 4.247932808365722 10.676825824795406 -0.12099097256379163 0.01769998838292436 -0.27366025006747063
Ni 2.570336004511147 8.537465975539433 9.32004015210255 1.0305061174631867 1.0099763729409508 0.7538255925121533
Ni 7.81478394241204 7.118741886691655 2.457006428562449 -0.7413706545782522 -1.2684758561075833 -1.3527049385609928
Ni 5.195329893702189 0.05985652348000926 4.649449385508741 0.5034263698551523 1.996483973336 -2.8875252278009236
Ni 2.5227271215941203 0.21755169164101087 12.50707851044434 0.817941963376088 -1.4370232382940993 -0.09943510076988682
Ni 3.305044459529176 3.7409296071024523 4.515644896593777 -0.798571015048644 2.063901126438394 -1.9153993500488429
Ni 0.5060564603350132 7.78805960195202 8.495975288700363 0.09866814069687524 -2.0930944601728982 -0.8433547470222379
Ni 4.876999973666309 9.234417277497846 6.947379903942541 2.7194439866175486 1.2736633138457936 2.2993812658917174
Ni 7.904489988782576 1.3913248439636519 3.831805487808101 1.047012599758642 -0.07295248109832597 1.5863675651896034
Ni 0.9531337729413527 0.9793988034460799 7.716306950629916 0.5086169129171563 0.30506550385162945 1.968250946632236
Ni 7.201652020458362 0.5112654101749406 13.517684144567198 0.3756749386390756 0.4264652818180655 0.15511413949974576
P 1.0193212748663631 2.9199833645599793 9.279869278359506 0.5240628151585812 -1.016920408358952 -0.31711754992015706
P 8.699593016085386 4.9395036222764155 2.2325585260212497 -0.40390565134999473 0.7655948172329395 -0.20288395068485707
P 9.34534531853744 0.21516702934250886 0.44887143353375025 -0.3842698793969382 0.3766699555624932 -2.0641818909036065
P 4.292129674472 5.969782720361917 3.4638944641492007 -0.737679321769594 -1.1528913992713434 -0.40046114444482
P 1.7733582426969356 2.317565550338958 1.821897931298873 0.9117607464004621 0.43151261443398586 1.9148825583134248
P 3.599790219411632 2.2625233450842264 12.7771433904842 -0.09839637509272732 -0.10420424002375603 -0.6945138421257137
P 8.752366792581322 5.739959016609276 8.978346353218337 -0.24339373787344531 0.21137887552974563 -0.6486296779990893
P 4.995380084388721 1.8685010191505336 2.2768716256672334 0.19228817744688173 -0.39801731089001774 0.2796406360206216
Ni 4.613749753575388 3.8234741676394357 6.57421493681544 0.4312606463241798 0.014586382454607135 1.1675160911630538
Ni 6.194460277880763 1.8014230183326077 5.620269403830649 2.5261235112514107 0.8707254257257069 0.05445879316951266
Ni 2.844206595609154 0.1387781595737104 6.2580390867331595 -1.30848633506225 2.601988023790209 -1.3631700997583747
Ni 1.234803259606787 6.945694517616793 2.742025128432501 -2.010287454877996 -1.8375530311933255 2.0623906033311385
Ni 4.955785691507933 6.8229556491553724 9.370321469065578 -0.49153476062388896 -0.12048677923386346 0.8860851960112288
Ni 3.7457195537790815 3.037482350062034 10.615939134701382 0.14462223882948644 -1.3198362128574301 0.9130630101516534
Ni 2.1729391564569323 8.197998423887507 1.3828247976889598 2.3515417499453566 2.0513893671246284 -2.985502513078362
Ni 5.0075939797304985 6.045531368295072 7.214385217259797 -0.3804813588887834 0.5838435347616396 -0.7815695953946411
Ni 5.786161848642752 5.075178158866502 11.140249884973906 -0.24224342631908602 -0.003660479570722728 -0.7055852694485267
Ni 0.36225307490349257 5.666581907833043 6.715948615346373 0.865503000984503 0.6657105447407761 1.0367323008785563
Ni 8.50539864172192 2.514581400142083 12.74528696429922 -0.7355437634838301 -0.23345616704475922 0.42346454731852873
Ni 6.169826266400955 2.8524085590965327 10.07237954783305 -0.17952804956773596 -0.7060449826937647 -0.22894568076891542
Ni 2.830314812879673 6.159374621499895 8.7538843901683 -0.7009739959287605 -0.12511347937259742 -1.1070630280833194
Ni 5.237145846978986 0.1397417731125705 12.32680685192979 -1.608091072909624 -1.2863535077189525 1.0095300294321519
Ni 8.91009758069804 2.1614001655392596 1.5190851888138588 0.5630438244074689 -0.23047343026735145 0.017215335437021962
Ni 6.375212805797485 6.639109809294839 12.864603504910079 0.7487710608073813 1.6358276195929442 0.4463411948063861
Ni 4.073648114513334 1.9622752394108085 5.398565175246886 -0.0768063076267774 -2.2849964579249553 -0.004132534111134818
Ni 8.229109643104206 3.9088964456514192 4.084652806095257 -2.001052052322657 0.18262520043582095 -1.0490759100455738
Ni 6.848761369704806 0.6510249932653694 2.1062304783377526 -1.3954240746960742 -1.432183650813611 -0.6163939578938352
Ni 6.282235347704556 8.743996102987918 8.828792219673094 1.0069270445916658 0.35175905125342644 -0.3190546190418699
Ni 6.873292270786487 7.985656619453679 5.461234737861252 0.04176731374477323 0.5567104259902734 -0.3131199987249898
Ni 1.5045775557973826 2.3328258892617617 13.553162557828205 -0.6928775920738712 -0.7922718123034936 -0.7141079622075572
Ni 2.418323156654202 6.413888578767686 4.883225966978671 0.5858158279966621 0.8521612895702744 -0.2741531305434891
Ni 0.5423091389492289 9.298139503540364 2.3708623777635753 -0.9195583880680098 1.06690393936593 2.7283163494065144
P 2.116612758061891 4.627866504446238 5.999690360022297 -0.9841997781974793 0.6040596046981984 0.7935205971089302
P 4.2257734464409635 4.6720633705525145 9.500407422077178 1.0722289511232697 0.9759424232846934 -1.0968040693594723
P 6.21831627453834 7.555151959928123 10.809175519729521 1.2674854671698559 0.9692788952215888 1.1846946598248695
P 8.449287837795689 8.478252485996833 3.8242596813997123 -0.22777017240357547 2.2142818650182123 1.037215411162562
P 5.795844852394139 8.306536178425064 0.6767707223104387 -0.3104882175290975 0.047039360776989954 0.38573515108855505
P 6.002543705948649 1.9922897389383378 7.68222802668167 -1.4859096795821571 -0.6265163910398178 1.9157742168897585
P 7.1328211428722765 4.516835353008517 12.694497594283602 -1.5433954325034516 -0.9650224339380801 0.6778561789643746
P 1.4570905306235968 5.961346415060612 12.54174703839642 0.8404609704142105 0.028382664907751123 -0.04089750954531021
Ni 8.293581762951284 0.933692776058125 6.385971907158415 -0.772675892449437 -0.12389760468762535 0.20716303767618516
Ni 3.044353252046318 1.3890470415322997 3.393445690679776 0.08372257513063645 -0.7576110276965146 -0.9905069513624295
Ni 5.758921956192097 2.4780240771697644 12.545273414012366 0.33601567237624064 0.8388213779282586 -0.008599054522920676
Ni 6.754509092144123 4.828444349821024 8.657122780464109 -0.9357090296859434 -0.5345464882987246 0.7636814022603106
Ni 3.852607541946606 7.553961503513384 13.400453246100275 0.8621202005551992 0.31836067829863884 -0.4171357768870235
Ni 7.89205112529943 2.6607919446862422 8.391475712300362 1.5863976470965904 -0.5079000893557898 0.3997240091684793
Ni 1.6344310417295689 3.5089968270244847 11.46531572610925 -0.05542887039226583 0.4684480540077545 0.9516303289018901
Ni 5.720527393398606 3.3914322258145315 3.8170297677564946 -0.2920737195776518 -1.227040471780932 0.3986163779265974
Ni 1.1868288034600372 4.986390732406553 9.880625140436171 -0.3249481017081694 1.0151921128139354 -0.8264903671667314
Ni 9.00648705560172 3.4728238246270036 6.143153481139998 0.08069124450348039 -1.0162424084553208 0.6733066119204791
Ni 3.0192974253014446 4.2965821689365775 13.480327247325768 -2.2040910405281395 -0.26770583225624867 0.35132222082632397
Ni 3.3101812320904145 6.241628598187611 1.4450144282684079 0.6257013513376901 -1.4762775558090317 1.175638206049556
Ni 6.760302021784352 3.0136544744221276 1.400467924175754 -0.8904912954987245 -0.7112833482745686 -1.0626081402040537
Ni 3.422187245474064 5.69247199143549 11.549360074255354 -0.45295741457132316 0.6202734954538994 -0.8710169888241965
Ni 3.949690668619504 3.834244517407434 2.0788059245377237 -0.017662964497401838 0.09882214977623625 -0.055019807879305244
Ni 8.765846133718295 8.553823034151407 12.313128788934609 -0.21714791680303894 0.35737896854336515 0.6219619388999159
Ni 1.0249735994182367 8.366199604250399 5.843331877567923 -2.1810431575697407 -0.8679979994922147 -0.3838505324713325
Ni 1.49285109142857 4.598208204475875 1.9454541840072637 0.07798721530875602 -1.1506779365597923 -2.171459370536047
Ni 0.7638474535287338 2.45885491679069 3.734494580892068 0.2640317258387711 -0.19179786807402455 0.6300714553809278
Ni 8.690697400828789 0.1156973656365977 9.337175225536754 -0.2986521441261179 1.3434525667247894 0.10248777155328155
Ni 5.489775696062821 7.711551686541748 3.1126113982391708 0.4620758319328236 -0.10020900282143387 -1.1666935952617585
Ni 7.401376861630461 6.2160759667972165 7.0534992509603915 0.6569741933090427 0.5976632142535513 -1.0699902916007378
Ni 4.321572379973552 7.683740000065114 5.459423744323239 -0.6252560362701555 -2.833812054548184 -0.8542256282984707
Ni 0.03135587207043645 7.232847602728074 0.5984761849108011 0.5732642165838965 -0.4925356910845776 -0.6074362344799151
P 2.556256748330526 8.456018134691618 3.6535088621013148 0.2552166986503024 0.7140477983935832 0.2840896729309107
P 3.64936757356563 8.10300562619482 11.253201701918558 0.4876302833631602 0.013411645420215614 -0.4587115434462809
P 8.09018244213684 8.327186379068145 7.257834064296026 0.1120936700741618 0.09191179580964816 1.1899422813770537
P 3.1418300729666098 7.785800546865781 7.3058385161949575 0.1776208052426941 -1.759562730560776 0.7984465736556378
P 6.638453652215849 4.157767452039894 5.913053254046925 1.4801023288717607 -0.2022576299547678 0.3777356778228462
P 8.531410583067608 2.099730773786726 10.661665784168964 -1.5116045132451 -1.1810742894634627 -1.5677190968504806
P 0.8545274244779416 1.4388774848453367 5.696205525214945 0.6023235958436981 0.17858445470754405 -1.4885805415461009
P 0.8458192826724843 8.504939331766625 10.768346614172978 0.09789141043185076 0.1455799747570654 -1.3570462462488242
