# total energy = -381174.86807802226 ev
CRYSTAL
PRIMVEC
9.20470273588761 0.00000000000000 0.00000000000000

0.00000000000000 9.20470273588761 0.00000000000000

0.00000000000000 0.00000000000000 13.47201287958017

PRIMCOORD
 96 1
Ni 5.687005821825711 7.734205311044732 4.98728550325981 0.20396535667449386 -0.06911356696821 0.3875398083974616
Ni 1.5711230675889678 7.7300908089958815 10.376265147150654 -1.698710118049778 -0.9377450862793656 0.6624056487372592
Ni 1.3826567824654135 5.423419959027268 2.4305532599790576 0.3389351600158808 0.5581803256675806 -0.1203962764025862
Ni 8.767230671086063 1.3646707936433657 7.7032968402844695 -0.9344463609234358 0.16620022211057828 -1.8872511697494014
Ni 0.32134721236656555 5.926125585192729 11.841629864089777 1.2392904927928785 0.32199184729332286 -0.1966233144871259
Ni -0.25152770243156264 3.1750148763276234 1.38812897814336 1.435255090650083 0.418068573113938 2.376864544980861
Ni 8.416356613815012 8.256774685356547 8.802747936423193 1.6311050173062942 -0.14298136079195378 1.543220340378168
Ni 2.5210575775296724 5.200463653373411 7.279036450832487 0.018266916629987896 -0.8720762833266466 -0.05943207801438796
Ni 9.2610353498662 8.514138169217578 1.6221382906434378 -2.145672234269614 -0.2733406619445228 -0.4919967878619721
Ni 6.13056202927547 4.9238531364382245 1.4513266250494061 0.1631174694201965 -0.0342316674893604 -0.3305903875956113
Ni 7.006730052819098 6.057090093360638 7.704186014552745 0.13759361411747917 0.42367280667459295 -0.41185678787627134
Ni 2.274316320434581 8.771308354324633 1.9102233898025562 1.8696056887534962 -0.7118621035961741 0.84629403215622
Ni 2.0574811419898644 7.2163027209359765 8.12439173252258 -1.1446309590347643 0.5112864893295195 -0.8752788494243442
Ni 6.518843997791557 0.42441778986593115 8.349414493903435 1.4314413733309477 1.5477187424691539 -2.0294629993651823
Ni 6.08353520384464 8.926195884472328 11.880146021524258 0.44324738637241085 -2.193467756486338 1.1001429039247181
Ni 4.515284003457555 1.5977982956372245 7.944513434896965 -1.347310507018299 -1.0745378017621043 0.04205064931314693
Ni 6.25953832168823 5.0961283497409084 9.670843435812811 -0.004124306581018703 0.20785080777182913 1.5415678923764096
Ni -0.02876009318039294 6.700903809926298 6.932953441249192 1.68249134219807 -0.1254801186833968 0.942204664712616
Ni 1.1770605458588341 0.3041905672460873 5.80362203962729 1.1519776292078225 -0.45784842411503723 0.1742233495253709
Ni 3.2756959130397814 8.939349404445055 11.607904056428858 1.4810862900515847 0.14992565332027083 1.544513348157979
Ni 0.666078051142307 3.28571983413866 3.8153547381433133 0.14964874550980034 1.776084382364883 0.5854867267920175
Ni 8.083394907745449 4.667253642890517 -0.2717209789299291 -0.13071077095471684 1.9682391195576938 1.2946540571648477
Ni 7.2173888758392515 8.058256865026404 3.1655321917398678 -0.14725247736348188 -0.8025749940017145 -1.5548990622676768
Ni 7.4160079478976675 2.920348370319644 3.665074161631972 -0.49918482096997896 -1.587916397733962 0.6765636854051961
P 9.28984606891073 2.19089410104143 5.723611083006631 -0.57539848931808 0.4982124297543807 -0.3878581109688288
Ni 3.795200121395741 1.731027160637387 3.37925249883485 -1.485693449806293 -0.959982043300695 -0.2300170594562232
P 4.591130752635484 7.30933464981235 11.010150671524164 0.308775605713365 -0.4564520579881429 0.21094204510264314
Ni 0.6062152679774212 4.251247110233177 6.501309959865704 0.5249914976204377 -0.30314103313540697 -0.7530982274278255
P 7.45653625331398 8.048389423871217 6.998979693255042 -1.5675946554574745 1.2507221316685877 -2.4834123455361294
P 2.3876722325858175 2.234947807542105 12.601680564711126 0.5678849545498542 0.09015187569574797 0.024180968121577707
P 2.6050136696718917 8.995194334938075 4.03582393316272 -0.0059821857253638915 -0.54299513328671 -0.02359578504206904
Ni 8.120250536836277 3.6139503230871743 8.50327846112533 0.25236020303811374 1.1308094797706396 -1.0202700415574752
Ni 9.214551601887008 2.7087230535296247 12.687362538585246 1.1385965799152262 -2.0725068658295336 -0.838206370052079
Ni 1.944659102587696 7.169828177659355 5.535246049611349 1.0259951169667103 -0.6518530700323935 0.02882875130623422
Ni 1.7676894909742424 2.7184064006334085 8.148654408027205 0.8116507310507377 -0.6986512613328548 -0.48224793600532434
Ni 6.281169372728051 1.8160786123854527 6.168093283534947 0.2798761490701954 0.8616139503427418 1.0340411271996384
Ni 8.353819864553502 4.797122791452579 3.068385760814642 -1.1550871213710816 2.7778054572755773 -0.561452311550633
Ni 0.3480270427661075 7.810254563679204 3.7721635122734596 1.1103383564004812 -0.9810239515726588 0.32086416144678287
Ni 8.99548888542032 5.996108938833481 9.366255225415692 -0.6426330940960223 0.8081116075492275 0.40176520796822424
Ni 6.349219738829074 0.23594598192083477 0.8845709965199051 0.23521608715865944 -0.8652998838347614 0.34534800552076006
Ni 6.0288316564703175 5.41680177787934 3.7510120262375417 -0.4354422885056953 0.6133587706119372 0.6718907054095589
Ni 5.193541717040668 0.7001787127538934 10.090173786568227 -1.0395576861424936 1.2565611069478682 0.7120994164179607
Ni 5.322996653987074 5.870096560648305 12.593731383571555 0.6869038909889396 -0.18006026792212215 -0.4503724274529663
Ni 1.275293131687336 0.4397684723421486 8.883350755419112 1.4428894672668893 -0.8059292551859281 -0.08570643832988466
Ni 4.175860596183756 7.8382736783027 0.21754762242364503 0.46284022090267385 0.7560889346250335 0.7924314778098095
Ni 4.398669626596491 6.125278530000212 5.842272585719295 -0.5165757627529168 -0.904290406165346 -0.09958628163577042
Ni 2.8696672779684698 4.723715288455737 4.401737553963117 -0.55741130871204 -0.5923829396912185 0.8465151470280905
Ni 6.1171691870359215 2.767826448732474 9.314967543165148 0.3161410449395007 -0.663289079783477 0.005816863792093207
Ni 6.186848785491858 0.6180175376128509 4.270210638468173 -1.4733416131091595 2.2961856417725555 -1.4469888341472434
Ni 3.6928530335183885 5.580166839094131 0.9903744502123445 -0.8437581531082436 1.2915088266676467 1.0939331755695805
Ni 4.878630432711143 8.128046919913183 7.357322446191502 0.11473085058669272 0.15386304070146403 -0.6017780077528733
Ni 3.5316234632998693 6.809620551982184 3.6104589794023214 -0.3942017937986695 -0.25225941579419137 0.026304185112167602
Ni 6.111517499657857 7.804676513921701 9.529831994789596 -0.8439993225847722 -2.191515260745658 0.2995026650518713
Ni 4.529624930061829 5.89528983158277 8.189124723817327 0.3667562959932071 0.5348437078241692 0.425064544815797
Ni 7.805587779476144 6.551953312936341 5.177550387265569 -0.9950004683574091 -0.024982123866634395 -1.2920351314847618
Ni 2.306321071270947 2.4211037123205554 5.203955917528521 0.6899599042064439 0.02896193444998883 1.010800154393827
P 4.23122688214313 4.228051259756432 2.7378771079800197 -0.2512533431271802 0.39655666718409127 -1.098870722080514
Ni 8.16083407046801 0.010537543502292796 5.039744944147535 0.03908333915470688 0.19779033821203357 1.9753896145595466
P 6.318199891167712 3.8040826593759234 12.27773210339824 -1.4464586726753863 0.5945642636132534 -1.3127006302539133
Ni 3.6974093612906063 4.1056195108710405 11.72120289942416 -0.14494979737223423 -0.20393013256118428 -1.0962471684147377
P 0.9993269439320596 4.466637150374382 8.912759780130699 0.9017658399712791 -0.012959645484461551 -1.5252457581776184
P 6.106740259023956 7.109169187722152 1.3470667999779788 -1.3789857266343928 0.5216881442788176 0.6813675345517427
P 2.779829380883933 -0.1102309156286752 7.291982864997385 0.531646026822478 0.47984883964552844 0.25432426874302005
Ni 4.12374357023164 3.497013781636154 6.735211577345711 -0.5886954635373024 0.10657428291782935 -1.4992670747256696
Ni 7.014682915839696 2.696195453331668 0.45723347499872646 0.3953019688413837 -1.0098542455407897 -1.8139299924577472
Ni 2.820790307321042 6.465990595633832 12.08249575953435 0.49030474487152975 -0.6377911926226886 0.7040264096018392
Ni 5.6750120943768225 2.201958153530734 2.0012947170314916 -0.08355725319736576 0.640307274176323 3.469160184947019
Ni 2.312018782161862 3.3137389487621576 1.8061522611338168 0.6499807927103451 -0.9345168091500551 1.0564734880612257
Ni 4.66740091813164 8.596391391384321 2.890042807577725 0.6234819750888682 0.9687399919989832 -1.4172951637375526
Ni 0.7206803467883595 1.1331909334095613 3.396549975904651 0.11377568576227502 -1.4354759484116375 -0.5065451179897921
Ni 8.237509242877252 3.8534290698544273 11.043871178919604 -2.80080860303897 1.8133383816203352 -1.872424389149214
Ni 4.033638736772569 0.5940742652874106 5.566904703631078 -0.007159750973232831 -0.09908363096773903 0.2939387978108486
Ni 1.1453595502072826 1.2660608150094885 0.8576592076155957 0.8044009914668597 0.7402190574723123 -0.9487393805073403
Ni 1.474354029469118 8.168381926575522 13.178511660673898 0.06696463894600725 -0.9477716172774322 0.49474169759696085
Ni 5.154440140522726 3.2531075729326653 4.352120525229051 0.37069394048471643 -0.11659104372388307 1.4757006002596393
Ni 7.542278057754806 7.28649778273584 13.308031030538297 1.0565778748495738 -0.00030596127619302146 1.193097539176584
Ni 7.057171822903449 1.7738198228859536 11.419645797583389 2.273451433399833 0.1133815356476499 -1.0883919340363772
Ni 5.113828992783282 1.7855097951500278 12.360369161662158 -2.219463409219152 0.6308201606214943 0.688988027211478
Ni 4.00011521001213 1.3194941134291336 0.9928459128524262 -2.473373730353205 -1.8836529108751818 -1.2707060309896825
Ni 1.1443378282219974 0.5051310652926911 11.540516428912886 -0.04852211597010353 2.7989797773603473 0.17592259160466475
Ni 2.9572684323284633 1.7436468078610448 10.397227936783885 -0.0014958678192361335 0.9894479139702961 -0.1333831755805574
Ni 7.5358623800634215 6.8022567899260755 11.14290365340145 -0.46174030297027574 0.13261235885280387 -1.1186566464581895
Ni 8.430789587444988 0.3413637585755854 13.081849397103863 -0.5024884314219152 0.2462959991219049 -0.9446091603890506
Ni 9.04045385747544 1.9993718546645898 9.884981636404477 -0.06365717183932908 -1.0597526730331297 1.1751928909820213
Ni 4.320595339396589 3.5454213124525045 0.3831153689634696 0.5851252296875407 -0.9576999321347377 0.16002006144179537
Ni 1.7143666489854392 4.39460114806049 13.287634330113129 0.35270033212077323 -0.2831021122066608 -0.34576143890909483
Ni 2.755795902473305 5.671974542528677 9.84831102183531 -0.45369275007545085 -0.21705818530271007 0.09264456021061462
Ni 7.653645754150894 4.096304351870062 5.889856295655618 -1.8879602800012838 -0.24502510282928125 -0.27741071824883834
P 0.5144710769906091 5.640144681041144 4.511507313993028 0.8721968680649107 0.1226609040670468 0.924281504575292
Ni 3.5108116307887896 8.468409206849136 9.349603918466316 1.1222603046490478 0.21188615418346735 -0.3392879153696092
P 5.909060066627695 4.228336605536106 7.49155738518258 0.9230144649374105 -0.7664078000525382 0.5280925051432647
Ni 3.9974642556719306 3.7744711312077928 9.204523998907103 -0.6025922761240525 -0.6411451966965861 -0.08043824795240985
P 8.622367062037247 8.77907712329383 10.941120004599421 -1.6130592155481769 -0.49369191617620783 0.07442803720258795
P 0.7620527234303541 6.179669117487151 0.4989105272957926 -0.5652719424070394 1.4895729873663572 -0.08870203062309885
P 7.931057080209682 1.3383729584004844 2.242120111784756 -0.08310833858540526 -1.0523057298367813 -0.49696441627989246
Ni 1.246344342104255 3.7573319750221974 10.843097285989518 2.37635392389303 -0.16539212438698614 0.6041395660065144
