# total energy = -340871.69581666123 ev
CRYSTAL
PRIMVEC
9.21514979918301 0.00000000000000 0.00000000000000
0.00000000000000 9.21514979918301 0.00000000000000
0.00000000000000 0.00000000000000 13.48730321271988
PRIMCOORD
 96 1
Ni 9.00640801814897 1.903177198668491 3.311726635702278 0.011304112158909562 2.0394905588045136 0.634504808561933
Ni 5.835355248460695 0.6910597332522521 0.7656324097667268 -0.04162564596058638 0.7600412344045621 -0.6350383124678999
Ni 3.7645268333634765 8.788488160725427 0.9037804032790463 -0.7744977761495243 0.19577485044390155 -0.9685782696101383
Ni 1.4786629026633131 4.837806090563361 13.274904931798032 0.4231105064132197 -0.8874414529288072 1.2319728760855426
Ni 1.0986577791613374 0.8670331512726243 1.4929233466485525 0.9536722990325834 0.20325753197419186 -0.5298848211569972
Ni 5.275544126225288 8.572107233282841 12.177672736277739 0.1127223047970962 0.8911276435311426 -0.9678370205687397
Ni 8.772075979311719 6.236122103981246 12.553482202172942 0.7507667510811715 0.4200832895511217 0.3969312769146906
Ni 6.392300459174676 2.464905072017909 2.5349116419122315 0.15742067614573535 0.06307198875982041 -0.022377339253935657
Ni 8.056749992653115 5.241669236345004 5.622842840814558 -1.5618276710667103 -0.9932780863496635 0.4719609522570194
Ni 7.152458148572014 0.5620927932730466 3.9982976695909054 -1.3018384907284288 0.7005682758499097 1.1181871630209388
Ni 7.202173880591635 1.1682966645871549 12.21836315079226 0.1855922534839449 -0.40875655168439273 0.44710352689370736
Ni 3.6202175908375667 7.067936796563862 6.69235955243824 -0.14379460072186848 0.39007774432796694 -0.21989976851656323
Ni 2.518122560880433 4.58919978501649 10.626012026164297 0.5079090882168543 1.5666250924553535 2.8821158838598944
Ni 3.5429946373019905 1.0567472788415522 8.476392239071867 0.4859418399171438 -0.09862031817807532 -0.12304554109997519
Ni 7.664341277807597 4.685009695268207 3.1325749125894933 1.0292097672492662 -0.5569521096874342 0.12298100641062691
Ni 5.578206499247061 1.4626654029810031 5.873396307469074 1.6393268909954541 -1.5817624623174242 -0.43653757845240304
Ni 0.3066774136966488 3.356314136976966 5.779821992507062 -0.2097192284391356 0.420779801397514 -0.8406273207887458
Ni 8.537559637482737 8.754871295033567 8.52833158668673 -1.5949252249516275 0.24172354925987402 -0.7023477363478355
Ni 2.3006358154874578 3.226039567271424 1.9397438337430162 -2.826850535628686 1.169280125042012 1.3758993743995853
Ni 0.7281092421651143 1.0493382985739383 5.440886026167616 -0.08159550148530464 -0.585381568672721 -0.9569496842322746
Ni 5.74205185889653 4.121143907214702 11.974243701579097 -1.4922153100852107 0.8765924260294452 0.5053600965427555
Ni 0.47497921968618945 0.28911149555470184 11.29503649372511 -1.0283330210712678 -0.34868246921063173 -0.19307853455866103
Ni -0.007352767855135596 2.678834769670463 10.049996063380881 0.5504837283542713 -0.09818245930970833 0.42732762981836087
Ni 8.519507159442618 2.137942349536312 7.6886526854469235 -1.1019365054900314 -0.4899098234259562 0.4633351582612214
P 0.9182140920765134 7.306129983077892 8.352362776241153 0.23781804355788075 -0.8895600419337066 0.07012221073838246
P 3.1362563648493333 8.735123229469517 10.537791713112092 0.14593915786869704 1.3304710668634572 0.14792122129573235
P 7.685637488502193 0.7166317733550236 10.105078698519728 0.4809950374348297 0.345523868976992 0.5320687161821934
P 6.727897776818903 6.8188052274905555 11.995404449574771 -1.3872050292203917 0.24751984422667694 -0.3551382521383045
P 4.389148102641332 2.7599833769299247 7.143212588991793 -1.8577004526754781 0.6466689547282928 -0.5829457055377186
P 7.4700029881761205 2.8592397531270235 4.688254349437643 -0.04276952975704247 0.2275539426277113 0.1373025652396216
P 4.926105653902011 6.664386965868164 8.651187960975072 0.787644083723495 1.3249974453433955 0.4818118769091702
P 2.54904860289301 8.891550393701785 6.379022350135367 -0.8409921603273323 0.6619261379976794 0.7969190812675179
Ni 9.042549834827554 7.084653077913925 1.5282597592532685 -1.0741145981817566 -2.148128666229907 2.807630768167126
Ni 7.916864021928766 0.38422197595279683 1.7127793070002388 0.06203274886202865 0.8163545642843102 0.6731646870259762
Ni 3.332880011578282 1.3596768912013373 5.3914412195458405 -0.9308864114863193 0.302811160599814 0.6895444139355802
Ni 5.408435798413419 8.85287441088689 7.872242424600607 0.020386534076151985 -1.2430954683612656 -1.0704695452300017
Ni 4.306801525935615 2.4098169077893083 3.6085143508626047 -0.2504956390255493 -0.08735734366974633 0.8382125406996661
Ni 4.558153946059288 6.383730370059153 10.983640923440129 -0.07660113359450678 0.21592792835300875 -0.1432731810007597
Ni -0.05061605213423146 8.86067042743714 3.5517600875887494 1.6267691089351015 -2.7468974548428116 0.044330960706891395
Ni 7.996095878074217 3.680254290394163 12.428118385682092 0.4632811650948344 0.48859598971053925 -0.7687991831028501
Ni 1.5668610993565113 1.9960014004541546 7.236814549402564 1.9971064374113472 0.5461840725376529 1.3300555765925932
Ni 1.3306215245548367 0.4074404668511546 9.057938213122192 0.9691508542841566 -0.9442867440526254 -0.4109113932438665
Ni 4.588536294246256 8.384754027037996 4.741434056186863 -0.12083644926379834 -0.05580116613002003 0.9406342349017026
Ni 7.299817605611083 7.878842314734519 0.3341182861355795 -1.2334134651868112 -0.21439092288319206 -1.6129185762052545
Ni 7.553658116123133 5.425990658375862 10.558386650923149 0.01727652769226057 -0.8826412033266863 -0.10858874224469686
Ni 6.698888485920335 7.8692769894636445 5.4498551312602395 2.3728641655722167 1.4673216321673246 -0.16089732184042613
Ni 4.225984664061271 4.5809983018844305 2.87062414892629 1.258638558302187 0.4319013652319723 0.5976256761473966
Ni 1.9659784431010632 7.644519491046854 4.587988914360813 1.017546471978725 0.37637145048546794 -1.2905523762916484
Ni 8.05193046941933 6.283792072792647 7.938559248600461 -0.27081558152982393 -0.24300704395798794 0.12371068548779984
Ni 4.457045324795285 1.6927400427092527 12.322417855379094 0.8732474208166122 1.5932912888926303 -0.5732261642571096
Ni 4.0146997143400664 2.1156601178359518 1.3243625949556288 2.6383395658360493 -1.2773546466544516 -0.7254347000742861
Ni 9.348032043622824 8.164465876170699 6.176052229886137 -0.48841755515114593 -0.48180930580600895 1.0841478140480425
Ni 3.907960636678661 4.49078198743177 0.2621018921164233 0.23354641276572036 -0.9471139290887753 0.4183585935505312
Ni 5.933874412690868 6.395378319136595 6.823159385670218 0.10844476046766484 -1.8801256144482137 0.24193026595404146
Ni 1.380779583754615 7.628254752026532 13.796836260142825 2.5093573475366653 0.8126958844858003 -4.4115412273365
Ni 1.8009351140053387 7.128471114198135 11.353638394491075 1.7656554737220753 -0.08776152108670048 0.15522341138410042
P 1.7778603794405314 4.307750686343033 7.353102365065589 -0.7696337631890036 -0.6411919907741215 -0.6539652312793899
P 8.890306348507595 9.35632567825075 13.346522309840088 0.5470811304306255 -0.26488584630895023 -0.6584394650006595
P 1.8534983272472154 8.072074786415605 2.20909897009904 0.7077113146525941 -0.016540935077816673 2.562494336570961
P 4.42287555012823 2.9974024908786814 10.325946482296024 1.3259587808154003 -0.5211754663084572 1.3873796071250428
P 7.852689720207793 4.120950389073383 8.835316786379572 -1.4236450172149804 -1.2582459508494588 -1.2756685172012805
P 5.885559383408407 3.2182527658707607 0.4925930566059866 0.14965851570181324 -0.5316334284169877 -0.4641296291380588
P 0.5984281280929484 4.721123866498031 11.42371868558209 -2.03695313709464 -0.7503684872014883 -2.1017559925026386
P 0.36842536653147406 4.81217875956307 1.7171362297247759 -1.1648668264656648 -0.28641934950535186 0.3050863297872359
Ni 6.660350730349239 7.725345568070785 9.836762109522112 -0.5691239691632779 -0.7972016455049431 0.1593240638160353
Ni 0.5500273979193318 5.051855585160541 8.977998633488491 1.211020442203592 0.5393390245913615 1.3812740084479371
Ni 5.618089666657799 3.7389363629615318 5.529484160352872 -0.2668481122416436 1.4623560606319332 -0.4736118575968812
Ni 4.921378282164094 6.9600273949049605 0.1407208632768939 1.4513903056490487 -2.561896297975646 0.9674513550945467
Ni 2.8566410809436067 3.375444787518715 8.933315294658101 0.5845061080463031 -1.0785289251993684 -2.9683601969711204
Ni 2.544441028099718 0.4103165150371275 12.583167885051164 -0.9074505490608823 -1.8650882604991168 -0.6427549643858673
Ni 7.078082676258691 7.412564960802941 2.6699734818280034 0.09751088716398046 1.7472186071731262 1.6174018087875888
Ni 6.056758432427969 2.1724715150372433 8.176556152428297 1.004353884547851 -0.3951523306373969 0.9274429330224091
Ni 7.4036907717510605 5.134994664730704 0.5847998433693489 -0.8963858066062885 0.38487691685331776 1.0802109408874816
Ni 0.3527568476894048 2.203941250875429 12.759851791104662 2.0967163731962017 -0.6059210833869694 0.12551714256891933
Ni 2.2330334781202756 1.882701136287101 10.604823632719864 1.2312190286386537 0.14804180603399664 1.4475354506793328
Ni 4.405127172024469 7.206062673717174 2.581145890418042 -0.15760965222808984 -1.0637785063630711 0.5524431660734873
Ni 3.04715508349665 5.793242014850006 8.615392633920944 -1.6466717613962998 0.3071136446299098 0.37342393782136973
Ni 2.7846891929715567 4.106657692064591 5.427209822666167 0.8431392885773221 -2.1253191245345593 -0.5721501575841115
Ni 5.533844769137245 0.5331406363019161 10.060489354215125 -1.1799206354749938 1.527730472272685 0.6035165877105348
Ni 3.3520475227183777 0.1897860057357032 3.0806890128422304 -1.8741382865165273 1.5675740866321841 0.5482792645037848
Ni 8.386375893365235 2.9214051522381213 1.278425074266506 0.2243971421662845 0.5421631243037178 -0.44525336105884605
Ni 5.528463121778679 4.597097168212193 9.078100960417638 0.17052121808343537 -0.33111309286830076 0.0967603821512011
Ni 2.3699153100793984 5.623379162520497 2.1238459352137142 -0.5876600802942524 2.280171782842802 -1.0824614274845552
Ni 6.003439576919993 5.997569526633339 4.256430596780387 -1.965023440833874 -0.609979055506427 1.512158585976357
Ni 1.2483670993449856 5.8624293579460796 5.872668310651734 0.01288174105867459 0.43694484119315075 2.5278438363766274
Ni 8.978854720885083 7.3357106132508285 10.51888222616042 -0.5121724914788987 0.3690201523267193 -1.9327049312068265
Ni 6.884951571223058 2.8283229262640335 10.509805303817634 -0.9166077900801182 -0.5813161403540956 -1.9269155782185587
Ni 0.9438524812563082 4.913554620165083 3.87386366169334 -0.842276940577027 -0.7776610043688542 -1.1398147685930435
P 5.475411505608713 -0.05638381426047456 2.7396492278521674 0.5826276600766677 0.2639023993497584 0.1617244457274118
P 2.497775510593255 2.347310548143507 13.362072874767449 -0.5351967202882137 1.3925434107141694 -0.37775187577276237
P 8.777899953850442 6.805443260590009 4.5614059723483935 0.04877356985927729 1.2791672743831581 -1.4701146215314294
P 7.267020888232429 0.261352700455034 6.882786011070211 0.30098953401004297 0.5492773667509959 -0.386896775496824
P 3.049090264909833 6.333793474449453 12.998563790540418 0.14954127339765858 0.42073377865092704 -0.7284066382184166
P 6.02497538150384 5.7356841905322 2.116198282571808 -1.8782813621506231 -0.9139348712336454 -0.8670364069098938
P 3.5476851484415617 5.966274878637298 4.817178899728751 1.191338133283316 0.5824037169913195 -1.3432214245505898
P 1.8877602534101359 2.175411147755364 3.9302677492829052 0.5390392339627555 0.5804615056632841 -0.20335086301894656
