# total energy = -381169.8789780034 ev
CRYSTAL
PRIMVEC
9.23777188938822 0.00000000000000 0.00000000000000
0.00000000000000 9.23777188938822 0.00000000000000
0.00000000000000 0.00000000000000 13.52041292840909
PRIMCOORD
 96 1
Ni 8.163723885320824 3.7098337733246702 11.090726696149568 -2.3253028708534855 -0.7570356148090188 -0.7629321827991118
Ni 5.057513842057743 7.960114154603112 7.030763815584316 -0.03341534223565213 3.384942929568151 0.4448499549728403
Ni 6.276428608106083 8.4914430816795 2.3872314840017594 0.9923892559868072 -0.8729008361104709 -0.7023140548964227
Ni 5.658172247335504 2.7304821462764868 5.071033321251308 -1.6163656542135902 -0.8885999920132825 0.5827469592633513
Ni 5.677063490896036 6.3438643430654444 5.7730808921518735 1.624274624648022 -1.3195677896873919 -0.5962779038702505
Ni 1.0531337113112555 6.006972039197914 4.498119640134774 -0.14573989737369739 -1.11183936642604 -0.13571568036847595
Ni 8.287925728680909 5.9165065388613325 2.889298844768932 0.1313700018052705 0.0038006046930128094 -0.09814826363766323
Ni 2.6732633870520632 7.4157599691304625 0.2972493294833387 -0.07113573960456136 0.21677870638907829 0.8283898981822896
Ni 7.2899507534576475 8.218245215146872 4.577267946101667 -0.2917731576180975 -1.0712781571742263 0.39797411635690816
Ni 2.0689930129566174 1.9906659449127224 12.229416032026048 -0.8380541607449309 1.5749994325619778 0.6123200449347777
Ni 4.8481027905791425 8.221173588843053 0.5021061594092039 0.23279796463547006 0.4467412584582822 -0.5599644141511969
Ni 4.649342890115356 5.643290196784882 0.3781250987978208 -0.0684705340675724 1.805228093808375 0.21400011520267662
Ni 6.66033193323501 5.072737690169117 12.9166859391986 0.4153280342543234 -1.8801459261631879 -0.11716054307410789
Ni 1.4063676336915418 7.584284642125482 2.564200404301759 0.49753391563011734 1.0664915344188601 0.7972296705294012
Ni 6.965437063952519 2.3665693595656494 2.944543492135709 0.2152288454034551 1.287846547324711 -0.04101655162167775
Ni 3.334955751354002 8.533327139529602 8.383412881828983 -1.661454576132429 1.1387691009373484 0.00019900338468352826
Ni 2.520793961640519 6.421147542883256 9.914059032387483 -0.7290784674744605 -0.03657651357245313 0.20601452589403874
Ni 6.977547782929467 5.697654484488423 10.469031112896062 -0.26242298659075447 -0.06850524396024978 -1.7295661841986858
Ni 7.093204687270729 3.8230057170215397 8.953744605696047 0.061012535127630406 0.20238052868587725 1.0635018556629168
Ni -0.017492644893020305 7.533818694168907 5.988015207456803 1.740945629680221 1.3494581494889213 -0.041798938313657046
Ni 2.525616078578709 7.120123554623 6.146541839911204 -0.7685150762035281 1.1990231606323996 -0.7574835009797148
Ni 7.365709720909939 8.178762977993951 7.4563184067111585 0.32744335732619734 -1.535292858000975 -0.1953015103519088
Ni 1.9799408917226102 5.331321401536578 12.7776962705614 1.6623747739538532 -0.2908858699171377 0.5326544134823342
Ni 2.5237223353367 2.0466191293851685 8.04002180542119 0.31102660653107084 0.3345884530114108 -0.14965594459865195
P 1.0498727778262344 8.86088929376577 4.434005807955054 0.9109457066983344 0.1648172257201226 1.3030204268516719
Ni 3.3305862852395123 6.338183113339416 2.4127443624689877 1.4198323283371095 -0.7435188112695066 0.7765261194334626
P 5.182491658258457 8.965867333776481 11.316774974842115 0.8555641446042361 -0.8963906917022949 0.4520451871696989
Ni 1.1473774603599423 7.538899468720641 11.963321088316745 0.20605952019936125 -0.5696615868343027 -1.7993986316107913
P 5.181022852524411 1.2791358011442413 1.4015796965094272 -0.24244551502756306 -0.621488341697607 0.3503251470203773
P 4.322141008983767 7.56543958742451 4.668004113155275 -0.7183459115483048 -0.4481651353890024 -1.1016637114446188
P 1.4890179789903657 7.5072416243773885 8.310199844315706 -0.2631822333542822 0.04768676455300175 -1.342303797832327
Ni 5.665276093936016 0.8671884480441311 3.740895781379582 -1.36903067230421 -1.075423032580535 1.590641509974609
Ni 5.868386984970468 6.285158302563151 3.3207212686144296 -0.5728520687471425 0.5539068951032075 -0.27444520786261123
Ni 7.01934870083236 6.749836705292718 0.8287279084647052 0.19555373557203096 0.7756336895261803 1.6227587022241279
Ni 7.181804157681037 8.151520788624753 9.74490526712524 -1.1160829721937424 -0.21115390400313314 -0.029275351925349583
Ni 3.0865058757742703 9.234344698861952 11.850533435931423 -0.8578259440552194 -2.1821549025766807 -0.3448353275503997
Ni 0.5746707053342425 4.968831231700225 11.092741454203628 2.2898923525646757 1.614903210735451 -0.22452981108940687
Ni 7.80724750499934 5.972127163544939 6.666523087970594 -0.2769566614305553 -1.7840730569973147 0.6816107609108003
Ni 4.426832678065199 4.802052497596619 4.7958659617469905 -0.9232895729756679 -0.5308255878037116 -0.5145073102596622
Ni 4.50188957485216 1.2094645253821166 6.936755629719392 -0.07650934521164889 0.2859634929148559 -0.41119087215749833
Ni 0.016116216878096334 2.422347026371763 7.518661358015302 0.0038404567920127405 0.8019676994350188 -0.19012176592318222
Ni 8.661528938127688 0.5383791945998109 3.3419080984951552 -1.5133564629392 -0.0036933896911871874 -0.04152305894445107
Ni 5.118067436942485 3.7886042544203526 12.015049839693722 -1.1201262890251806 0.10146447249508976 0.1807007297195985
Ni 8.339426307091655 0.66428910198647 6.13611793808543 0.7519381456814533 -0.5254843780964562 -0.31883864637632187
Ni 6.1877737110643025 2.1692690270639976 10.907187872465585 1.414112909354829 -1.2961134153191936 -0.9901577955531269
Ni 5.134612286437309 2.6011625772770195 8.725966092324336 -0.16559138488198577 0.8082625313047951 -0.03310835251819459
Ni 8.62254554065803 2.207975291376289 12.61220620563955 1.1370094379337645 -2.521652362853935 -0.2604789754905062
Ni 3.631054054457076 3.6817786600271933 0.4703171387047987 -1.8067928671923335 -1.8616643224192324 -0.24971068123040868
Ni 4.663402778965788 1.3960859935532175 12.610922155343749 1.2496646369383508 1.0044544146814571 1.2757849881744867
Ni 6.893012932160547 3.6088187374643104 6.816573140918323 1.3941783752144312 -0.7067486936290086 -0.7886144180565644
Ni 1.0833227499204605 0.4701591728050994 10.50402194534525 1.0765057241217526 -0.8936982324717963 0.734933897813973
Ni 6.492851128466074 7.193342134799427 12.143291360711032 -1.7660102859583326 3.107788807414809 -0.3030266190447298
Ni 1.4532123750585182 1.043156917646035 2.472031458824562 0.04797344255548512 0.2595515785802304 -0.05709185991698555
Ni 8.83855236128197 4.41072200385025 -0.01814113648125965 0.7826186054844457 0.21022624998254116 0.7515725348119185
Ni 1.6114276945994765 9.650423183561218 6.776823008379948 1.0210460004915511 -0.7467874547184493 -2.412321600236891
Ni 3.5853825101229546 2.076854356853935 10.337978537885856 -0.4976627278984978 0.170692453553977 0.5018124884008133
P 7.15321325361265 4.210788906353609 1.8759706926275246 1.0323737667995445 1.6697430413934662 0.0756282281582762
Ni 3.4478967507530656 2.1780633859244514 3.067673753953975 1.6832122795244948 -1.0004684334505156 -0.5890086239023469
P 6.16818963461035 6.238396701143384 8.26272970579027 0.3430820923047188 -0.05826274029663514 0.35335056411026244
Ni 5.118501612222361 0.42988248726772693 9.304707883740305 -0.019221567233773346 -0.7439366155332156 0.4619768444611141
P 8.356239051971935 6.203468685543201 12.097254000609185 1.7034381196530661 0.7623164035919839 0.5476675990617149
P 3.1481310522008323 3.181331604453428 5.862640167063862 0.40078818876693556 -0.7948835388947278 -0.41548230044400064
P 6.209657992724401 0.2433025890702314 5.973710517650697 0.13387219940183398 1.2273070951787575 -0.23666516090036016
Ni 0.9792038226975878 -0.02347317842900538 0.07072900064607623 -1.5000880279650683 0.648367168366322 -0.06724823162469709
Ni 0.34618088352529014 6.906952729976118 0.5068968679228922 -1.0172734208229965 -0.7477840143037637 -1.0373457660928393
Ni 8.631469228325255 2.225231449308356 1.3958605919185587 2.674174059036156 -0.5537392591770914 0.928068225311234
Ni 2.8997920298840474 0.8727652909475512 0.718696807217998 2.2486307748117276 0.7222542454637755 0.29476000816056336
Ni 8.296433716612084 8.86266294597292 11.616996095549622 0.6901401385380501 0.7103438671794348 0.6822435093987927
Ni 4.73784074503463 4.2546498473929315 7.202161435644044 -0.6786707044458699 -1.2132051085597364 -0.6403023890803167
Ni 6.950056173718638 4.493169118167004 4.5524044829998696 0.6814883764003231 1.3024331868896344 -0.8016889918523354
Ni 2.627813549243836 4.093210545454601 9.124006903587759 0.827127486530098 1.1352762572927417 -0.2329594299139988
Ni 1.015341986418276 2.819876065071247 9.944398646678858 -0.5420289127186988 -0.9074101827412501 0.51674622689251
Ni 2.0134555282202222 4.7429122818144505 6.957198818961182 0.002762393236485565 0.025884581076245746 -0.6829004262565013
Ni 1.360862369251841 5.1755818048680995 1.6614696288252793 0.6269377948479525 -1.2229776145654678 0.33815354465484987
Ni 9.480817691252465 9.3474242648397 8.404261609257722 -2.0564526405801486 -0.6589793966645295 1.0172001443828997
Ni 1.318424045087004 2.027349137176233 4.778695715093708 1.030427184596135 -0.1449423411730665 0.15649019391166596
Ni 7.1032461453393365 0.2870545244009891 0.4216959737990986 0.4521102360796794 -0.32558496396121994 -0.43817177162171633
Ni 3.89265851723984 6.209362384023209 7.619280093460627 -0.5867203420888024 -0.8807218748167864 2.5818958810260244
Ni 5.030151561653684 4.185957775453504 2.2494454970447233 0.0483357109909103 -0.047686250332369486 1.1362113675125014
Ni 9.312135976134936 3.8346360718590513 3.279565147191012 0.16347485275961524 -0.2821343489767528 -0.006459125361782425
Ni 2.605282623549879 4.145681089916131 3.5286385723748204 -1.0384356567229085 0.7490986193501292 0.30189353388155105
Ni 7.036955894097091 1.0650689126218715 8.17934957651038 0.6498771772529452 1.874351688078914 0.4053182154268052
Ni 3.413975652291315 0.3776752193056947 4.8664702524722525 -1.0318724016830938 0.40253191093091967 2.175801192444511
Ni 3.746831049833197 8.930643709475104 2.8706671825991323 -0.061748127742074305 -1.4903756857733106 -2.8494718725726282
Ni 9.359618123763859 4.742043931254699 8.850530056343382 -0.11112102174824734 -0.9545927539643236 -1.9415520971848113
Ni 0.024480095567439693 6.823895922713157 9.666433166062323 -0.496123665546152 1.4746096811883054 0.5514995712132954
Ni 6.728894676367666 2.6806905556695058 0.37954402056354114 -2.8850245728662576 0.7194034062785416 -1.0540617932959395
Ni 8.256452639775903 2.560507143091245 4.948903510131139 -0.06533944463775843 0.8283518458555024 0.7039677884497618
P 8.623321513498658 7.890590683191582 2.0586042146641104 -2.7854578316145124 1.62723345016603 0.19715964660657015
Ni 4.700335391070929 7.258246720254835 9.804854711726922 2.089772594888517 0.9692380146813242 -1.1369814129093063
P 3.1203345965168983 4.126983839565755 11.274429028396401 -0.7640989494137034 0.04931787239852151 0.1361918486739461
Ni 4.031382138045969 6.907710227272923 11.90396655622621 -0.5255928786498626 -0.3672430058216385 1.0411013764805295
P 8.52664823043705 1.585728213139621 10.408838714893088 -1.6219665453401355 -0.28609256229355245 -0.16715795803815728
P 1.426838536249069 2.829926760911765 0.7241692632988097 -0.08284145807726377 -0.012840346297777888 0.1638116672737437
P 9.258741654482181 4.293762573669361 6.216117966622631 -1.0862790014584325 0.11419374713630011 -0.40656185802591915
Ni 4.692751180330979 4.962558784571813 9.872943557160479 0.6036595410463023 -0.7854375629904795 -0.39025052246040537
