# total energy = -340868.7202599989 ev
CRYSTAL
PRIMVEC
9.25678851740362 0.00000000000000 0.00000000000000
0.00000000000000 9.25678851740362 0.00000000000000
0.00000000000000 0.00000000000000 13.54824568574396
PRIMCOORD
 96 1
Ni 3.7736686530333468 0.6896686904503987 12.182027060074521 0.43104261677610284 -0.5493573280593119 0.06383714906061909
Ni 0.6977859682197557 7.090940609590037 10.238720770095949 -0.7809892974111389 1.7550730702205386 1.0685381325352437
Ni 7.136974618424582 6.168464615944801 13.157432444251638 1.2635449944648691 0.7613342421843726 1.9288400489347812
Ni 2.3639060599392288 8.68701458330207 9.23452492256126 0.6059406237709951 -0.02808878781641614 -1.554771278440561
Ni 6.030084885788433 4.15317846485693 6.8556423046301935 -2.0696431711284937 -1.5950401532629368 -0.6982933637728038
Ni 3.0865742754437737 0.3456447770517556 6.747094426529143 -1.8682322054447373 1.4404749442881257 -0.8725048862236329
Ni 5.8571495644437785 2.8627636449186116 4.217203041994298 0.8494521181692274 0.3174890743269629 -0.7672020138190594
Ni 4.594903151680911 6.568709633839042 0.47178147883801047 -0.8665903205114107 -0.30424069395748893 0.4012268189662509
Ni 5.386145655833418 5.209646470945367 4.382599634846122 -0.5876986468416717 0.5254995476051079 -0.6099392034074269
Ni 8.263997865883804 0.7735240854293605 2.0740602778309185 -1.6719076531449528 0.6104418540754584 -0.30883705507891973
Ni 0.8712461494680748 1.6632597440963335 3.613561389087226 -0.8854352211320557 1.1489822940249244 4.372814243079947
Ni 0.11112774503493145 6.116728425440825 12.340690265026437 0.1443353037166869 0.6374623485283601 1.1035079637422092
Ni 5.300029753121216 0.9630947812515066 5.481687746198185 0.03111831867135931 -0.9576143143994669 0.8764677275261228
Ni 3.955046165421056 2.341523145529028 7.755435463920278 0.8694735555964768 0.5515067703021469 -0.6423579860577647
Ni 0.38720775707731514 5.373547166787808 2.0988675451294703 0.8272827811610397 0.3997867440856147 -0.63546665825457
Ni 9.210439684759812 8.994025228185746 7.93891982135338 0.9515524244761031 -1.6065062449210075 1.3791806162540183
Ni 2.7011493758169984 4.191612650395043 3.922230850456555 0.2684900187204408 -2.193009328792681 0.03597358988113159
Ni 9.130146301966558 8.792745620685576 3.7509534199187096 0.2056077773739233 -0.7433781719265842 2.5046326883674865
Ni 7.186998303070044 6.240936012519435 8.474360234185996 0.6105701521232064 -0.3410210960106321 -1.3634313238395617
Ni 6.271964767318026 8.115324586999503 1.3697547535238574 0.8100509906637856 -0.7761944471256568 0.3313285513132165
Ni 5.2631784784036775 5.922956073352844 11.873452017947121 -1.8268572420423763 -0.507750451151803 -0.4415851681786395
Ni 7.326146346665636 5.662238627379596 5.860415359399907 0.876184134847433 2.1326313419252565 -0.25276206646222277
Ni 4.692145714079241 8.985527496412146 10.050956073695403 -0.49161986413852754 0.3431998488295057 0.7446308133867627
Ni 8.094867084581576 1.7824408950604935 7.896419128660429 -0.26032342374924844 0.01287094242539719 -0.6357638777800148
P 8.386298554546986 8.155804522779405 0.0017615668371634696 -1.1114441878701504 0.1062544376845654 -0.05543298415732389
P 2.4745154248223935 8.39936913980224 2.2209636587684742 2.607707699882806 -2.0370672940750016 0.6759841587526422
P 7.771527464917256 3.7383725187711065 5.284507044612339 -0.5479900153981401 -1.8100638246341212 -0.8657701386029606
P 4.8394489882767315 8.096107494230445 12.477419509806731 1.7677990024276393 0.6983612408962618 -0.09227200736254432
P 2.483587077478307 2.712026102215669 2.379166801335696 0.4209119561000041 0.11300229793136023 -0.639437212866544
P 2.7588654516431372 6.470948691288946 9.534442090475318 0.9124636860047575 0.3968567149230133 0.6435265524445691
P 5.993622396184718 5.8352942869737685 1.9882183760560805 0.1397836797902625 0.32943364828334876 0.7339964736013682
P 6.810626542522332 2.621976064423098 1.8841544862678095 -0.249143495873029 -0.19232854376651393 -0.08966825119111009
Ni 3.1977575612092517 1.6775337118467593 4.261180192440942 0.6932105499332578 -0.32066798627557674 -0.19717147368111204
Ni 0.22791138779717177 4.023990725605993 4.0367132556164895 1.6532255033544172 -0.33793757198930185 1.5702341499628505
Ni 1.7343796495610047 0.29719567211728437 11.195795861835068 -1.7231978187784966 0.9421941231896548 -0.5574807284973947
Ni 0.1080757818914065 3.0318018583365944 1.8569358255847013 -0.46982539397125533 -0.2576039679355564 -0.4673031417700339
Ni 4.089223313632745 0.13522686801901646 0.9245041559890222 -1.1335603030428993 -2.057672629030179 0.47946985903955497
Ni 3.5962345325144325 4.887797194217377 6.909645482619305 -0.5937399679397452 -0.5798925205336917 -0.2896555970544624
Ni 7.749283402333421 1.5296657735553814 5.253738405568474 0.6844099209224923 1.0132571005747517 -0.9976893280434818
Ni 6.928363634492286 0.23040331524102048 11.62192933991583 -0.8421494138602271 -0.4399409477069972 0.5562607400473647
Ni 7.826984884367841 3.4398873760263036 12.24214064410258 1.4874402572940706 -0.18507649018979094 -0.42319972369291636
Ni 8.453882366833536 1.8708339677250967 10.46417725760297 -1.4604040791118849 -1.0017383013018748 -0.7905064928729546
Ni 6.087532514750265 4.156001785326373 0.09302702094985815 -1.0635977578108327 -0.03494643416819788 2.0055756512246234
Ni 1.5702753043732276 3.8505277673211467 0.03990046082453715 0.35301786336119206 -0.03491995180563663 0.3522254493668837
Ni 1.6766913441001388 2.858422211147568 5.785656610405604 0.35485363101835016 0.7848248691071451 0.7087711233756762
Ni 8.538063600765037 4.999406292250377 10.565613145157553 -0.0017030987340357765 -1.2446196183152758 -1.5523526416967393
Ni 1.9354833780811116 6.656306622699146 0.17700738257254942 0.7967887263372406 -1.6612895113094743 -0.9280191172408533
Ni 2.087627952624563 5.0647777321034955 11.232945205139872 0.4348851304506446 0.5992531844484905 0.27073099223581765
Ni 5.852391575193636 1.907176119079294 9.993213153182834 -0.5361459715753606 0.35512153996775614 -0.086626893261625
Ni 4.4630587141521705 7.681569995008929 3.2013149450007488 -0.057312203457907746 0.38252898544643155 -0.5194502560872344
Ni 4.198259024483762 2.4190487485833843 0.6763870504190684 -0.5363048657507279 0.41915126465515556 -0.14574118292527805
Ni 3.7832494290526015 2.9183136322534406 11.843103637097725 -0.7097651118578292 1.7906321982720712 -1.1819325236987
Ni 5.527432017555047 0.9534584645017053 2.6037966576364178 0.20129860847560813 0.3278390501027193 1.056271656463065
Ni 3.0105205017488967 6.201020740833418 4.462209866653653 0.32219187911927094 2.2429897744758662 1.774957982069924
Ni 7.236198133545734 6.926354911404191 10.910754352919023 0.6635323061425346 1.7558616275601049 -0.4742921714933574
Ni 0.11681511584288329 6.3865638080121085 4.582437034709771 1.0308845838485277 0.17418658275016455 0.9243198140123953
P 6.101426954175291 5.259438735880219 10.05507441886542 0.7829479637994065 -0.4810338610925651 0.1606828918367749
P 8.735890426182905 4.496086935250433 0.3054536530706923 -0.5072151474736232 1.0148645542711876 -0.0805799157365967
P 1.6152262689621177 5.37607427002767 6.054331191708466 -0.7087276717322504 -0.30500585425828763 -0.3953688175235771
P 7.033446696686084 8.899217201143033 3.521256397634471 -0.8701749525388756 -0.4200956308462958 0.8161709875185944
P 0.6518871084962069 0.9121194987560164 5.965522489243608 -0.029976491757432246 -0.9922982389348973 -0.31801846446787163
P 8.503156251616621 8.941002344090778 10.294038412041324 1.046874788629197 -1.0087895517217014 -0.9846597485530332
P 5.9278251440640775 2.644544114601788 12.17694600890837 -0.8476145507398563 -2.5743355521802633 -0.4276335910945538
P 8.800086253906125 6.967890121064477 6.980963483356259 0.5926580477294761 -0.4171159793926817 -0.13310112556376433
Ni 8.852961029386302 1.252480500975124 13.499756811295562 -0.037771819432134944 0.24130137412079086 -1.7699543582077453
Ni 4.27761747164615 4.394891724194884 9.316193864114378 0.4954163550664822 0.23527008032504645 0.15904869866746157
Ni 4.84340163693395 6.853605811176825 9.027006239663043 -0.36453691974438507 -1.7876885422627147 1.9021121460216337
Ni 7.755328085174554 8.765049309719767 6.172634799129994 0.4587405969120035 0.001130514060017408 0.4704879672559188
Ni 0.5128621801866587 7.828447456938896 1.8191773856015705 -0.9139017040028647 -1.4964098077825325 -0.33674997943910395
Ni 7.044851060024945 3.7853507200249403 8.791496879927124 -0.9251479663406454 -0.701093038005128 2.725088586497836
Ni 2.2822519292475896 3.345227457598381 9.525378768928988 -1.8843800188491935 0.681000123909995 -0.34374466558938216
Ni 1.895207091646544 8.233737424524437 4.986309787987534 -0.19176367240197942 1.432425848731404 -0.9810044111886332
Ni 6.677171423807747 8.446819437265718 8.885982770732667 1.259952134907288 1.8183402057103004 0.08630524825614813
Ni 1.3759845721334794 1.6080985418753289 7.989522055275367 0.34591467665750747 0.6093758747047892 0.595643098499729
Ni 4.261519916576117 4.419875796152342 1.9419649813358772 0.8213743860964048 -0.12354716332674207 0.06207568628482212
Ni 4.71974020037238 8.303228135226412 7.398046599394485 1.5232729507219638 1.20597388091862 -0.3682447076132755
Ni 2.768825755987793 6.064140610401804 2.1078901368067338 -0.9062380168100199 0.9691333707826599 1.5249827343242188
Ni 1.196449160642226 8.697474754221643 13.264613094702405 0.4334828507864793 0.3425408750892681 -0.38719168102942353
Ni 7.526990885109861 4.4377969385419815 3.064111752653123 -1.7572492519362508 -0.480685733724527 -0.4945061845473871
Ni 0.8545848559829957 2.9292088722289606 11.454892444155204 1.2714552504508811 0.21455213105140467 0.552044645083488
Ni 6.2952085630516965 0.9190880090819054 0.2766576356400663 0.23979470766827732 1.6462151334748552 -0.5360102173284447
Ni 1.3911842187263455 0.8151065047106112 1.7989762962230005 1.011315917687981 0.6182091567257031 -3.567503081093991
Ni 8.543719498492345 4.3065819626261 7.262929887157719 2.399181720420823 -0.05296729622565072 -0.5461773876694336
Ni 7.8866356289746795 6.699776501140133 2.81922711760097 -1.3004351826229992 1.5691977382785363 0.21641129574733053
Ni 6.317609991038746 7.457407606523639 5.1135276826617595 -2.3678957658233477 1.0150378466242584 -1.312733797484694
Ni 3.0231837883134776 7.381372346405612 11.637712164179433 -0.6139316123962716 0.3643582280746757 -0.7287964174576674
Ni 1.161875055877089 5.625516947699997 8.576717172188808 -1.1318605467429732 -1.9140140396655425 -2.0336466984292265
Ni 2.302542809473876 7.323091606485584 7.104279641709598 -0.21528283856984212 -1.0872457362470758 0.6023307949325497
P 4.1574551011090035 8.234422426867841 5.335854450002491 -0.9832548977857064 0.29805667663396407 -1.032393050073254
P 3.4775069641830676 1.7315748426684112 9.776007241198483 0.6345711430234943 -2.334177547635296 1.202674641342058
P 3.472545325587589 4.732681190589693 13.07699650691665 0.7940075640476777 1.3075365695544707 0.2886271557899481
P 4.241645591828929 3.1678859049637103 5.566865936242993 -0.735803702013436 -0.14614870277634184 0.04981486663959808
P 5.2552083835702685 6.2261158942519685 6.962361967017426 1.4594735968778154 -0.009003746160507075 -0.8842530278984966
P 0.02767872306780079 3.3668142882040835 9.115788097441472 0.8316626553962901 0.10476962560892279 -0.016207205887481764
P 1.8527184327785442 1.601859466477283 13.084854594610125 0.20488195495149233 0.11915777600979477 -0.6275044659847
P 5.991771038499839 1.207048183388165 7.8455049409685405 -0.2372863394241268 -0.7473276434926355 -0.534905157189724
