# total energy = -340891.1912426966 ev
CRYSTAL
PRIMVEC
9.11694384822363 0.00000000000000 0.00000000000000
0.00000000000000 9.11694384822363 0.00000000000000
0.00000000000000 0.00000000000000 13.34356887668625
PRIMCOORD
 96 1
Ni 6.314012379409922 2.066172978358016 11.331398421358598 1.466476253447894 0.8276604762154328 1.606491589632988
Ni 4.794272545961522 0.3156659745839729 6.0502810753074225 -2.22447834593524 -1.5177875021273604 -0.326008938872516
Ni 2.998973085496084 1.8710977314007442 4.878689063891673 -0.3277223220191969 -0.8344949826387629 -0.03760109818222556
Ni 3.3663221029120463 4.536089813869033 5.050981068238008 0.03067043250066331 -0.9312389097297316 -0.49581590449774615
Ni 5.178861704144704 4.620722403367764 2.805538888426755 -0.4484736677683566 0.23796742465155146 -0.2832414659980025
Ni 7.68560187575239 6.368322013757002 2.333029570802663 0.5571038047739502 -1.5150575047907067 1.955308013318323
Ni 5.045900195446061 4.409291359193998 11.521358151137399 -0.040439338961969065 0.6361315455320786 0.1468696401027664
Ni 5.768892074410662 7.742272798549342 12.554630625970374 -0.6867090013693141 1.1191029899669889 1.0322022742186867
Ni 1.623764162456321 6.939835871120675 0.4045880861509098 0.676853448731473 -0.9827687021779076 -0.6992125331529635
Ni 2.806833494449465 1.289783159428526 0.25906798733759523 0.2843879208976199 1.336273275367531 0.34368758709920166
Ni 0.611433307582259 0.07318626653033125 4.844196018635883 -0.5360192161895091 -0.5597996064385584 0.3744495508724067
Ni 8.518817605523804 2.290404211657735 1.3050294245818954 0.6437245273879882 0.10337711613677035 0.8720210046086787
Ni 6.629814196456842 0.42651251265382356 4.60929522598139 1.7747409809631112 0.532036063172045 -0.013875729540827714
Ni 0.8966049284707286 7.498923334055091 2.6080941477701707 -0.48662369647551673 -0.48769378961124393 0.7097013484994293
Ni 7.818855126653332 4.251039448333395 3.9913013656248895 -0.5883427081835739 -0.7265068500925423 0.18377448354891573
Ni 7.938660885416968 3.7875796091469245 12.906019521531713 -1.1606545881565302 0.9252736932852322 -0.7949239052143601
Ni 7.768766637295794 8.962147232751512 6.926113047279944 0.7268230957813805 -0.4206494464672368 -0.35389075288444855
Ni 7.003937103132478 0.6365441059509281 0.20829025702712087 -0.3667655519645877 -0.5328855556565338 0.4887715960564549
Ni 1.7901119194307744 6.405592080100944 9.360926913993488 1.380801182576577 0.07967565875477246 -0.8814898633310626
Ni 0.23736966104146465 4.836347241699607 1.4850061008757125 0.046233062825610696 -0.44037957790631255 -0.14749518950190726
Ni 6.127288252993515 1.953487552719287 6.733351680664672 1.1227269598728211 1.0127045705053914 1.4553251219270806
Ni 3.569702885691072 3.8571965921709808 0.2436175026426152 -0.49052483130213587 1.125799428150558 -0.01462597744329094
Ni 6.0612451119476445 5.87501330049762 4.906456539690045 -0.6600726297287083 -2.4135850403303465 -0.4101948267928161
Ni 5.3033444550889755 2.740562429808048 9.296277753657986 0.25969427480568175 0.49518984087797296 -0.1426787419498704
P 0.2837521127353993 5.45150390913873 12.524139919052399 -0.14435638676260945 0.5923374311652637 0.6339751613107081
P 3.896080357571399 6.018988077333121 12.780536641850178 0.19878689779734796 0.04775078502171776 1.4393014928053147
P 2.399707251138538 8.762841723860877 1.4854327738465776 0.2479301922912182 -1.3634107550142713 -0.03470526469166926
P 6.261188806905813 7.58799587519509 5.971420422942339 0.3501441413578228 2.1501356693576064 0.4607524851357097
P 4.89771339056484 0.934514092576586 12.855914621675293 -0.27338488491889695 0.2822294797937204 -1.5030175429070374
P 4.104174600306349 6.288539638371524 8.325225685326357 -1.4853648628222806 0.3697819701934083 -0.7542518814162946
P 4.717863439790148 0.9422179101060946 3.714369638562656 -0.15970098753947978 0.25211671956874 2.294813701125693
P 0.3925591904722901 5.60303663240259 3.749009466613979 0.6346058529161716 0.7141303308050605 -0.8090575164022648
Ni 1.3747895436239554 1.1712264219684914 2.8099952505669017 0.722894964371568 0.2714922958818744 -1.2291631745508897
Ni 1.9675549970364845 6.618910331645845 4.936400229978705 -0.90385511840014 0.22317175439961565 -0.6508012317291114
Ni 6.039355329831254 5.978745887303239 9.043884280892406 0.39066009919399813 -0.998509252841616 1.993361882767251
Ni 8.735718815990714 2.5825931442059242 10.146049853409979 0.14307469183670846 -1.6505860088490414 0.6811363923775431
Ni 2.300706358176486 5.381020816451595 7.067381003494724 -0.07274653573510698 -0.37549110476304365 0.9089147923112346
Ni 0.5038396950680634 9.189605864164184 9.339057189153504 -0.11340287580388857 0.42025503924229557 -1.1293511500575584
Ni 1.316741962309895 0.8343161448907188 11.406229384554399 0.4080834368767682 0.5193828931844088 0.971029045143476
Ni 4.191706377940446 6.851036838295332 1.5490152517549156 -0.4123931199957156 0.7190200547971939 -0.3855783137957166
Ni 5.690304018665852 8.307295391911818 8.162834681970608 -0.39548297450393827 -1.2187514922992624 -0.4564299465009558
Ni 5.3254348099694475 3.0882826671754517 4.654650198106597 -0.3923266882631437 -0.19378481659706626 1.1071697288645124
Ni 0.9777922248991624 7.728761487805281 7.156076103160495 -1.1077711098939373 -0.7266323199268131 0.05206123947161356
Ni 4.871529527908333 4.602078253251971 6.965636822136662 0.10804161149197522 0.698667716393087 0.8158529420575432
Ni 8.30156083424784 7.2730145830921415 9.228919037618615 -1.0682720233580505 -0.23015692746819716 -0.40516343501649577
Ni 4.872650911998426 0.4342673850687348 10.5615819189247 -1.1280522287404764 -1.4310377101346259 -0.16406055005975617
Ni 8.175993166988762 7.269322220844271 4.642428023218953 -0.018819703809664363 0.15322180757303935 0.5524009999816423
Ni 7.277026038373779 5.82994824718595 7.098551834421811 0.21678230593350406 1.9054388964020215 -0.14855062734961513
Ni 2.540491097636373 5.013845020968248 2.3954377863467404 0.3991233994700029 1.916624480705196 0.9289922797874001
Ni 2.3257870706305432 5.264770665778501 11.488332022142552 -0.9046765858601711 -0.6316022902031574 0.47599475600676083
Ni 1.1543236081226822 3.3826505492970753 3.7136749274434275 -0.8128144123415357 0.44738737668271333 0.727035983123135
Ni 3.8677995978358544 2.526897734397915 2.5183050148457706 -0.9121492400881324 0.9721238208695516 -0.41098107013953744
Ni 1.1170535417787402 3.472270107066388 8.258054778329718 -0.09375116301123208 0.07838213675432952 -0.09917053425459049
Ni 3.577470521827334 2.7187182324107666 7.223648155685298 -0.6899408780430505 -0.34370095683564034 0.07281569841014557
Ni 3.9562248359644974 6.931922363883261 6.1419510337422825 0.9585347693312073 0.7153706309700648 0.013257893451170715
Ni 0.5642312426387351 7.225770580207037 11.171262949904389 0.10812003013839444 -0.22237676930214603 1.7446415904745696
P 0.19575172418885683 5.74249852204625 8.042475524716984 -0.09904686419253264 -0.6949882106589709 -0.13889022144171562
P 8.402613039569822 1.5749793960653147 8.037071912113742 0.6276566752918481 0.813502953768128 0.2201738481135563
P 1.878318350907692 3.3572233929777866 10.42673137946616 -0.1491610072401044 -0.6342564399965528 -0.364254869727592
P 3.9236682295764798 6.145093644277693 3.767276175255545 -0.10712758431813808 1.0866975770530898 -0.1168710368581471
P 6.879189960817372 4.130221708805528 10.550145624594505 0.8590593022416881 -0.20788526055419035 -0.9118623049753327
P 6.403522533853372 7.756121436214814 10.390063031414464 -0.06104930190283679 -0.003659451129458214 -0.12909688950037768
P 2.4226910665135564 8.783956565752405 5.923370482223378 1.4915853898106957 -0.7272131321309476 -0.7474464284586869
P 7.119229974704271 4.288391567171734 1.910224919201208 0.17097913155646038 -1.1136435095143142 -1.7610822525290961
Ni 5.62999543528396 2.816853015709737 0.5415364343828705 0.5937088575914937 -0.17915266850618822 -0.4241492320903792
Ni 1.388164100210688 1.0758996573666673 7.131390154373927 -0.5993881673644581 1.597283440771159 0.27293108521092996
Ni 7.070244635549184 0.6139295268006961 9.441255394313897 -0.12249866745756967 0.6708962027067735 -0.6372350630089025
Ni 2.6740725585149048 1.476589338339331 9.453277908131842 0.233627659625617 0.17619332876754815 -0.5623231441913606
Ni 6.395034659155179 2.332123346586766 2.748308185279137 1.6606367082168239 -0.6560203140362058 0.18465328660944327
Ni 4.188816306748902 6.739527498409629 10.788835419101382 0.26053991063542875 0.6280618811500667 -1.7787197631052014
Ni 8.315336536362738 7.345302830656014 0.24515461937098815 -0.2909997697871827 0.001451644844862016 -0.4443159368462412
Ni 7.569780221438926 3.7220652508427254 8.221106540102689 -0.10697254679751254 -0.1206821830741212 0.9279599818681439
Ni 3.3046550949006903 8.251764087092603 12.480213572024086 -0.3022329194988408 0.5695428018682513 0.05463877039080267
Ni -0.1338312651392519 4.876416209796872 10.288598740231734 0.36884094643637766 0.987104353438784 0.06990906628631186
Ni 8.503811115992951 2.746315221359669 6.125112038503226 0.7662532767525448 -1.2008949237338156 -0.6524104851977602
Ni 3.69948258099587 2.5133590728223876 11.58064290172809 -0.7311127242956699 -0.6623377716138013 -0.3945653477856753
Ni 1.1364361643441072 3.0552975644278044 12.575179305650563 0.7176260026631447 0.7436067429976226 0.3274544130697909
Ni 3.127704332261363 8.466468114098435 8.138082179494141 0.17643424113376063 -0.6524457093110699 0.39296406473682644
Ni 5.53660146277238 7.6431716192052495 3.5204604487202062 -0.1889403440205714 1.1976561050815437 -0.4444635181676991
Ni 2.9622318018938123 8.382893090083043 3.580866583400993 1.1913813278164256 0.5192605086739316 0.3260073962106192
Ni 3.601274862146324 4.419082956858722 9.326660880638862 -0.5679397190471897 -0.02494175754700221 0.10038075251260777
Ni 7.167732115836798 6.106775129394231 11.848341899781884 1.100264774214563 -1.7021708229048687 -1.6015897814559967
Ni 0.5907496971335062 9.270837833617346 0.3269089897051444 -0.3691836744877771 0.0389252163102878 0.08880436052891802
Ni 5.032817381061629 0.5444246821856495 1.7122468373310422 0.08972121591623257 -1.8933102314592878 -1.2192253466118874
Ni 5.780625581109451 5.330749988217618 0.4383453940402723 0.5174429958492186 0.29561438574105864 0.06335043923218767
Ni 8.117626492640936 8.912113445056905 11.391231100272986 -0.46102785028428345 -0.05159561268910468 0.8395189182159155
Ni 0.13402089757074748 5.076724582507918 5.8950423143799595 0.4974385277028336 -0.2664179666827605 -0.25672953575040297
Ni 8.201867053555326 9.08598268068443 2.4106895216664026 -0.6868218727980946 -1.3812601244908662 -0.8066337374521205
P 8.510037988623312 1.5022808860294554 3.7092322407190137 -0.4584328358635976 2.3371088623494782 1.144700635930435
P 1.9338496557269067 3.249415532283776 1.557461188511527 -0.9645449800810292 -2.340109853959331 -0.8352822544267485
P 4.588101978372993 1.0400791850904079 8.267861874798939 -0.08024695787721017 0.23506696317530484 -0.2645469749122928
P 8.523421662153867 1.6766971382862934 12.425130820840907 0.17911872994445927 0.2254063001570892 -0.39303142763965215
P 6.544570771722043 7.797275320626887 1.5371923990066707 -1.8992587357332387 1.7397930041330163 -1.8124636923248658
P 1.6941196179299511 3.290469130313808 6.021285547176241 0.04838816149540053 0.03091211619782418 0.34459235830165813
P 6.71711805049539 4.036381006046674 6.119761304174151 0.7186829831727494 -0.7884858628985001 -1.173436570412547
P 2.2959473135014523 8.343817868862365 10.336996036510309 1.2256680169134375 0.27606166042011165 0.2518135865060244
