# total energy = -340872.7464492807 ev
CRYSTAL
PRIMVEC
9.24061028677772 0.00000000000000 0.00000000000000
0.00000000000000 9.24061028677772 0.00000000000000
0.00000000000000 0.00000000000000 13.52456720989936
PRIMCOORD
 96 1
Ni 9.014243185357977 1.3898155288168215 12.727956726869493 -0.4779976453694026 0.30407948578927635 0.3565567297523859
Ni 8.83344140190399 7.612950818401021 2.7125414538101236 -0.5593180388164497 -0.14562728305523306 -0.07921183174447649
Ni 0.1991998387977914 5.977131759015252 8.033322819450396 0.7278381673094562 -1.23038779098661 -1.2889086700406382
Ni 1.769271955053891 6.941047553630181 3.4110040810466415 0.5109206213496685 -0.37154574696205045 -0.03844956222544991
Ni 0.13692459300246015 8.722184452461795 11.693989712791824 0.33597427761534393 -0.8805814925841803 -3.585297686073251
Ni 4.3060967333234865 8.181507096248149 12.835179225802847 -0.24050047548605033 -0.4806512809421657 -0.6371188491460124
Ni 3.270122658662857 2.855173047807227 2.979191280237767 -0.3780946038241617 0.38635478695042497 -1.0980582534815477
Ni 6.665742047423261 9.14144018777258 8.180727188728802 -1.6570032252292946 -0.4001243299306915 -0.012626944735391157
Ni 7.9174474129208905 1.105842330037078 9.701658662838835 1.064160315182522 0.16287501439208724 0.7529637587324903
Ni 4.8875159408735644 0.8487445225993349 4.038760329541727 -1.64461359331569 -0.9106513153863671 -1.742677010549031
Ni 2.23321528234993 6.2746332114481 5.7811300954834035 0.8144290651268232 1.3421065942198562 1.5927166473360828
Ni 3.768736756250185 3.959666248723162 7.145678099171094 -0.7981218433263674 0.2290158718852185 0.7969455636300792
Ni 3.936721813053314 5.821871022758794 13.32410639148816 1.3343740014622891 0.20555172732500732 -0.15395817151843164
Ni 4.425633269700915 6.649700347736245 4.421790099827741 -0.5750642459071129 0.7749173801854461 -0.21544584651026766
Ni 5.386296369448431 8.444254612895937 6.035175729299821 -0.9383043012169453 -0.18452447434106287 -0.8607240915386208
Ni 4.0751923601788365 7.220030822783779 7.677301505296413 -1.1470729928173535 -1.4732541956016756 0.07960392497657258
Ni 7.330382192404934 6.626062866284989 11.662220494172036 1.3519431206943038 -0.6463172278158288 -0.18081385825869506
Ni 1.3545256376274737 3.9107834196077786 6.847502082177675 -0.07226985320900457 -0.267992510258732 -0.2395975040558067
Ni 5.670066274798961 9.105448010191404 0.9302291493332404 1.032426988634983 1.30682334553753 0.5155956582278346
Ni 0.26983044453378985 8.07545261047173 0.2173955247734249 0.41146726574733644 -0.5610561045534789 1.3025262608240729
Ni 8.52963785316553 2.876879241680957 5.624164466604679 -0.1545423261566758 -0.16843296809583896 0.22127145205310925
Ni 4.109225528351229 2.6217367474078292 5.1048477054351 -1.8519342396156622 -0.49597068490805546 0.9031773756068252
Ni 2.978821655821015 5.121700730716883 2.1477285472436476 1.779253524121484 1.2961010740240193 -0.22393074405282726
Ni 0.12577672059323552 5.325243656411505 12.005014798572567 -0.012954246167822852 0.20112608745348587 -1.440175667880152
P 6.915589671926424 1.2596338092369501 3.276529173866202 -0.2668080030323276 -0.38568192925311645 -0.0510965615654991
P 6.932037958471864 6.696725814157452 2.431501224777303 -0.20178428986277505 -1.5481995387603142 -1.2657255470559556
P 2.2963101702894075 3.5000937301552093 11.434927351579047 -0.25937802911684366 -0.6798503265762679 -0.8508898790570185
P 8.327157597669068 5.571829345436836 9.774259366716118 -0.19277540149594544 -0.20763406377533272 1.4570048236223487
P 4.693056535220611 0.16918726021861308 9.647763726632302 0.9787294991115274 1.6827024297676119 -1.7808491507433781
P 2.2698450620500017 7.794935399988613 11.945520052452249 -0.1480034965968935 -0.17823838422203497 0.4599618709136143
P 3.4717712592216268 8.480246790477112 3.644424672408327 -0.07283112502911328 -0.6498913183203324 -0.6387993221722289
P 0.6982611819293886 0.08874035403473722 9.524730543272405 -0.014951736213825863 -0.4417864855561681 -0.3111261082234125
Ni 6.308185867878716 6.9520253988077 0.24277948159383278 0.23343019890283023 -0.9619347961516918 0.20085123652554443
Ni 2.479819452596099 0.41580529138041 13.253630103946156 -1.3835792595423462 -0.3391310780767708 -0.7124868816643665
Ni 9.271104433169 3.2321714716728986 10.555856993707337 0.05598577133700036 -0.009484799561983667 1.5816755590305727
Ni 4.741264799775423 1.2234753006682366 7.188442720128198 -0.493054539702525 0.22348234366149897 1.212842068793363
Ni 0.6830114025552643 0.7807262374287275 5.915861891633486 -0.09630606822260189 0.9193115621645265 -1.5223129008015395
Ni 8.583427446413289 5.894021708908682 0.6678429405528256 -1.31430139908213 -0.42584101797050533 -0.3810976523165437
Ni 5.001267855128833 1.016300815079032 11.547708077679301 -0.36301482667290386 1.1926931046493137 1.1313884922025612
Ni 1.9883391062520743 4.55038151035454 13.337049714501756 -0.5661823700364508 -0.7753197578301874 0.4189522612704721
Ni 2.77447479701996 8.897229335624877 8.453963722262957 -0.4814858610283192 2.1490851166059053 1.0900896334537744
Ni 7.0242038067888455 3.86590177480373 1.4602206636586015 0.14389975884116507 2.285227857209471 0.8332048030724295
Ni 6.413953894732152 2.0552318850736735 13.393325031952168 0.941259012969895 -0.09905123506790683 -0.5094496932310968
Ni 8.066757196067652 3.2587567078477493 8.562376411818251 -0.2965430682029151 0.9532591227545647 -1.6576861102289324
Ni 8.0302845067447 0.5278763386005006 1.6018764491954807 0.11189878045453631 -0.4596700507048084 -1.733599730838111
Ni 6.6675532070653425 4.416586712100923 12.612916671521846 -0.028737477144008573 0.06539498046604221 1.22728035570588
Ni 6.339095709729558 8.206345857053847 3.680318899519063 0.25960274353314 0.7965262167044734 0.5297022728325459
Ni 1.8705952482958903 3.6807107014008196 9.2208068665985 0.3279303242649449 1.031790640602565 -0.48597834958203395
Ni 2.6552801632280265 5.608200388045182 11.281937033302485 0.055600362973123596 0.44931133317830363 0.37547876346786946
Ni 4.312944025643808 3.4620131746193876 12.602827773066617 -0.10906979564617346 -0.2604113554773644 -0.05962259675863925
Ni 6.937120294202196 5.839197167294019 4.643700586851786 -0.5458140907927439 0.24428282534661802 0.19895427661314768
Ni 3.877618868814752 7.6786145960369225 10.313064575258919 -0.2760549755518923 -1.6486785074136832 0.8678203362637699
Ni 6.5808485595058634 8.617285042987724 10.869126623758802 -0.46288367254609963 0.8423522738996525 -0.9828581765679202
Ni 8.91547954120198 0.3986260725508431 3.800105856438841 0.008942039684636213 -0.21337122336942607 1.527540467749066
Ni 0.5849666778898505 1.7693366393268224 7.953743606584844 0.9986385793306284 0.05922253310674317 1.7092907217791014
Ni 2.271369762769101 0.9788024179995944 4.139179891084769 -0.24165335814357092 0.8445500528819196 -0.10576541386328883
P 0.8697475060201959 2.98282284013235 4.075858608190031 2.698512378671204 0.44254727498159274 1.7928088942084153
P 1.3525296657770158 6.313351369102818 1.1107860566111292 0.49751797479051735 -0.03982433108578948 1.0281820973157003
P 7.454649921316781 2.371464054825402 11.442784642618141 -0.6158380853903652 0.044552332689078114 1.2226824519225523
P 2.6632455694090207 1.8609203291874203 7.105942550309267 -0.7180620617592988 -0.006497434798885584 -0.6252889463906199
P 4.272119008813607 1.5016084336633067 0.1638286302367585 1.4668117824104414 0.5219879349074237 -1.3582708626845448
P 4.795691995142078 4.615786550898714 4.574035624904551 0.8317451878077676 -0.9067967175269673 0.37757549809589813
P 7.420154722623449 8.675805828769903 12.848825759269312 -0.029508036761445956 0.2792549705464287 1.2770497138195231
P 7.734714341889378 1.4780448770953998 7.2662902426012685 0.5341541379563123 0.015475469927779801 -0.41462329487781496
Ni 5.9660430265127085 6.53478411656821 9.60531051424631 0.8515298266338625 2.54909966043161 1.1162338959493099
Ni 1.7712402050730924 1.3880043691747392 10.996392930751547 -0.07513663323383835 0.06976894116402178 -0.21458761227503043
Ni 1.2568708667217328 3.7624808629966657 1.9186759924269228 -1.3341372028611347 -0.8822892193039064 -0.04968245482679186
Ni 4.452772942500893 7.204377228734354 1.7305223793237496 -0.23733956125956543 0.3231889529252176 1.5781798871724884
Ni 0.19078811113356958 5.260587105311252 5.218075677079622 0.03018886487855446 0.5869779666255632 -1.0676950678086579
Ni 8.663044545781558 3.5523586226838684 0.040881384553755576 1.872096830606466 -0.54299513328671 -0.4069128136074347
Ni 6.641041895773842 3.3906294591342583 4.063577836943463 -0.08005952445675245 0.5810826841870508 -0.7930115186829956
Ni 2.935935982867425 8.800406219656827 6.066011646267314 0.2682915295563896 0.10942332233085027 -0.4503644570331663
Ni 6.515378834688757 1.2559375650694353 5.415371950131144 2.3089295717017846 -0.732042692309107 1.3533641694115466
Ni 6.359240240442515 5.008586418580512 8.155651868296383 0.6630224563856517 -0.8830605502522921 -2.6813178691697885
Ni 6.624242466032488 3.9942908159623567 10.32553385495803 -0.6876973334245124 0.5052117438903493 -0.09285359089762718
Ni 7.687809003403615 7.944023408485322 6.097780864887103 1.264158973899784 -0.07843561570008427 -0.22221813223709472
Ni 8.612045616880271 5.267628450450368 2.9381851474433573 -0.008752549381649443 -1.3350795121697459 0.06826895957972759
Ni 1.2475655720300143 9.116333449264735 2.0801870775706495 0.977277082935717 1.0398065689285059 -0.3239006342802615
Ni 8.351617493447598 7.783800464433974 9.10464407708497 -0.3299591817695156 -0.10416053127001415 0.776580883930798
Ni 8.6452101676733 2.5551396681196312 2.8058882521386264 -1.6291432655942328 0.4994912964668043 -1.6731651797011378
Ni 3.7751497398808227 2.4616062094606694 9.801429533530479 0.4356803726584303 -0.7394425843176039 0.29334461587027544
Ni 4.098293886225804 5.136799888141182 9.498343980221557 -0.11217980203006486 -0.9588168193480002 -0.9018108342766017
Ni 1.4411656009140206 7.2070292839245464 10.005772696087368 -0.56281396778485 0.036802513540330165 -1.1674638977688796
Ni 3.513354006106168 0.8080461021318712 1.9239911915398091 -0.4288720914873453 -1.360111001217077 1.1394285888982183
Ni 0.7413141099315591 8.315329616333022 7.3021983306276335 0.0566246904725799 -1.4289674578691585 1.2826673171166167
Ni 5.455083473405882 2.472981400886196 2.1247905800010924 -1.5385064798422665 -1.743252937657159 -0.15840823686998526
Ni 2.604604655691398 4.428941408230841 4.556467376376353 -0.8590721577574947 -0.06131772507287504 -0.37145627257203767
Ni 5.8028723277377665 3.3434099398942565 6.261780446416609 3.1262084475725773 1.46152148054578 1.9255708912652065
P 6.149358256000605 7.121784652811236 7.528639488940009 1.5749904337009133 -0.21411915727904413 -1.0133108366308226
P 7.890982304681485 4.793270955212356 6.4994738960359415 -1.099148915442565 -0.11733563519939147 0.7397482884834807
P 5.344787547447239 5.70229752393969 11.463937323927787 -1.6966586348373875 -0.1044549225819814 0.7605595688018773
P 5.431335104629598 3.1086152697632974 8.576469266767942 -0.3938446675695669 0.11847283412762823 -0.5887384009600957
P 2.4181845811027896 5.680406517857583 7.903364722642659 0.04236278123692704 -0.531328238471743 0.9841936075498922
P 4.952246416857168 4.4883123301715475 1.2307901678757482 -0.6151731981128565 0.08492636563075051 -0.35974772588585785
P 1.1930736923904275 1.819984425032194 0.7915737899993416 -0.6747433443670057 0.3994013357217379 1.253799742152647
P 0.6827517414024964 7.728634020233817 5.213991327274519 -0.9291565732794063 0.6544835656767051 -0.5324667229515604
