# total energy = -381165.651584756 ev
CRYSTAL
PRIMVEC
9.26540101917334 0.00000000000000 0.00000000000000
0.00000000000000 9.26540101917334 0.00000000000000
0.00000000000000 0.00000000000000 13.56085095264658
PRIMCOORD
 96 1
Ni 6.785201240145229 1.9642557006941654 10.95198724732166 0.7259247523368272 2.626709180685973 1.0062860685735573
Ni 8.106873600303626 1.070820899346818 4.148358978098273 -0.8385609251780203 0.06531861870215201 0.19748746225963407
Ni 2.4796436192745026 6.624539190559916 6.509085811017371 0.7379534013665872 1.020599656982752 0.7138554798771191
Ni 3.674037168870417 3.1365420040207277 8.864334938993286 1.065285944146533 0.5466707823660844 1.7153315286565425
Ni 1.1896959913986962 1.0357328265798296 5.900272076717105 -0.7785768313149043 -0.1632766207058801 0.048919094298206074
Ni 3.4835775903654747 4.747461645837389 10.826223329787274 0.8895410157703132 0.7004476911116453 -0.11393946503364895
Ni 8.470837073879766 8.845465023757678 6.365585136763196 1.9507569036125307 0.49374745200449155 -0.8758797162331368
Ni 3.2103131250586903 1.2940151388197485 4.402733144287725 1.2054424338951821 -2.228574884602117 0.28947844804664985
Ni 5.547195449061538 7.038804524989497 1.8341592817534305 -0.7090315761259144 -1.6973160659157283 -0.5892639344462626
Ni 8.43912160699796 4.553694319252749 4.409880474452092 1.8539127034982719 0.3676189011038185 0.42725743870205773
Ni 3.0708503124659488 2.3871285924515875 2.2635911507254685 -0.6536600413341452 -0.9431104643563369 0.36269138189521405
Ni 5.302607399179582 4.985702896182669 7.857184020750294 0.5306191282198603 -0.6375047717305214 0.9224681055156372
Ni 0.2537441189361768 6.826274761818337 5.540393718346395 -0.547566040486844 -0.0038934215171352302 -0.29184000630029094
Ni 1.6157098540217136 7.290795630097443 2.816426113112265 1.504119003501332 1.6169991740325316 -0.9314248004882927
Ni 0.20436787162100423 3.028970700924679 7.436242038516147 -1.1786895912813702 -1.509733264364316 1.0670764603880525
Ni 8.455873451614467 3.8914868598575976 2.102514937725134 0.8314014313151037 -1.4292451370105772 -1.3328722201057819
Ni 6.964496010706094 9.161072370644904 10.475228637687753 -0.18038628380297322 -3.017212185476817 -1.9001244261676435
Ni 4.823808548293155 0.5498070294107597 11.377825067329793 0.19820351449005222 -1.1460473797663167 0.2912095718051436
Ni 2.174608094681211 8.88387937540593 12.63330169813079 -0.07275193505174567 0.7925872866613833 1.456789622287749
Ni 3.300484005483388 7.016252539482539 12.005068610328452 1.0074839455364004 -1.9382975948032557 -0.23543385959642035
Ni 0.1861437548200035 0.033222947589276686 11.232059002584059 0.03023874427988341 -0.22498643901085125 0.08993564591988383
Ni 9.015438801130374 6.238802025142629 3.090124199175716 -1.370500571981517 0.31069262023041977 -0.46145259652652787
Ni 1.2571110474992002 4.034924529386447 2.7282259834342106 1.6587474616139108 1.2653221409699498 2.4217346660206744
Ni 0.7729484560992242 2.028881871158846 10.070437175559267 -0.3170931244401249 0.5404651677760047 -0.4778729468660802
P 1.5584774733822395 8.404089126635672 7.46707914540368 -0.8521291507807582 0.7338815452900588 0.05894485396532429
Ni 7.219813394695303 4.4201613631614265 6.269778113041915 -0.7471234979016295 0.09252783212709226 -0.3675487099875154
P 2.361695067300971 4.768438513211159 8.84342385596508 -1.5221226391676044 0.8420959349144723 -0.28594883762683654
Ni 5.456848526021952 6.852736746455918 10.626228727336066 0.547389919920296 -0.0853588251824788 0.08370637718072035
P 6.594157941390929 1.818835235397655 1.689179849534213 1.2257214958591922 0.8923198640670311 0.9554533021924061
P 5.164849420330999 5.145086320459865 5.630071679449412 0.11404256627041649 0.8889164948124368 -0.6574223365900549
P 4.726679351880073 2.8519644843573304 11.853539466295404 0.06672886878611733 0.1617262454996247 0.5813346522968569
Ni 3.0610289876354737 1.722002531809644 10.83415636593808 -1.155509810730797 1.192485616624198 0.8401043584057403
Ni 6.508323268532893 6.152846902074407 3.998823748313825 -0.3158307127879335 -0.15225430145344748 -0.3952155797751645
Ni 1.447255602377505 3.2325871485421436 0.7582359261951573 -0.16076748113078118 0.28201504979006914 -2.866407986206334
Ni 5.596857997260919 3.961125612146134 10.13897334515457 0.5703488427093145 0.7403280722463508 0.749939884304502
Ni 3.175855099544977 4.719016865432146 13.19981980439461 -0.50665284721225 0.6212980800636719 0.568036392526054
Ni 9.21889773693452 8.32713997312898 13.54609655441519 1.3490907388471733 -0.06391762458956735 -0.7148988335399687
Ni 3.2204680043173695 1.6331195420938476 13.53237264277472 -1.1534706688135812 1.3667603882127943 -2.5821781881531334
Ni 4.558252896438215 7.45635907669721 4.9694282197065105 -0.5979259809966349 -0.9576076295312477 -1.2464949809611179
Ni 0.8395259199689028 6.684745764850883 11.850732049858014 -0.5643525159165635 -0.7652374338935208 0.34556243552441135
Ni 3.4206469882441684 4.274685305460215 6.686163371170753 0.25046247179476866 0.6255141750275486 -0.4615171312158762
Ni 1.159296211428142 4.734730985160906 6.50127507815691 -0.5011835965675626 0.6705321344991355 -0.6485018941719735
Ni 0.207013143544684 4.934446699048531 9.716959356049774 0.5086858184818788 -2.4420453525535684 0.24462426784643676
Ni 6.7390317480412145 3.2832503600261402 3.862780795150261 0.37073250703213567 -0.6389191355795448 0.3146328358250904
Ni 6.010891696670914 8.97443013726275 2.8731238801265335 1.475448375039517 -1.2466644166594465 0.4298545100052726
Ni 0.9154892348322332 1.2835081743312973 3.2908118536055273 1.4234773812888646 0.2149164563693589 -0.2709443937982044
Ni 5.306730502528225 1.6719415713765733 3.3593072554373835 -1.6650726325009906 1.0160863424934308 0.37796553444546516
Ni 7.982114978754246 5.988608407786677 0.8131204542761009 -0.26259319362003164 0.7383069280512639 -0.6605639675428301
Ni 2.1686411765766582 8.097404360702923 10.49316923322478 0.28114267448744484 1.2095533707397619 -1.8216386739559143
Ni 8.44316132173955 5.854074788410739 7.6563073521445 0.7398418766385516 -0.17385696732488767 0.33495354966031343
Ni 1.0130603908626865 6.7769087064440265 8.926646612342257 1.136078955699695 1.5742509844317274 -0.8363988845296951
Ni 1.9668129513104022 8.428929666136145 4.721739040182329 0.4971042842918664 -0.21431970332562442 0.23311215344177916
Ni 7.839196171669272 4.263576089920838 11.26147294391125 -0.11146863489565319 0.9487254965502694 0.09266024393989848
Ni 8.806161193634212 8.966823243219524 8.854299583404712 1.0717049602989994 -0.56394962405119 -0.33771080069047643
Ni 1.6130043569929413 3.91199119179141 11.719829541049117 -1.9291673503672127 -0.7591686019916216 -0.15456186654070156
Ni 3.631759145095458 6.5548726420690295 9.06301478107332 -0.9556319938621156 -0.13595299319026263 0.482369292074537
P 9.180372200476866 4.741105580899931 13.006550956372118 0.23305661761349541 -0.36859772007732006 -0.3726271529516873
Ni 7.330914815489853 1.8902158830334828 6.553755234734544 0.5579291288887229 -0.7439612981235639 -0.18420411488716662
P 3.384511925188648 5.061076931556172 1.8203677326872403 -0.7833174313236831 -0.3854243047163556 -0.4214850549946548
Ni 4.749722403628555 8.73308497765501 9.15917481656445 0.7021201937180618 -0.34185027678014673 0.4132539253341141
P 8.138867029208935 1.7190098073565843 8.90760714027231 0.46570674381719157 -0.7259826021579562 0.4818866960111637
P 1.9477169602956774 0.5024663906477147 1.4924661255004306 -0.7436111138729967 0.37250991064753264 -0.9346908728340741
P 5.110896991568872 1.1139420745930724 7.026947591606895 -0.5467790258091744 -0.8727193162272842 -1.0324912662140155
Ni 7.009433204505908 8.451305609028218 0.6336894823237191 -0.5001250733960613 0.10157502993102507 1.8347556709538466
Ni 6.526826273897476 3.4379454915069005 13.197908352212979 1.7812134760613323 0.4013857131416184 -0.8188583045427704
Ni 3.1621701025877966 7.042705258719337 0.9474817371974655 1.3478748641622011 0.6788041446999405 -0.1007543338019426
Ni 8.924943631678254 2.4953206774001284 12.495089714643816 0.0699149798235828 -0.33223357962598915 -0.6367987468024323
Ni 5.032965705579134 8.0391342551757 13.154322980387475 -0.15392963227334133 -0.3101007522826918 -1.2727490295616404
Ni 4.876704721365966 7.222000029280202 7.262581558171708 0.09842388589655308 -0.17748942187115238 -0.5373556756127456
Ni 2.0271029142084203 5.65413670490431 4.376235951127168 0.37175812008317266 -0.23287998282631509 -0.067931887955283
Ni 2.9057408705045713 0.6269989364179778 8.84109175458788 -1.400552139951259 -0.428951538575029 -0.472110076240374
Ni 4.3873247827848205 3.9741249694453376 3.3408515036167965 0.45472504799470714 0.9753225303125074 1.1000426309014282
Ni 8.997806743439437 1.7593698931693653 1.1180531329206964 -1.1115100081110794 -1.3994907885662802 1.0098583593058479
Ni 7.260303196119053 7.345452229319113 12.309509296191449 -0.1437534630712879 -1.2813092604268255 -0.4768208514524821
Ni 1.1572300270534288 6.0322206492744535 0.9461243559826876 -1.1771207041323533 -1.4166670432352506 -0.8338498928555961
Ni 6.019962524037927 1.0860346874332705 13.397130220238848 -1.5560804841702878 1.474278780211448 -0.9466516447403761
Ni 4.275991726970684 0.22896473108087337 1.1868051863542548 -0.1131395948401729 -1.326931943361947 2.663556945641942
Ni 5.695914397036963 1.995674674750901 8.791594130522444 -0.9545027653536787 -2.039670536025803 0.9640433578542622
Ni 3.497290383525005 8.934246094064855 6.523148836326517 -0.005922021911389802 1.5338700095115196 0.2882887986139228
Ni 6.5660930424178074 4.737871956026501 2.1656410398029715 -3.257260146806481 0.8456818524935176 -1.179779224801123
Ni 5.351880800546058 2.909067149385836 5.716115750365154 -1.358091913904519 -0.42161618125588035 -0.17517028681967253
Ni 7.007246569921009 6.993737615578715 6.063856433709523 -0.09087795522849511 -0.540303959607792 0.3367047280234653
Ni 6.15573770711885 9.228042687507802 5.312571411182122 -0.539478121272387 0.7451805152426457 0.16644550535216493
Ni 8.63352824623666 8.513921187522886 2.1663461368025936 0.9454059452587331 0.4324711216925133 1.9694259407769437
Ni 7.220137683722725 3.4720143701877078 8.35097521664445 1.300328996062438 2.822033573856017 1.0458016101696763
Ni 8.103686302434113 6.844666582373518 10.315291142443707 -0.09226609382527336 -0.22397753813036264 -1.8294090619299526
Ni 2.3016645356248904 3.2079133862557723 4.7620148108479805 1.2404999397199477 1.434427452542465 0.07263829229201683
Ni 2.4446018735114317 2.3005434221300907 7.386825949977605 -1.0274025388371983 -0.762766603755525 -2.088616884017519
P 0.3488747684002649 2.9702002637551495 5.166277218591731 -2.0198982384948825 -1.181401076675262 0.5090311176364395
Ni 5.316051495716392 5.627683985667513 12.842125300988561 0.5962997582471214 0.1424314018257547 0.03161119914737782
P 7.802431061360475 8.081458605954577 4.1530102092915735 0.1890832973563389 -0.4288571790890098 0.4663477198353001
Ni 4.664545574226145 3.2873919941763496 0.7520308872904697 -0.05317375580950197 0.19713110736147985 1.366228941189357
P 7.665859053812175 0.278431779323724 12.414090654454672 1.6494570374509205 0.3548250917732599 -0.03553058880644204
P 6.650565701360674 6.605081848914636 8.442592426131446 -0.2290274418494443 0.7088644544204308 1.6475418227060787
P 3.7605389505848623 8.28303666539968 3.055246451006512 0.19817703212749097 -0.08420517119400982 0.29955511555636155
Ni 6.658774846454825 8.777364327999196 7.655316880800748 -0.5139686641473729 0.7856275675140987 1.565148250799511
