# total energy = -340864.3475262605 ev
CRYSTAL
PRIMVEC
9.32662137859544 0.00000000000000 0.00000000000000

0.00000000000000 9.32662137859544 0.00000000000000

0.00000000000000 0.00000000000000 13.65045313691131

PRIMCOORD
 96 1
Ni 3.9184586908918613 2.1038712517948035 0.4241103827960754 0.27929096599068676 -0.35543495744311693 -0.12311470377501377
Ni 5.950776104113718 7.197586818653253 9.25234501537229 -0.30015289704136044 -3.2143247808955353 2.628586600214344
Ni 2.952789648659798 6.640750220874415 12.352759223871006 -0.8085751774492075 -0.9825722698963851 -0.8337822728424543
Ni 3.5250711313026613 2.16484870181956 9.833882236988014 -3.506498516386161 -1.4206643373201018 -0.9853513753034192
Ni 2.715912121016978 0.5432262593234807 3.0316154538562237 -0.017426423006563538 0.2898435446955524 0.08730849270968188
Ni 3.4521369527780985 3.222972540945996 2.8450410581663745 -0.5177687546197535 -0.003280727633800802 -0.13162248413570882
Ni 5.584025374942184 8.356074429531969 1.1183952639191834 0.8122497980873172 -1.7952699541543984 -1.415020508770763
Ni 4.965017519612868 5.583195305646956 5.089407600482427 -0.5147911600486682 -1.407874641754601 -1.7532707269044772
Ni 2.473634479644526 1.4562213424694603 5.585710695410137 1.6712047135406574 -0.9426911174307313 -1.143704847676069
Ni 2.7086373564071113 4.286058142601213 10.875970816122472 -0.6418879883998816 -0.1571028877950004 0.42132333260580995
Ni 1.6954678319211347 8.588046154373776 12.763064341826665 0.6220742961080641 0.46937879335214 -0.15248287252448578
Ni 1.388911116585602 6.565260548115104 10.369962439075495 -1.8498416187526916 0.10664061737939054 -0.5168375010547357
Ni 8.668852001271066 8.227544261469692 3.439723219834851 2.1629207369374166 -0.7694841249850167 1.2762506149569954
Ni 5.038110250699441 3.7582086838063065 9.897124190663124 0.551564877233592 1.0164722650779396 -1.174620820528635
Ni 3.3468487249822165 7.598454328520805 0.9178971552984747 -0.0932924782072587 0.040521871373446344 0.3583143358734409
Ni 8.354386311077628 0.4293864524624878 8.579542141077267 -0.1812234349922879 -0.24881953687470695 0.16727648589389257
Ni 0.3587811312752116 1.1404685785373527 13.446869831263045 -0.4399250068673972 1.0854449355929112 -1.4907508097245423
Ni 0.8337262634380557 3.191420581106022 1.2363061409753133 0.3171221779058474 0.41844421128580195 0.9484565591595988
Ni 8.23442730798518 4.394023110708674 6.507812291588263 -0.2827241600419518 2.600442019459328 -3.1072159656304748
Ni 7.789771311139009 2.217534785513327 10.334089455589686 0.8087590113252393 -0.916681323630531 0.589748587392165
Ni 1.0834642691841392 3.1750150542486426 6.124999255222995 -1.0343206061132704 1.3840991366015583 -0.25294358634540953
Ni 4.674297407235739 0.16824665218363213 12.56813609144315 -0.09885891655144265 0.1253631334895583 0.6315295279836929
Ni 8.728561030799744 3.979147015656482 13.110987420590586 -1.485781381534409 -0.017820830231504794 -0.3223050076583675
Ni 7.721108725167419 7.892942395900993 13.091098400679636 0.9996940171783364 -0.5953582202694585 1.226516738066978
P 2.6551585099032944 5.637373648747874 1.8481073160302137 0.6842790517715828 0.4064880673651903 1.4569197201077102
P 1.2631509550478517 2.380321633591041 3.5137224985112687 1.4179991317831129 0.3825701230970121 0.3944185377951659
P 6.825174830355835 4.249535093611163 4.892240028326055 -0.1798556081104838 0.7109172231844014 -0.1511572117345268
P 7.08330772792928 7.775492253936821 7.615847544573292 1.7613517041403988 0.612450656975371 -0.7566802883521291
P 4.5678153719141354 2.1697451779992782 11.71208842526049 0.29293915290174066 1.1880782315851215 1.6093714822839447
P 0.6298341973282051 5.872367198889164 5.873599245562196 1.0888179658302024 -0.6718457111042365 0.8559909477290097
P 1.479146177611836 3.726749990179279 12.76571216961223 0.8567347678735696 -0.9955172600928274 -1.0830604945211346
P 4.103713369668511 3.0438827588451445 4.9381876281344015 -0.24992202591026638 0.9215383946125162 1.2973033218622367
Ni 2.4054755312228497 0.13706868985757562 8.125951241030771 0.26014036120416484 1.0943170412715606 1.1307269473591623
Ni 5.326358808433476 8.958396959365064 8.23722902502211 0.28892488953602496 2.7052083026341407 -1.5014627968254077
Ni 4.985023122290002 5.251064994721353 11.632164876737676 -0.8842116331375998 1.0664678802697762 0.9728226467087892
Ni 9.153463243743738 9.236992464059082 11.319924518385152 0.7646792473972056 -0.2411422228351073 -0.2107049893911726
Ni 2.8154831299592074 6.520418152930181 4.150584304985031 0.12924807036626126 1.6245993549772924 -0.8899271954651383
Ni 3.214709154478891 2.968952683363515 7.5512802780122055 0.1854351590807903 0.2371055908718884 -0.8649926370069876
Ni 9.28231984355133 3.9807791743830547 10.570405520630565 1.5031795224061983 0.9064899849198259 0.024385885043532198
Ni 6.735891084701662 6.8606346445182895 4.324627452303321 -1.1230149234268854 -0.5192844199333315 -0.5476814830187858
Ni 5.782346650152709 3.66148229435896 7.348134341605931 0.3090198605136872 1.5818192836972886 1.0112729802651874
Ni 5.39142131858531 1.7465963698586864 6.597932635172571 -3.1167017936337227 -3.1626348087204113 0.5222836117709715
Ni 8.82852375783635 3.340655848442535 8.159107379733435 1.2632698864266114 -3.2793729195451196 3.2890130137380447
Ni 7.491655188075181 2.1390792471823006 6.401625910161702 2.766322139226326 -0.532326083608638 -1.3353106543439455
Ni 0.570900210029118 1.025359418518151 6.672532548260368 -2.1029728956288753 -1.5512804916784833 0.4801843686080763
Ni 0.11036470776658724 1.0086647664006358 2.0965731706317 -1.1869366617815107 0.7422296601444379 2.212739203121441
Ni 4.667386380856365 7.987393089752431 3.37738128511468 -0.11789125059254535 -0.6630664222497097 1.2044355898972225
Ni 5.000486660396616 5.765707957762963 2.5951967289375313 -0.8747538301588096 -0.5532906016754471 -0.4551780763717258
Ni 6.999815814099115 4.278270413820137 11.016802797672458 1.0232928875441991 0.6428446958861961 2.323957412569185
Ni 6.3555701215463385 5.819662461952809 0.11241003581651521 -1.0859329309729233 -0.8233338238156207 -1.045245223445574
Ni 7.47998758483551 2.818075930679134 1.4876399316249203 2.6753130577366053 2.837193826536223 0.6830055843757978
Ni 1.4618919282166387 4.673280805514616 3.5936591043038937 -0.5520114778527073 -0.851294827804921 -1.0321163993730997
Ni 7.167303279309358 6.765745599466 1.9648738166534838 1.325948239292439 0.3138118825856918 0.9289352012972195
Ni 2.152453622118902 7.978719331948359 6.3345749643498355 -0.331545552420029 -0.6738090054781944 -1.0881641342962873
Ni 2.433371455515301 1.609038032383139 11.98911052894209 -0.1744472926107189 0.5712243033357323 0.9941491761007072
Ni 7.031423733666858 4.997949819404458 8.992290833812138 0.9625824570380197 0.4205095784552629 -0.8615442734470712
P 6.724820385224851 1.9264789147695875 8.437044424964046 1.4485551501930989 0.8022728893802635 -2.4100616005581204
P 0.5192083441653662 6.836665227790908 12.296997220474246 -1.159996385747241 0.6860204599427218 -0.486502340406304
P 6.698183554807185 6.635984317392823 11.494418141511975 1.1913964973250775 -0.2059708171402969 -0.8002903117325959
P 1.6976968944105681 3.489396804850429 8.992495086818492 -0.8476667441340304 0.37075641829153566 0.19946361214939842
P 4.866892136971317 7.383578300512184 12.701268947114364 0.17627303296554803 -0.14117258971798913 0.8508176310581863
P 2.2467177835444465 9.441245470413037 10.343944896311799 0.7733682905307714 -1.9063598655543945 0.8775028536588566
P 8.602698276427752 5.101950973461671 1.8647198938803355 0.3759760148192621 -0.8925952292156046 -0.30420778383702446
P 1.6369805897820637 0.048496565408187094 1.1543176784978544 2.326762743228464 -0.5775353331554247 -1.0158156053305474
Ni 6.144266189493589 8.575072824152846 5.583034887760687 -0.024425737142532128 0.959569895463941 1.5787329314624812
Ni 7.107892701662112 0.5317060167002658 3.293744808654447 -1.8144424133177912 1.1579605862641347 0.4619789013436431
Ni 8.642597562326483 3.209458266689974 3.85750922073099 -0.7029750855191893 0.40395707341322035 -0.016796502732048493
Ni 1.0662753061380048 7.353826378582087 1.6026856706193178 -1.0325989954364734 0.994616602655429 2.0283214295615712
Ni 6.4231881259329215 1.1801813320101904 0.7624913953133872 -0.9486576194268113 -1.5666153222633408 -1.1593628659283
Ni 4.802547776659174 1.0205095754449063 4.615204867374641 -0.7985954405286763 -0.964234647929462 -1.7588646760524869
Ni 3.4522208923697506 4.559887743813639 -0.01800504240942059 -0.29111984030481475 0.13385960099634364 0.236278981205535
Ni 1.0877824948435857 5.6042827963942745 0.30047669091351675 -0.14616875738099985 -2.068044716293122 -0.3050637040794166
Ni 4.1936033457068405 6.831684812019537 6.874368094374738 -0.6319337054006472 1.4389250833025025 0.3542504502167125
Ni 5.607220682102106 1.3949640938058632 9.947071045682637 -0.4888379305180161 -2.0091471706259654 2.0090882923635722
Ni 8.336441891706622 7.284865340729066 9.63244213961654 -0.5844603424100322 0.1378062443489175 0.7122698805575539
Ni 8.738605801934137 5.971593122843491 4.085416404012566 0.7360566985645065 -1.709638077816191 -0.4942166783314263
Ni 0.5583409817936734 7.9541250315942325 8.01629722180684 -0.05075383351409969 -0.19426741266043962 0.6235999887239713
Ni 0.09905991009527998 5.587672083868413 8.286165806955406 -0.42991801625335635 0.3015189241509517 -0.07079481132537484
Ni 6.3109702185150764 5.827263658307991 6.8815617173793395 1.4789265633961046 1.782290511175595 -0.3386919336568232
Ni 8.62737651637353 7.876471582694551 5.9615763315729815 0.3263519240342315 -1.9481037822603997 0.7570381859121801
Ni 3.5145880089674173 6.5642252931513925 9.972925372573679 1.7923975177026101 -1.3231976731304953 -1.09711902949673
Ni 2.7381188063196613 4.808675366849792 5.664350900842798 0.2955783902968006 -0.3203378566296677 0.37517665884641843
Ni 0.9669747692133216 1.6387619744493516 10.022489836120108 -1.4296631983846024 1.7802961064533853 -1.2283198527139878
Ni 4.307425431987373 8.65046923069921 10.263939273521592 -0.86332553371721 0.763622266887601 0.9663797192969228
Ni 2.3705939675806675 5.385107195968798 7.985255428151686 0.5526393412446934 0.3177040185512464 0.35429184497760924
Ni 6.831740771747306 9.072610763739975 11.352098563865482 -1.3564137548711477 -0.17318256696568238 -1.6526259220972055
Ni 6.251214555879927 3.3122189801149915 13.075632064586632 -0.9156145729289135 -0.5465645958055232 -0.0847949822592088
Ni 6.165204454300192 2.772459425926751 3.3661473697652124 -1.5047090716768472 0.8748821282065579 0.5782909803745265
P 3.9749220562099823 9.211409541847718 6.686688494061466 -0.0058047796072351636 0.05703580986806951 -2.18113417462165
P 4.9349391659374575 0.5011370827447533 2.443445139175708 -0.6620909457103178 2.210235719973297 -0.1810542564042753
P 8.271006316703 0.36576956861133114 5.127560942874791 -0.7160272907174572 2.267760810772959 0.25907978115013447
P 7.686628206240909 1.3863089892443805 12.476090733223616 -0.08557865450276875 0.5439073606883343 0.08716399671201762
P 7.910233951781368 8.829428440101935 1.592161511150377 -0.486334190259556 -0.23219298406161945 -2.6958230047644993
P 5.033484246537269 3.7825045322790025 1.352466411214428 1.9090512963436284 0.08150679842624026 -0.08038888277171317
P 4.60339643215342 5.261231011932577 8.280992330123235 -0.06462082130417902 0.013845133413208414 0.9796088163926869
P 1.4029570082554221 8.61818979439825 4.398067133702056 0.6283087070535501 -0.4581250748151917 -0.4283843532176493
