# total energy = -381170.4526852694 ev
CRYSTAL
PRIMVEC
9.18894659229956 0.00000000000000 0.00000000000000
0.00000000000000 9.18894659229956 0.00000000000000
0.00000000000000 0.00000000000000 13.44895217078454
PRIMCOORD
 96 1
Ni 8.294916975620971 2.36596989815387 5.541048573145568 -1.4411084641070666 -2.709983098314965 -2.8285122396018254
Ni 2.440280907033668 8.269132792250536 3.0933126739634917 -1.1773446472177014 -0.003669735542103358 0.2546513130651356
Ni 1.9264074620497516 3.13911865246787 2.309104103860235 0.01671679853404863 -0.35100160426211163 0.07942754729970837
Ni 5.297923755865336 4.3644554551279615 5.148554676770026 1.855436596341966 0.31886487162856697 0.7463899621697145
Ni 7.9881991364471405 1.4468547315663969 2.037152643083426 0.41978709846694157 -0.5458783683717761 1.7355198306789594
Ni 4.094778258565045 1.111770615106559 4.577189670248165 1.3681004471804565 0.008980349121739372 -0.32838001020785385
Ni 0.6795620927413422 5.94456828620899 7.624130326614043 1.8633674211532685 -2.6002633277896186 0.8052101176317166
Ni 9.009550519777118 6.801290507292096 9.819187661028273 0.6734377381817047 -1.1277979466378254 0.6079959636381271
Ni 3.6982200912327143 4.803714656003561 7.15918618298825 -1.1357665666655987 -0.2873711718956599 -1.4819118712766735
Ni 6.767392484322197 0.52509774291228 0.3259686817116296 -3.273803910097775 -0.7686179203299794 1.3524277736402062
Ni 0.7318279005078071 0.3982121776697069 1.9413431753962611 0.7574364497918633 -0.440502476637422 0.8762067605552523
Ni 2.6652722576484633 1.6900493848386522 11.642179045628193 0.469782713658778 -0.5194312299238409 -0.8666970212926042
Ni 1.4895373872170288 7.213782307541153 5.395140970128534 -1.400094226478234 0.1131082273816052 -0.47211367578479985
Ni 7.85759664241863 4.405401399924348 4.448227403137553 -2.180412723074593 -0.3298172568750126 0.5046646131376277
Ni 5.19362921514743 0.3229133570606425 2.486576656376836 0.16211705318014016 2.125074869734237 -1.2768674226053882
Ni 7.240191339261264 0.5391182372054413 7.5174668755351615 1.1240503066699352 1.2217802518232572 -0.9748633312879017
Ni 2.879926043654656 7.0583604695056765 11.762601106030152 -1.2113140621846106 0.05206741011920066 -0.2830206082364481
Ni 0.2720552958702113 3.780332515537138 9.816928099128491 0.8323349988729666 0.9334611141920311 -0.0855637421044333
Ni 2.247827615333596 7.09673350933281 9.36419606516033 -0.8844517741728638 0.048203556288420206 -0.6353964671382669
Ni 2.7772028127572574 0.3330607104804473 7.475949378277749 -0.250819083803239 -1.2918726377649687 2.8179228941217533
Ni 1.5355740082740075 2.717189804349448 4.933075723384408 -2.966468636375362 -0.4139033859926549 1.3803430119932358
Ni 0.4261272776914626 1.2268070340710933 6.929868676446584 0.631581464267551 -0.16971980522806254 1.2428774388131887
Ni 6.593850044146128 6.678177004513373 9.881631145737398 -0.6097471420012789 0.03212310578678984 0.7945971180025606
Ni 1.0143953509666779 5.256794032142573 1.073098934524065 -0.19425172893115575 -1.881124488026373 -1.4152390525394722
P 5.098440920231414 1.1211157735127362 7.778793157683591 -0.6269105411544429 0.22505663012715435 0.6019379303695054
Ni 8.551389656323833 8.577045194445807 0.14757815345778474 1.9006162782023976 -1.3185455190704645 0.01694639804635146
P 3.875566755184748 8.093862830166541 5.007596240240273 -1.600132737294496 -0.5563067627939515 -0.009318449187448468
Ni 1.0629405543686776 1.1381153242024387 13.286824927811228 0.13783452648369166 0.05894999617164686 -0.9748946987464694
P 1.7069386681725298 4.903883359824345 5.723873686892847 0.08412726676822287 0.15974083963847974 0.720665817930733
P 3.341734918796489 8.94589868862708 12.738766764732267 -0.3844364868817895 0.9266533472415783 -1.1009846830997232
P 1.414224783188486 5.055151794123743 10.920010565490665 1.133018057386184 1.6697042177357309 0.5032808454162236
Ni 6.9688601323609705 8.060635600277912 2.128915298811809 0.5712027060691776 0.31085845638432275 0.8705320787679782
Ni 1.8420713127361885 7.608796731891932 0.4847913487796789 -1.5121524153287698 0.43718241112525347 0.5701534388690568
Ni 2.927295061927855 0.7730871883736634 1.2044209230493343 0.7562126046870912 0.28137175977911544 0.39595837147846
Ni 3.3943048806861045 8.955032501267926 10.121815500195627 0.5796490370643179 0.9052476278722926 0.06716904164732948
Ni 0.14864682791465633 7.469418794129006 2.956658339889447 -0.01817127159238806 0.6820892432091156 -0.01404259413599517
Ni 3.532708790139241 2.2914015987771474 9.169306783791153 -1.2457779002894351 -0.33958230668157646 1.1120396553623042
Ni 7.839724141828644 8.805271054164804 9.636294549078238 0.8895333024608292 0.30925691622515766 -0.5090095203698847
Ni 7.196516277408206 7.013077342046835 4.40470671558265 -0.6814924901653812 0.48795527080274675 -0.7863107096240523
Ni 5.261158781643984 3.239489513107666 7.9745829557920045 1.4985247972430065 1.149353304211098 0.8118561621933245
Ni 0.11450162228878262 0.4050790772537149 4.3846270300869 -0.5670976827618684 0.2581760383889425 -1.7806110665906432
Ni 0.5185910500239672 5.2650548948831375 3.6326422569342642 2.152905775903576 -0.21652236740389805 0.17478385001453123
Ni 3.408042355432648 3.4450278643656502 4.521766540526575 1.505620270637207 -0.02984253728272925 -0.631767355026112
Ni 8.300963302298713 6.3720380689576235 1.1678158364939293 -1.8210180096527802 0.04297804622342276 -0.25783870965418176
Ni 4.79440625338266 5.968643325564137 11.885295592856739 2.486430563537163 0.08122937639513753 -0.5569335977446731
Ni 7.282478870220189 0.5985063972635758 11.574006252889328 1.9527212264277531 0.3806479663736348 0.20663467597654092
Ni 1.4765350281759857 3.4208425576546784 7.719792771160107 1.5773705038973158 -0.27061889213798557 0.04864989979721944
Ni 8.020580983274446 4.110895670408147 2.1348458447659358 0.1918325779667019 -0.47650666264617286 -0.6603143134258692
Ni 8.18215022639717 2.1909388486741634 9.06318180496655 -1.2115336343945844 -1.3460349827399851 -1.9570185682515264
Ni 7.532179297486126 4.767445884883422 8.94468299102911 0.021143209736518426 0.20897000897793688 -0.28290670836640314
Ni 8.585609292414889 3.802652466145402 6.9518973374565425 0.8458888262980012 1.3465720861903778 1.8033923261512168
Ni 5.207991538243649 6.425582059157028 6.262746579231577 1.4163909067557283 -0.6388042072682354 -0.14331071910691448
Ni 8.134018525579515 2.1690875343281566 13.111813175118792 0.8661187801916309 1.633442664300535 0.8609927718189753
Ni 5.746243257811231 3.7157250339699486 12.600390422118087 -1.5783495799811333 -1.1842449738819605 -0.9794887458750551
Ni 5.762057434425814 4.701064936676714 1.030364820774048 1.0848008742510091 2.5786922864870623 -0.9309206071583644
Ni 8.28967927621928 5.97136325367449 6.058457005778311 0.1589751651170488 0.051493282783285514 -0.2644492729921639
P 8.428616144558903 8.451202574610411 5.841914891303614 -0.6725933879035384 -0.9730954407542016 1.0767589777831392
Ni 0.3259631683438384 1.685372211162404 10.894175842915475 0.209899976991374 -0.13008522155557595 0.8922964670282634
P 7.850732499518517 7.629968064210351 11.778793867233068 -0.38063536796814446 -0.2901795878787325 -1.1327971996246298
Ni 5.987094729772203 2.104305462780911 5.944396452912829 -0.3780658074687553 0.04857019559921958 0.7325057479884546
P -0.05752556063932218 2.5738054859915445 3.5071230880092905 -0.25621634355941036 0.554473823350271 -0.6798986633157
P 4.429843997132245 6.877319849133501 9.790393178843813 -0.6603299971551531 0.05799148891311948 0.5457698678183698
P 3.967180549982768 2.0940689765818146 2.634945978112666 0.07021271356965973 1.7639369483690719 -0.25703164037185405
Ni 5.574584551630509 4.03613440315873 10.129024228582693 -0.7599317054098912 0.6637925017824569 0.5972402677835199
Ni 0.24386728414278855 6.282703132846656 12.458947728117337 0.8740035822563464 -0.10021748746186611 -0.9288387849286712
Ni 3.4973772915436157 5.402402075509617 0.34819582396207394 -0.5276147941758977 -0.23869119019145343 0.5714585308337256
Ni 3.1429228762438353 7.160357773643892 7.033909602246092 -0.21141718496684883 0.2195578117961122 0.4631335837733766
Ni 5.375166038620818 8.735278850054822 11.807762939397586 -1.4037063693095246 -2.9938945937967985 -1.0094991761942163
Ni 2.1093042495783156 0.46008319102316986 5.37667578250099 0.25026372552040127 -1.16075023319413 -0.27656971040478173
Ni 6.564941619027316 0.33513925013775037 4.340796675041055 1.5906978171338413 -0.5518011616141142 0.2647346654430666
Ni 4.987337370291307 1.5048737386230362 12.695124783085959 -0.5228168585666222 0.985199423106587 -0.01976561266270144
Ni 0.5103118093907661 8.082578804087106 7.670488560792179 0.2865761867981903 1.868376187221769 0.25797729211457504
Ni 6.24826296204395 2.5619333673477085 1.3841659019905643 -2.6863106943986894 -0.3115757941663215 -1.0386362027694886
Ni 0.9650507092349462 8.653708573583206 11.164701179223615 -0.12666051214474316 -0.5588866077059859 0.3806860187004218
Ni 4.028296231948829 7.76324454161762 1.0244177347165475 -0.6886452991600786 0.40379895056880133 -2.7018013338351214
Ni 3.0454373447481293 4.907512993620254 9.34738488787016 0.09316495149045892 -0.03661148057544662 -0.6925924567332845
Ni 7.349227376279649 7.409240384687458 7.545171548686217 -0.2008733480127315 -0.94925874334592 0.500362643328164
Ni 5.632061410854342 8.51619599192299 8.722411568524667 -1.8944322608788726 -0.8316945370754901 0.9587689968292004
Ni 3.324496455502498 5.89469987453709 4.419204116189755 -0.43592437034843634 0.00502342135652038 0.20964518066809057
Ni 1.2810861399759983 3.593070978507164 12.611028465271314 -1.3339202017543221 0.20603509471932904 -0.4142905941287446
Ni 7.387536093482552 2.9398563515455973 11.115625773619021 0.4822502499981694 0.8225591504331253 -0.46370411156486596
Ni 3.568417035533936 2.259065696681437 6.73153629689177 -0.7108526884950532 1.5687519089903692 -1.8077027806011123
Ni 7.177348135387277 5.26059825591854 11.77951979399225 0.9796373556377774 1.2370459197330759 -0.09627547209498258
Ni 3.3118432764215684 2.9249151248312963 0.02950846331342832 0.8372982564155128 0.7243777195646816 1.7055549088857531
Ni 3.470683402487623 4.202978101468423 11.411247041218322 -0.5588464984966698 -1.4380269969682653 1.2614639435661241
Ni 5.444101513904142 8.712701608949633 6.250090643466751 0.05031700308699721 0.5955327981741098 0.1435140933669722
Ni 5.813965792180479 1.4722529791914445 10.057973457856791 -0.9772454583668332 0.25649890779683565 -1.020262071137675
Ni 6.325799291081632 2.6304920958319635 3.75978878825229 -0.30217969766340214 0.12855772916745603 -1.18393618439229
P 8.418664515695689 4.409692637855208 -0.046012729796549995 -0.19629267062058453 -0.6297567523539864 -0.44323015998123017
Ni 4.513766643861464 7.488329645653011 2.983340283315225 2.9327113374192586 -2.802478277431909 3.602021169475519
P 2.365804497120133 5.945597448196692 2.292414220661475 2.8833667255478597 1.6330567417160262 2.1535881466825813
Ni 5.983511040707887 7.220526994139122 0.19630346020763217 1.4681713817621296 -0.7738249184522156 -0.941742637474533
P 6.537200190090984 5.910440539581122 2.5831671845010953 0.2056085487048717 0.4337407324335562 0.8541384679013032
P 1.3483216601903523 1.4574403977256063 9.024959463859044 0.5968810846718882 0.09966932826787996 -0.5417291220900928
P 6.657658087383585 4.515586055232578 6.976576090584832 -1.25326161026099 1.4072087260358281 -1.150985183387566
Ni 4.549208409812914 4.535084999320984 2.8287987463370854 -0.6846981415868725 -0.1342486089046462 0.15512828056713282
