# total energy = -340888.0508785192 ev
CRYSTAL
PRIMVEC
9.14007883792356 0.00000000000000 0.00000000000000
0.00000000000000 9.14007883792356 0.00000000000000
0.00000000000000 0.00000000000000 13.37742927263171
PRIMCOORD
 96 1
Ni 6.444157802266805 2.0742312300095085 10.95277044801301 0.15159764170605503 -0.3988380070191002 1.040088618945299
Ni 4.791677233875573 0.5080585988466565 5.814860626582152 0.12669805025089792 0.04657142000163593 -0.09559053021281601
Ni 3.0663319563319056 1.7678283643651092 4.582130870541443 -0.5345724564406535 -0.3985245895437395 1.4410886666127245
Ni 3.7582176504389295 4.676274597428174 5.137293780111632 -0.38189829384096813 -0.7067150121775958 0.2692297250999428
Ni 3.8031776986477652 2.668848204246959 2.5494038249010136 -0.322999976842863 0.7157791792623931 -1.5652498093743816
Ni 4.711006897325221 4.8922363821564465 2.6626704249047455 2.2650069021769057 -0.9416343940314427 -1.0581508757636486
Ni 5.079827361916183 4.534393152348735 11.695899994586558 1.730120771150575 1.4450000858519887 -0.43133443698490875
Ni 5.740380865484502 8.17803991352201 12.541380144909356 -0.9402233726165292 -1.8272369939792983 -0.4944478205056258
Ni 1.9514068494788448 6.714786399017245 0.04413469908233489 0.934956724900951 0.7256640424762728 0.7779780213886408
Ni 2.8873509309150687 2.0226172043467123 0.09096023739879892 -0.4495432466834516 -0.6703434155270971 1.4150557328840727
Ni 8.317142774609684 9.414281287883888 6.546017583778032 -0.3674342958968382 0.23464504514653786 0.48441846129408195
Ni 8.629075388000851 2.244264118163396 1.0382480707829764 0.749334132399703 0.9497616511242676 0.46343825949798895
Ni 6.995167459975621 1.1589345868541878 4.603908936584783 -0.30600961293245366 -1.085780721665775 0.01797432509023356
Ni 0.6027644405869844 7.394479227844621 2.2068080747481065 1.7995207590109525 0.9179164815892127 -0.6385147010522745
Ni 7.835963319851775 3.826439199499867 3.5568982721409386 0.2455701766994738 0.2252175811850508 0.13748845599818257
Ni 7.424860850175618 3.7543970974502545 12.601939565811424 1.5402036650390314 0.6353597003630607 -0.5057467904582129
Ni 8.59257905287219 7.2803836226828205 9.13889802207912 -2.9431698137484217 0.6802758441494606 0.2753198971580807
Ni 6.938764032958599 0.7866143860446525 0.05586142033704851 0.7197677315964959 0.6079959636381271 0.2386850195438664
Ni 1.630599219456091 6.734337027827714 9.151151211879643 3.061941924284023 0.06287992735367234 0.06627069820277619
Ni 0.6212529922269179 5.10528248170915 1.09122214018911 -1.5072362089740752 -1.5255607183148758 1.0222801300089686
Ni 6.465856349623539 2.260378077299842 6.7561105238315955 0.7724079835000311 -0.491021054212264 0.4353942088765792
Ni 3.492890299462249 4.663396226229505 0.4474178312421959 0.5875459233138914 -0.8403344721386754 -0.76961473702561
Ni 6.219174759644219 5.913228897945833 4.768090346213911 0.19966364397534644 -1.1289397735517523 -0.0975150009290385
Ni 5.456544854694263 3.3095677365582805 9.096304340302744 -0.18061048399863733 -1.7719770450647288 0.13923912014070214
P 0.08167483122369092 5.3805450984721706 12.53041113619713 -0.9058739486023819 1.3712958141893028 -1.720369348190766
P 4.137393824446564 6.367207477837004 12.600976201493227 0.3298249701844965 0.5928557655625789 0.935396640651847
P 2.399764280834045 8.622128928021441 1.4383815317469106 0.7092179811051077 -0.966552240319045 -0.9360376166699557
P 6.572539350780995 8.202955768658681 5.8624712976778675 0.26716461504079797 -0.4303193654568331 -0.14089053970119605
P 4.884366774206089 1.06217771140415 12.684304472993597 -0.1703846925055711 0.8007600522801628 -0.7347626623434313
P 4.123117021173093 6.251740860837162 8.275452132630631 -0.724048875470353 0.5963223839549407 -1.5101279286995735
P 4.936574904998703 1.1030338641777822 3.539266145895835 0.9206580488900917 0.42870625533344237 1.5855661523342306
P 0.4385784609183974 5.827686899330974 3.591197332297165 -0.2527728650955001 -1.246017527104067 0.522332719841352
Ni 0.8320378362547461 0.4935797998290479 4.821733469397008 0.2889012353869411 -1.1638386423114666 -0.21621460635549217
Ni 2.069103645735234 6.725151248512837 4.772090044749422 0.51417075285585 0.9838719625444151 -0.2624044746479932
Ni 6.003843640361446 5.704304973986174 9.156154491080601 1.2553537169033282 0.6418049417677721 0.18147386044019712
Ni 8.814107145662911 2.3914376689376744 10.259979886092879 0.09025857647694133 0.5413025760756356 -0.4067832300081059
Ni 2.4194154505126377 5.783567738382804 7.000702691769739 0.2444196080347984 -0.8020790282019026 0.21021596556989602
Ni 0.6949823528452133 9.320504078161862 9.055222427579782 0.8250204674894244 -0.04978581317387555 -0.6676830950861147
Ni 1.6162310153934174 1.2651148836710298 11.305038229679353 -0.24117410451430724 -0.39557142045268645 0.5234094978452986
Ni 4.222268597300243 7.175473796835897 1.6177592365888875 -0.2776968820306895 -0.47488969586804014 -0.760253350415368
Ni 5.6936567820440525 7.887047220937195 7.981188205800249 0.7450578736218524 0.548851849177803 0.29752805782400377
Ni 5.320421659334598 3.130239388142473 4.404371873676246 0.8366397968959075 -0.3122684493579719 0.39530865370960305
Ni 0.7326806083518901 7.664586840096606 6.906860587487378 0.4230523994817746 0.16746263376276965 -0.4702629957293062
Ni 5.2370732796606045 4.514851663617186 7.044594264752795 -0.0014940680470232333 0.8240570751348903 -0.16939224668531472
Ni 0.9164757133360364 6.943379772813338 11.313024830639888 -0.43747243156184656 0.9885439140987878 0.3825423551828702
Ni 4.726444490621566 0.3061899018055572 10.508385294956563 -0.1702193705723004 -0.16745723444613095 -1.0316024358511586
Ni 8.255374121266462 7.538609132338448 4.670020041423029 0.5609694583769436 0.05375996733027516 -0.1576623598428962
Ni 7.373511886801508 6.0946868847500655 6.879624066312848 0.3054763661368029 0.07598689704927558 0.28265782558039065
Ni 2.456560731244638 5.307671249240813 2.3820389257839545 -0.6761348253978936 0.947657460297071 2.345499400406019
Ni 2.7457254080453977 5.243096591669066 11.374828216283008 -1.4324582446312364 -0.38857544875082756 0.01565519003875368
Ni 1.4640030009762273 3.4829733138337495 3.9968815631893824 -0.19899335738119922 0.3978203643878633 -1.2624319639063484
Ni 1.4307696740221052 1.1692720161130195 2.427388341354794 0.8142516590086945 0.8222614166870486 0.16613800141407517
Ni 1.0888850220091955 3.741628407198629 8.395607610116574 0.6917843590096925 -0.5274541002283174 -1.1016997068888768
Ni 3.961712367519946 2.3891252289708445 7.221644905501669 0.4416103649896201 1.0957152071706677 -0.6938039605428825
Ni 4.504934677988687 7.26809935661397 6.054891895139078 -0.9205359214899307 -1.1794807197240977 -0.5936314673863389
Ni 0.6839886659199057 0.16161213344463746 0.3513638278611274 -0.14156545428103362 -0.2615989480275624 -1.2540905339201884
P 0.16392000337200704 5.727008930024138 7.915612709586732 -0.051150554731886094 -0.8110832885830418 -1.0159346474069149
P 8.95597945066343 1.9648610456494906 7.897900150647129 -0.36539643953120293 -0.32598965559880627 0.003813974429451496
P 2.1905661545067767 3.3690879304871153 10.441257813342382 -2.033363362860853 -1.108110238400911 0.16343731465346045
P 4.181275343342807 6.338854953026309 4.00029264064243 -0.750733840960707 2.4295428492111832 -1.1837618635979548
P 7.0243700121259005 4.190936406761538 10.349100225605026 -0.2824009723745782 -0.5821756601409135 1.4588452192651973
P 6.3219915074184 7.824739302937676 10.052107985216942 1.7927214767009318 0.1632208277672802 1.5237570894472336
P 2.6232757707504653 8.806475179764481 5.728081061281487 -0.05826531139979643 -0.16781821732997548 -0.03890310482310074
P 6.976878162056148 4.129076352629113 1.5433270039016231 0.016644293424900366 -0.48503346917026147 0.05993550001336774
Ni 5.50153232313986 3.0357858125803445 0.24116555235093237 -1.2567943060045967 -0.5895752950390942 0.7688994561261403
Ni 1.8552257990007845 1.4245452802773972 7.053490303565899 -1.5700911966270832 0.16726491592966677 -1.353042781516386
Ni 7.570471447454528 0.6074194827810807 8.945407121376345 -2.595709646980665 -0.24950293609497678 -0.19175673042344393
Ni 2.767433095481052 1.557186105568437 9.178013903826333 1.05893711911037 1.462680019630255 0.6876361411692739
Ni 6.605114592052858 1.8819148294479893 2.329638853334014 0.4993871667887722 1.5876878266629237 0.09880543760568791
Ni 4.290691228097426 6.809358795605337 10.410489565673057 -0.28487488783636744 1.5113857123660743 0.2746462681298238
Ni 8.16013449891719 7.556669928284912 13.34774532749283 0.43566623159104323 -0.3717460358983146 0.48759660191174736
Ni 7.669814965239004 3.879643598894791 8.301109248167737 0.9995808886392397 -0.063455083130852 -1.0650275482788238
Ni 3.139562268641154 8.729643676360643 12.457049206751432 0.045546578281547366 -0.46572345598773984 0.18567170057162863
Ni -0.01622089805981314 4.941684209115136 10.127316210604537 -0.01456221408489105 0.10352341190664752 1.1391866480907415
Ni 8.907829514911416 2.599401884610705 5.526617269736556 -0.6454032006419917 0.32896236507388504 1.4810266404582428
Ni 3.9092940149121653 2.6701735156903994 11.503077233652856 0.19207323322259823 -0.9658680697678269 -1.0396695291300093
Ni 0.9473143396130463 3.3582203766509076 12.398241938978378 -0.06176921078799685 0.46080647830209676 0.30584480521981516
Ni 3.264854470480292 8.655526776396128 7.842785474757868 0.22956223130699174 -0.6037680415997085 0.4967217041414671
Ni 5.8510946414458 7.88922255972022 3.5531654639098984 -0.1910908147046709 1.1838006872556903 0.19100519696940008
Ni 3.4142582005111173 8.690624679449986 3.3935330715593923 -0.5766531876607874 -0.563309676474346 0.9380207085382555
Ni 3.3981351012957512 4.39262138821634 9.03297547548783 0.06225643483706052 -0.12731177257549686 -0.4004616586654522
Ni 7.243768466528197 6.332136995019906 11.508187451777182 0.14492485767156976 -0.9581822710877951 -1.232591483506148
Ni 8.033699787213017 8.959635482231539 2.2246129484848036 0.10345707744508634 0.6559804619372058 0.6353697276653897
Ni 4.910452559444556 0.5402234505749985 1.4967336235897342 -1.1243860927427989 -1.6461287444086363 -1.186209553807499
Ni 6.2381587035616315 5.822148011505288 13.773000295369144 -0.9196378351556936 0.07823404121223947 -0.1547881236188947
Ni 8.447489440091735 8.770600370002398 11.038412987495992 -0.8453946602704021 0.4074465746237177 0.9213548178468003
Ni 0.437935913370302 5.0234604952148425 5.699734934526036 -0.6357559073602147 0.12054565749625691 0.35254529460014766
Ni 7.6832965816464105 6.274728159321655 2.5257794629157773 -0.8372519765586097 -1.148855538639073 0.009248258071145363
P 8.81046939425264 1.7437351163312627 3.491522029647883 -1.3132037951425772 0.3569094851061143 -0.7091043383453788
P 1.87630282099094 3.2658415990036818 1.6373034673441131 -0.06290692393686585 0.1463217380190964 -0.7226571373291489
P 5.362703664419793 0.9803557249098427 8.146359485976442 -0.6362996956788267 0.4022244069928299 1.055468443835479
P 8.622256889126325 1.4787368081957115 12.248628901140279 0.41860079146832424 0.4778878592644156 0.11148251885272412
P 6.419315067761495 7.7629158091209325 1.4124429017790603 0.00864713415203672 0.5240491883118265 -0.8670508050875971
P 2.232418575882719 3.489471909946065 6.079265743595776 -0.7646046854055283 -0.3184398682760064 0.7072929961682528
P 6.945655652464487 4.026616067932824 5.712255928638922 0.9725151427706993 1.171811633214614 -0.44893929455086556
P 2.5200294392670317 8.755117076311452 10.069244719184567 0.23353509991181073 -1.161515907715561 1.230881442793577
