# total energy = -381165.65614103014 ev
CRYSTAL
PRIMVEC
9.26353978044833 0.00000000000000 0.00000000000000

0.00000000000000 9.26353978044833 0.00000000000000

0.00000000000000 0.00000000000000 13.55812684163286

PRIMCOORD
 96 1
Ni 2.618274642163464 7.849247275610724 7.218197352753991 -0.2867265963331255 -1.5874780246449627 0.07909613210221861
Ni 0.5074316914134818 4.3627473781366 3.577948634715002 1.8077873698951188 -1.2019225936673816 0.40109029338838664
Ni 0.1066400159411603 3.799607538226327 10.730213670241486 -0.2906107618788802 -0.4263053592014336 -0.23187802392436194
Ni 2.849696390130078 5.5525471494553065 13.282055764035412 0.29093214977404086 1.3998977941967117 -0.7473852362034483
Ni 5.018096491894429 4.8997732997249654 3.9512859576755686 -0.5803625181915747 0.474399643605499 0.12316921116203304
Ni 1.8027867181783166 2.359886730225558 4.975738030412077 -0.7468118801984817 0.26741349782681045 0.33331858516005175
Ni 4.621505831661194 8.771617920276313 7.059431399105356 0.5156907890448021 0.4258276482340666 1.3007563134078437
Ni 2.2659173838412285 9.02545743423761 9.299343248038785 -1.381881560124949 -1.4055799321831535 -0.3562371416294381
Ni 8.138973742242852 1.1463167161207526 1.4559662775151812 0.3386258563055781 0.3160153179949138 -0.6626100514385814
Ni 8.756184863190716 4.049982488352083 6.0204865185594745 -0.6630900763987935 0.7574472484251407 -0.3544684797647895
Ni 3.1990615251398005 0.44725666408915515 5.308860474969287 1.4259548962950797 -0.24790293859770857 -1.1332862234459062
Ni 5.674001418032293 0.10506243513583187 5.120605895497975 -0.05520055643154364 0.13623221499357827 -0.29004614762466174
Ni 7.619965405307238 5.61422379655969 0.43624787354862504 -0.8653063115926646 0.6829150815445205 1.9950539257576934
Ni 1.0553394930489362 8.893368622122651 5.903900240077615 -1.5728556467460977 -0.6189398642441405 -2.264854178649125
Ni 9.26139978956183 1.9550144655298245 9.065437945087387 0.6527701825300242 -0.20922171997742675 0.6657776505332856
Ni 2.7947358092844325 9.232312275006745 3.04568417251559 0.4887186313313326 -0.05018124884008132 0.15026812426135408
Ni 6.596168264825203 7.286357551271466 3.305647812550891 0.8087410136031105 -0.2940125884715775 0.3713554853281153
Ni 6.6008926700554875 2.494523015749006 5.746720204420009 -0.027392790190656047 -1.4689172587892185 -2.754173162568618
Ni 1.5289379585358123 4.881172112073178 8.846785986552042 -0.53476528917775 1.14742189151634 -0.6548126668813498
Ni 3.1892421730925418 2.8531702175052875 2.740775690722847 -0.04277595751494569 0.5749215496816615 2.564381783401661
Ni 0.0812699598545313 6.297215312684519 4.5895614414727355 -1.4783529502808217 1.582749765931358 -0.8898258940005837
Ni 3.982979305939045 3.417588425889637 0.680030888847184 1.7427225190749858 2.4277353636887993 0.24715654734998727
Ni 7.119965851768771 0.7175491508534118 3.392351764774216 0.03199249374619652 -0.3573823109774748 0.28783499890595593
Ni 6.142792106431879 4.04992690711408 2.087531253177411 -0.4257692841923055 -0.8959034676532311 -0.9096868945905688
P 2.050530823038581 6.705941209881819 5.132618853738432 1.7660748206476808 0.39777254186906336 0.5047486882110016
Ni 2.9488255281090523 2.8813128510143167 8.235531321610203 -1.2756528334719965 4.112872885260465 0.054700733976989664
P 1.0547280994308994 7.197640631878452 8.843044442880451 0.5800439585098913 0.45473301841450714 -0.7832906918508059
Ni 5.213362644539865 6.664625822965995 7.880877631804463 0.16282487788044217 -0.5129507644058198 -0.2678912087941773
P 8.609941362464236 -0.025006925331673778 13.110952628257968 0.4590319029001772 1.0287677946158411 -0.22916936674394725
P 7.110655994403209 4.276967000818097 9.647949699149759 0.7199276542131279 0.41210027134564514 -0.548419646736391
P 1.100008281324295 5.4303240070859395 11.903384461503556 -0.3431671958193574 -0.09364394800940647 1.1021686761054954
Ni 3.375078042356742 5.468897386260265 6.801475168115943 -2.137525436792764 -0.8790437157834152 -1.3190849365137025
Ni 8.508199906299103 3.6398485331253654 1.9003206746265948 -1.0315422720371847 -1.6461061187008166 -0.3657214269707895
Ni 0.7862892469540546 5.182894862574362 1.1126242959970887 -1.3015929503765262 2.4866424224376527 0.04102760736527128
Ni 6.7410870793792705 7.5343425081630775 6.619836608674963 2.136293364157876 0.31085254284705177 -1.681911301324884
Ni 5.3236265571988435 9.156036289386813 2.304664917561297 -1.7971656285152144 -1.2295043599403923 0.6487898577260375
Ni 4.997781549404205 5.847637205554757 1.0003835439731243 -0.06567471648999013 -0.001880761962480632 -0.49708217280467937
Ni 5.927924303850596 1.166261117024288 10.745778269590359 -0.8402514255065657 -0.29458183071148625 -0.6977804286921273
Ni 9.10367876318766 6.333556178799043 10.327726767010063 -0.3270229819593271 -0.2322498054414839 -0.7228245161449487
Ni 9.250311332580162 1.7552369690664509 6.756041211464072 0.12013016722539309 0.6228767374047015 -0.8492790829264728
Ni 5.4714263325894175 1.6819531067590343 0.980502135139326 0.15724352713792275 0.7952388653516175 1.5657087512886712
Ni 4.262942001761918 3.034689277284561 5.487001121831923 -1.7057413138649464 -1.8637980809327837 -2.9745020482027997
Ni 8.665828297276603 7.803096320988608 1.3374179813318032 -1.1181480822528873 -0.7761803060582697 0.1935431328999054
Ni 4.015966770694034 5.148554921027959 8.780419209314143 -0.08690894327841807 -1.1790767994174598 3.724969779986314
Ni 7.342781771384533 4.535614291866684 4.022709701217806 0.8456178320248018 -0.03719126433831659 0.22919816309935365
Ni 9.235313661858925 8.976230984445976 7.932222653117991 0.6900869167026116 -0.932195102995414 1.667153169179103
Ni 7.568367489360796 8.710182125203277 10.371153314616047 -0.047542268555337476 -0.8860864815628094 -1.0325457736010348
Ni 3.8630442578674837 2.4701228522655354 12.239286894314901 -0.04245688361263011 -0.45716836732887717 -1.266507933747935
Ni 8.455193932323242 7.244440034277273 12.352904208333415 0.5874469358421819 0.5108974814212168 0.5888250471366311
Ni 4.66772163106098 1.726955382462413 7.248717010541631 1.972987432875957 0.3452582740204312 -0.16331415881203487
Ni 1.8383957646591293 3.5780421964656406 0.1091939738274142 -0.6824561396302311 -2.2428267665354404 -0.5379133478884285
Ni 6.098336379568867 3.3687695718433615 11.434937450425624 -0.8699612938661727 -0.5833048886493503 -0.6014460783347514
Ni 0.6182050987541579 -0.000349235445454381 10.905438154816881 -0.32402661833516455 -1.727329581558683 -0.04960275062879199
Ni 7.480354598982491 5.095826853242114 11.773117787641139 -0.4367152416808479 1.8629653006188434 -1.5789694729533192
Ni 5.070000104649891 0.3629195462508057 12.715475445492734 0.10677714295725481 -0.6454980743486431 0.8374167842712482
Ni 2.7770702391390345 4.551482735316641 4.69189854323847 -1.1676536451821824 1.2991038654060854 -0.9408021279381346
P 5.996993255609425 4.0965595657988905 13.38268466908651 -0.09762144459991574 0.4247858372331136 1.073137578980468
Ni 0.44240534836542944 6.51696500067043 6.77660904858721 0.6683065876027265 -0.23074236765802197 1.7775884777142354
P 6.472546327966086 5.717919859594606 5.565638383713028 0.09108595747424313 -0.6300652847333407 -0.0460091197402627
Ni 4.6302228224880535 6.917724253753916 5.610881511447755 -0.561062275201066 0.4907865696039547 -1.9570067411769847
P 8.333100479509218 5.986182704817774 2.644146782100057 0.25206504039519817 -0.3810110061400084 -1.2558023744049729
P 8.15289684236269 8.79706486374218 5.005999235443 -0.6325039760818204 0.3223644001413932 0.6273530280085001
P 2.4819709194999158 2.1956719625446617 10.421873973356004 -2.308250029136257 0.4520827252758537 1.401469766669522
Ni 6.567580981412147 6.691443770302612 9.786296958663899 1.1852448759013845 -2.2684066718870737 -0.02930234850854308
Ni 2.7051017994643636 4.267860941325215 10.800335886460479 0.35314693273988856 0.4713215189008076 0.6828371771187337
Ni 5.547841271304356 4.137597046524697 6.7184451357246395 0.4935165669406081 2.7859543116349568 2.857623812255801
Ni 8.68807005601761 3.7281485932333536 13.11263396070757 0.9801932281412474 -1.3278009762304617 -0.36208100200472476
Ni 1.032680875022904 0.14855753293535323 1.1847326151207345 0.5036958214664552 1.2179958450801605 -0.4520451871696989
Ni 2.8948283553887983 0.2699469567346691 11.741269738265219 -1.547316879045045 2.3831506350998892 -1.181616792230494
Ni 0.32119563723565775 9.039834447801145 3.3987241537113 -0.4101117801607066 0.5041449931887317 0.468752986842683
Ni 2.852179018760894 5.301143946426488 2.120477032003896 0.8223922858379579 -0.7282372025200877 0.8284464624518376
Ni 5.172612333543742 3.1521046425666372 9.324398343776727 0.4868399262513809 0.7342409855120066 -0.5986299490421948
Ni 2.3185713433097352 1.080443685547116 7.233978718931076 -1.1285625927179919 -0.7891116694079571 0.5173517216869928
Ni 6.220226034510213 7.902864643204621 0.7235797151767752 0.829548951487397 -0.31158453591706986 -0.5523714322952874
Ni 3.6203673092051916 8.0440780418918 0.9505985027395571 -0.2272263840849635 -0.11286860056697334 -1.057552065837385
Ni 1.496876847747547 7.278437224855988 2.2527372196027007 0.8366585659489849 -0.46157215282352765 0.40535883885675356
Ni 8.171553611252481 1.4258069714205968 11.17140827397241 0.8176252034666176 1.9656132518990728 0.2299602380763588
Ni 8.453841455531828 2.1685668454783613 4.473218794084124 1.8189518711523707 0.43078062136396783 -0.6323132002272529
Ni 3.836587588577889 1.2268909841462754 9.320263099669278 3.3622022934375253 -2.52874217982118 0.7323028879490291
Ni 7.1844864055509925 0.3744656220920348 7.160859747629735 -0.23553876060540083 0.9517231457260127 -0.4621835611552814
Ni 7.0248107723070365 1.9316518184890832 13.01900088081316 0.3612852455763068 -0.126550211819124 0.173897590754836
Ni 1.6373769538803478 7.835046269300868 13.077748396674767 -0.5485281472897973 -0.5195451297938858 0.03185108307232579
Ni 7.734018105690112 5.644682314985526 7.767504875233164 -1.0455133895052962 -0.9344437898202745 0.6989754774414929
Ni 3.0354674146166074 1.2984240374565865 1.1085288851102086 0.5329871142314047 -0.5623516834364508 -1.8590423114153534
Ni 4.623914351974673 5.769175024573362 11.652572272305509 0.07749150661926009 -0.2749897675121716 -0.30632328751813054
Ni 4.199005050978731 7.08001220518403 3.0142159282660264 -0.5370854526704943 0.05473801497282831 0.7748045087566656
Ni 2.3232401673020164 7.010813563869859 10.826937066968883 -0.23567785728642637 -0.6132651824568665 -0.5883473361692642
Ni 1.1165807537889605 1.7032963021523206 12.35058554435471 -0.19861231989269665 0.9300981112570692 0.2937793894148489
P 5.884191133081627 9.270024144992016 8.855070370076442 0.5714461895385513 0.2037748379302426 0.23104061562473113
Ni 4.587536431701481 7.797000911887574 9.752007966585666 -1.5836092857181758 0.8546881697571862 0.9706559780747736
P 3.8695379991742085 7.909145323099 12.129222147758767 1.9543109395123763 -4.06255973882821 1.2703303928178187
Ni 6.153278433335178 7.522198007659346 11.91862391061011 -0.3360537247030277 0.5443724732502109 0.28931338322369526
P 1.1554135120739675 2.3891780426533233 1.9302159698406631 -0.4072681400643244 -0.23186542551887163 -0.2309254302031055
P 1.2984610916152552 3.7838965749507136 6.971168393156037 0.9705078825326835 -0.747898428394441 -0.17435319023501583
P 4.927526864567971 1.5604895746423806 3.5166666144004415 -0.5679487179082541 0.6379714269542949 0.9708742647331667
Ni 7.114833850793128 2.5556716410923577 7.796831389111665 0.783672757780573 1.634329694891179 3.1180138275769265
