# total energy = -381165.0100004616 ev
CRYSTAL
PRIMVEC
9.29396457166956 0.00000000000000 0.00000000000000
0.00000000000000 9.29396457166956 0.00000000000000
0.00000000000000 0.00000000000000 13.60265659898470
PRIMCOORD
 96 1
Ni 6.05798278384149 8.689067017615576 2.354729122494346 -0.833371667667597 -1.8225444735996352 -1.550288817189175
Ni 0.778109313519209 2.1424540391027636 12.275282710755844 0.7599823561421685 1.921845619894819 0.8325802821145533
Ni 6.61419868988989 1.8632912210838857 5.517319398340176 0.03201949032939002 0.1228550223557239 -0.3985937522187781
Ni 8.91940863900852 1.5385136242643072 4.346892317051394 -0.9629956333160382 0.8519756559220295 -0.24063134463695982
Ni 7.497125337417718 1.6155420037875772 1.6407388715150792 -0.13569871108761147 -1.6662293718132528 -1.3068768244832847
Ni 6.119629651768355 3.8338905587188905 1.2362153398907871 -0.6379811971463076 -1.2202033942544404 -0.13258099139423618
Ni 5.192389380499339 3.1101881146168173 12.220572858089136 1.1981451289028202 -0.09736356295283877 -0.32413948976394497
Ni 3.2757693899047733 5.589000030568839 5.992323711348965 0.8656919770668575 1.9805732156430145 -1.4519551770135832
Ni 5.411076370144917 1.3234512808559498 7.623105958469345 -0.8695411756096185 -2.4832521658091813 -2.586472187542797
Ni 6.630546773816221 3.325454925248813 7.525166158346731 2.492541304420591 0.7622199872234356 0.6048769583931711
Ni -0.024958942230905085 8.664410129237773 4.865289221898528 -0.2607422564542219 -1.6126977184437 -0.4190617902651428
Ni 2.4381787022363213 0.34711749979497475 8.0052040826429 1.6233665110114561 0.14537145829068512 -1.0337439076741937
Ni 1.308422939918555 3.053652927280904 7.749202754079856 -0.935034629326738 0.8046735284019562 0.543620939796167
Ni 8.272641634782609 3.497244568963596 2.665345505284049 1.364461821986605 -2.2707785145533603 -0.03153175205969408
Ni 7.689417467284568 3.0299254353741825 12.739119395768112 0.450849624199701 -1.272292658750512 0.22292878515087414
Ni 0.889411976103038 5.95213381974997 5.722324742534955 -0.1275370012124255 0.9286186984980652 1.4045746308470906
Ni 2.03906797565961 6.026401891754126 12.315668705010237 0.6264603409909018 -0.8885740238713534 2.587321937137602
Ni 7.6539888738069255 0.9430957750656721 7.777618121786714 1.2625877727579222 0.06194224603075138 1.0981377005692312
Ni 7.814040240091943 8.276024637937345 0.7160423583874158 0.06756370598258686 -0.1813483906059264 0.9458661727246034
Ni 4.619230576783117 5.5038487258883135 12.026734212494405 -1.1011397206203488 -1.3478129005760144 1.169523865621702
Ni 5.427879858342078 9.23492015301141 4.840151835545175 -0.09060593251403105 0.21633647664533712 0.15504060594933297
Ni 8.376734039543784 2.6699330062653095 9.21917338860187 -0.7628933591413765 2.4882190228961534 0.7941582306929291
Ni 8.890160532063572 5.585440442084597 1.3441099056151589 -2.6196360758892756 0.5490868480067447 1.3031340696114009
Ni 6.029032083767287 2.0389936239419235 9.656212785163435 0.1669039330458222 0.24071079172464352 1.3008871825587531
P 9.392945434989471 2.5098909339450026 0.9260822432660464 0.7871504319165283 -0.3104938739560524 -0.5424477454236721
Ni 5.916668050413484 3.9130937259844925 4.114667738408038 -0.19133969749068336 0.5778536357267919 0.2007548201569962
P 7.004517325850165 4.218149529687713 10.911697302089163 -0.21802800541514708 -0.3618251772401768 -0.15693499475856842
Ni 7.873642435782427 5.905348001395705 5.141423136818149 0.6163579624495772 1.4332856256285382 -1.1525748964721891
P 8.443092947579032 2.5182647961494506 6.496139314961295 0.7452087973774199 0.10095873650326484 0.4473385257226489
P 1.6593444594696682 7.124279355113782 3.6504360598955583 -0.3151208312051025 0.4889572297046998 -0.2765314009676786
P 1.3255145410217517 4.415302403098321 9.802645704957689 0.5904474132314025 -1.566202403095638 -0.7730996102504171
Ni 2.308342015226176 1.8166726940944165 1.302397662596531 0.7548522340044548 1.2359177196659037 -0.3452960692369021
Ni 7.512451085225859 5.316761216259523 13.045927111819323 -1.0797378579058048 -1.5076391008394487 -0.5690558349295038
Ni 3.5074493422160753 3.6999180574124306 2.511268299515146 1.213102264433285 -0.46232780004262963 0.15092812644285622
Ni 0.649383255292007 0.9074366912632008 6.448366477554742 0.5308178744942278 0.2003663264693259 0.7553602839891249
Ni 3.6050638535738098 1.3232561075970226 10.370570147748778 -0.2231486144711641 -0.7616700282572366 -0.7510698841438872
Ni 4.599137025078326 3.635659585401827 6.9207192224315355 -0.030652177668218174 -0.4938040162740399 -3.4887383641892624
Ni 6.5455720544652 7.7039811099864215 8.64243454967904 0.13405063396122718 -0.23766660558168104 -0.18549198046065474
Ni 5.908638064903336 6.969888013337653 4.874770924696505 -0.9899829605381595 0.2928872166178827 -1.2394928386116717
Ni 4.85614303122661 4.158361454703011 9.265952701180836 1.1299219349593637 1.019173466059187 1.1035786690791445
Ni 3.106963108862163 3.4741676545866316 10.941854358782829 -0.9868819530153325 0.8785084121052353 -0.0246890181062478
Ni 7.483927907528355 5.363974556990485 8.864729456425357 -0.519575468811189 -0.2870888647685508 1.6491482479612503
Ni 6.281502635136693 7.13072007265838 12.804262653219189 0.22338129930726044 1.1461995890734646 -0.4413933638828076
Ni 8.595114328353905 7.365587854865494 2.9199192808675125 -0.24290625671406557 0.05152876400691126 0.34017340329835605
Ni 5.9036007360300715 0.19448085855624814 13.398685118797294 -0.2869803642151445 0.5902203848222609 0.3344982072904497
Ni 6.12003858621563 6.1304385327270365 10.487961286614665 -0.7427389956806886 1.0066879319976665 0.1739248444483456
Ni 4.261812575899141 7.131045361423259 1.9087926135151145 -0.518013780751024 -1.4269355150407943 -1.0392800070010746
Ni 1.056426380749402 7.499551062207241 11.0318636188177 0.9486730460457791 -0.6507405536945051 -1.0004797463044253
Ni 1.1648404791011087 2.889196221722957 3.230004978272228 0.2636229204361266 1.8503748655483425 -1.0919652532099322
Ni 6.419397189551119 5.765241483380105 6.790418766582319 -1.5801696639090075 -0.11886749846288559 1.6770920255593698
Ni 9.117221383913597 4.074790124023325 5.192487896525274 0.4773772381765843 -3.3976446934055353 -3.154624279711109
Ni 0.5014019609769297 6.25992204907817 9.003040380458826 -0.5354787703050069 -1.102287718181863 0.0004229464700315297
Ni 1.2233366929910048 0.3310631051535056 11.082506432526955 0.9100648467552778 0.9891074999117417 -0.6761579653263452
Ni 3.852236845058048 9.225328781429846 1.352336923177176 -0.8115594568885119 1.1179642483768553 -0.6816063900354261
Ni 7.208631378829177 8.501765746798435 6.452433516512197 0.07530118383616063 -1.3275682913943654 -0.7847235676425904
Ni 0.8562064989842231 1.4057400444055435 9.076577017440242 -0.1055270726002376 -0.3222564138086192 1.8155045360337183
P 4.839144369770522 1.8531422116196712 1.1085692403629823 -0.9126050966786283 0.7416377921967098 -2.8606096343570027
Ni 3.5334166796181044 1.467609967485467 12.712403894206863 -0.02335692955838558 -1.6371771916423032 0.5701125583287923
P 7.512767080026027 5.20634891549499 3.116926239032161 -1.7735783281135775 3.63803666833818 0.5389155639006977
Ni 2.3375436523475703 3.5228680296713244 5.857467353998508 0.1787988847111953 -0.9114272743204433 -1.8312371162776266
P 3.262209495391688 8.548876853917578 11.17392930459434 -0.06405543571901227 -0.059583258880271585 0.1268317476152848
P 7.183974490451374 0.470015312752022 3.574071269452641 2.559163729535831 0.3981546077988304 2.3212317861079055
P 3.788266485953479 2.4936264957010685 4.379443499054567 0.08332662524379843 0.7526508554777619 0.09349816646016156
Ni 0.5246963541281271 4.423973672173515 13.360747154847731 -0.8897515891192225 -1.6713276122717668 -2.798335458908129
Ni 1.8072950837011996 4.951099468677051 3.9818922997563315 1.192795691665449 0.3383407209649915 -1.1513662208760687
Ni 1.6560822778561706 4.804496469328587 1.521348600839895 2.4741908269378614 0.3980070264773726 1.5873636105542854
Ni 8.766179042821243 4.761957992847168 7.2273364122061725 0.4110949700095824 -0.42105130989134587 0.7559171849338594
Ni 9.1068307313669 5.147964229181623 11.128742048170338 -0.40336571968612467 -0.3663356635160207 -0.11681035882354077
Ni 2.9900822086589 4.692690073857432 7.921289804665385 -2.3392338791122813 0.587335092854666 2.906954025949497
Ni 0.7928950819776512 0.2788431056328255 1.6333250758652584 -2.055115924046596 -0.8219533985283264 -0.27900377376757113
Ni 1.1539758343541608 7.256393063478078 1.1907483351289883 0.5626928688259535 -0.22270561339647452 1.2621342301602716
Ni 8.0641501244248 0.5262911984725036 10.39013115527564 1.4317614756745278 0.07535054901685732 -2.011500758459807
Ni 8.161578756488318 7.39516125057532 10.543786415046673 -1.276767406692414 0.14983026539298713 -0.07206699316957911
Ni 4.5378154459163405 8.89126651386416 8.956601226988276 -0.6819601738304191 -1.0308745565461988 0.3855603160735876
Ni 5.981623569777399 8.874370086019889 10.92910861557841 -1.4090694333936506 -2.2508388382066395 -0.48607785127437575
Ni 8.96535800053881 6.9549061422238125 12.857271710343817 1.2569794254322093 0.7417331801239935 -0.17502707637358889
Ni 4.340393047529117 7.843204701354494 6.523494241294649 0.4053012461459407 0.42337095916345796 0.16515686844772848
Ni 5.5035884948764116 1.6878025794141969 3.0195180536910073 -1.083228901778199 1.2949335360784795 1.9470311180215112
Ni 2.852382827503402 5.883516478289992 10.227878048750629 1.0931196785293495 0.42462771438869457 -1.0704356066682728
Ni 3.508453090404844 8.5287089504951 3.609152268650099 -0.36517069667364205 -0.7817572859254149 0.7647244988128442
Ni 1.9832484236064296 8.613070268175205 13.189244694642511 -0.5092149515124714 1.1493363349302337 -0.5025383108232443
Ni 3.178266406123569 0.8551414106283632 5.579197685988339 0.27705333490941964 -0.23482656502972463 0.902997141275219
Ni 8.668852644369544 0.3622787444277342 12.642349705802593 -0.6967915824162967 -0.41048793255320276 0.8590271634521721
Ni 4.097142109152846 5.990406366429124 3.811681700645917 -0.35139369749420774 -0.742092106125309 0.32789998524764175
Ni 1.867492093133176 0.936989640250664 3.6149879490920225 0.5398424465903412 -1.8802629113570262 0.7912706247324889
Ni 2.0591894092585337 7.825880751133527 5.7752120487218725 0.764126203107213 1.9297443059166055 -0.11802263396408706
Ni 0.3434835595930445 8.54845862550559 8.74678067967682 -0.6413652831271922 0.0996767844670477 -0.4997928868676232
Ni 2.415603661953741 7.2284089357338015 8.15190931560318 0.9536640715024673 0.4109656435205697 -0.4342161294080779
P 4.4792913501323115 6.383039199602393 8.148181506357673 0.7907903426619607 0.0018815332934290177 0.6809260761389498
Ni 6.296651797615328 6.106952683902797 1.4339509448887642 0.4334350282676793 1.046866818209397 0.6376862916137083
P 3.824568712113939 2.359468115100393 8.413895957439994 -1.7554818756231831 -0.20009610352707474 1.1114850684104147
Ni 2.78905375196388 3.5159440259617636 13.277376573805796 0.3106561105655295 1.9205104460231632 0.5142041771969467
P 8.895504561772292 7.147439915173144 7.168641307471464 -0.44163581891091674 0.15591015303847988 -0.5865316231167641
P 6.63497070101857 1.3556269866848059 11.624925447962143 0.016042912395475596 1.7972239925569755 2.192866118346598
P 3.969926320191152 5.2904964719867476 0.6911410387377178 0.1455817745292783 -0.11757449068307493 -0.21111996544140413
Ni 4.01370089397911 7.541039320676338 13.007431509987109 0.19683954426299002 0.42794212347390814 0.0010515811929659308
