# total energy = -340863.63781799446 ev
CRYSTAL
PRIMVEC
9.37001895288086 0.00000000000000 0.00000000000000

0.00000000000000 9.37001895288086 0.00000000000000

0.00000000000000 0.00000000000000 13.71396987357256

PRIMCOORD
 96 1
Ni 2.622687091042785 1.1029262102895445 3.2769945890199645 -0.7747340605300463 0.08207475511456833 0.22157175690234743
Ni 0.7116923060588416 5.334127003167081 3.5778921389382887 -3.43594718853016 -1.8420154378400533 0.7087654669487212
Ni 5.2052236501668325 1.8232745400091868 11.240367696612122 0.30443249825332086 -0.02755656946202996 -0.9831116873396231
Ni 0.7192979505765636 6.32099615666655 6.581306531775258 -0.7086415397763474 -0.10261504115976522 0.7016635657966175
Ni 7.69670236350645 5.756986595923367 12.9528033434778 0.9876957071658796 -1.1007710244270204 -1.1235134603298587
Ni 7.897529983253076 8.019490152087213 -0.14182179835762618 0.5848717189158379 0.9536699850397381 0.058951795943859756
Ni 7.145857679623437 1.3666453983532212 7.717098084119639 0.43460025222037413 -1.8763257810861491 -1.2149012653152367
Ni 4.185193999010326 6.673861706614676 10.719620451136617 0.09089646717125636 -1.2213243952327613 1.2313910354401436
Ni 0.7372574662191875 3.335108384588972 5.203614817884348 -0.4627731151101643 0.005465908210577683 -0.8697520060688441
Ni 8.24456738131008 0.23605045861143878 11.558805922318514 -0.6243111558583828 0.9570293884302744 -0.5092357774480778
Ni 3.8872555011293266 0.818673562331651 12.98904938843025 -0.12281954113209814 -2.433734775805344 0.551199009253741
Ni 6.5128754081559075 7.164869448412961 11.155244820936753 1.0130735238090358 -0.17670009320063762 0.7235493101261152
Ni 2.0256669529484443 1.7390849182379258 1.0717727707274871 -0.15316909995823297 -0.7459454184331281 -1.3230758028406504
Ni 8.663978807031105 2.0190891995279188 13.340374507235449 -1.784147618988992 -0.4370469139886538 -1.135633126411528
Ni 6.962701915932526 1.4062993192587276 3.6108062050925356 0.5561933771445389 -1.0035789540550393 -0.418688208975808
Ni 3.906136089651207 1.5260200535237691 7.058813950028967 0.3837474312345649 -0.17505355873615014 -2.2075478887284885
Ni 5.41410011633544 9.289399473070764 5.685702301482719 1.4705769058798286 3.2640113494873852 1.4237635450707156
Ni 6.888884905324401 4.728439597388999 10.404254654698871 -1.308345181498695 -0.10808583446634934 1.032022554107713
Ni 5.589385063967603 3.541473685634075 1.5469498652266591 0.37627606255818424 0.34200017209444966 -0.5373129953002682
Ni 3.956781042981609 9.163803736819013 10.87512341440779 0.2037766377024555 -0.7922800398336097 -1.4633382220395443
Ni 2.011068463163289 5.453219946151247 11.921156742619344 1.2056530072440914 1.0414266210304322 -1.4431861725717015
Ni 9.35410882509662 7.574470464117903 11.26339358159161 0.1624682658719718 -1.5516977817215598 0.028511991396763803
Ni 5.686495942101977 8.761277085547828 0.7404629497593043 -1.6327260978494846 -3.985515089938381 0.10859208467880653
Ni 7.7479095179839055 5.214181388443219 5.673949486503567 1.119596898884272 0.3313632612058939 -1.3046674755367917
P 8.463357327705065 0.14847919694065131 9.25361068505125 -0.3873004386931459 -0.0684309390788886 2.113448084128586
P 4.611623569050401 -0.022383101668023108 8.478949976518594 -0.5388412590193365 -0.26809818259866086 -0.16560783994221803
P 2.7680254575752303 5.344190403699339 6.799400285749809 0.6450717854445019 0.7999658385136417 0.1977304315083756
P 0.41427009623121996 2.127275440259246 2.778971513908362 0.25970353077706243 -0.4816853786336349 1.034305950825251
P 2.049045150646752 8.198251376811989 3.519059662902964 -1.3098269082505443 -1.2812179862646 -2.8834636561370406
P 6.459513149281413 6.704660959454089 6.5972833513726075 -0.3844061478644864 0.4501320293073861 0.037287423596548686
P 5.059501112850567 4.664742207427839 8.966495496252941 1.645986562403817 0.8563899829396412 0.43346665283656316
P 8.002895848230017 6.2143465990705025 3.521788212469997 0.432134821399017 -2.7261975032912984 1.9494875499818038
Ni 3.3994616758883627 3.6850411185533027 8.091927895881232 -0.6696116795673952 -0.6698358797630592 -4.260840129302784
Ni 0.64614808532961 7.461861574363088 8.809498014932519 -0.16264695754168118 -0.11744850662817193 0.08694571005362445
Ni 2.24341682722138 8.17526671991662 12.181255355295997 -1.0961908612555056 0.12970572672897018 -0.8144717454393003
Ni 0.6991280474241077 -0.1637120370200657 1.9900477622749586 -0.6180600327423486 0.5473071303985027 0.15078234489361128
Ni 1.3639468328473643 5.038025029033124 8.525330634148595 -0.05321695034261158 0.02199578754480083 0.6437888049670203
Ni 3.318364160425896 4.190956560767624 10.093482041632553 -0.9004136968187589 0.04820021385431054 3.9527695200762443
Ni 5.065647845391685 5.099351804157543 5.998806175305487 -0.8387313893176135 -0.6030144512631357 -0.05039593595404869
Ni 7.9268675131101505 3.0017324744053684 9.122957949481753 1.100602617169956 -0.08259231818093518 0.2365342917494507
Ni 1.0630661489634519 2.6027383203415035 8.151377856176405 -0.154458765303934 -0.23541869008776878 -1.0522399095958526
Ni 8.002324277063847 3.8609632274854584 3.024629990122945 0.38938457491568423 -0.5320525182322773 -0.3167601665807383
Ni 3.0561910255166165 8.787456918962286 5.094822336916115 1.0597801838369556 0.9460443501736803 2.699813871091447
Ni 0.5593479762321976 2.4120865413565458 10.374535765063712 -0.06005145676594174 0.13694672456209964 0.9588684985215423
Ni 4.81731422871904 9.489018360351224 3.1634561933686878 0.2840385079780011 -2.091039120305766 -0.3229467550074244
Ni 0.4334196043017737 3.3340870525051587 1.0499921612887229 -1.2912512021308857 2.494370130099214 1.4144522949721188
Ni 4.277985298331505 7.256217764790037 6.931657168592232 -0.6912248869617966 0.5137814878372313 -0.4088218577046895
Ni 3.185993900352151 7.547709689518157 8.945197442798731 -0.8593400667069008 1.093970199455103 -0.1986136054442773
Ni 3.0778263996590587 2.871938969588952 4.967241093613353 0.048712120493722554 0.5929493537176498 1.0478145268346468
Ni 3.0221310060242925 1.5163689338326842 9.156008817915115 0.03918901149463573 0.23974688514947745 2.1455225960656272
Ni 1.2666860344071098 1.130005565539288 12.313814889755916 1.1323521416674112 1.3537302945017138 -1.7604420478419358
Ni 8.999350531286748 7.086030107557827 1.9964109422576923 0.5842052889764326 0.45680764155534875 -1.5131188930070973
Ni 6.1582482946136805 6.237359366023226 0.8432089573909773 0.43681911424856384 0.7302190088368069 1.2596906537157853
Ni 4.16050399863556 7.514286831325826 13.109938564079252 2.142252409954788 -0.9041615938969655 -1.5930202946194307
Ni 2.2564130437374335 6.137371892019762 4.849081404533297 2.6221418730302646 0.7415125794727552 -0.26370776684044905
Ni 5.985099711340323 5.204989399688894 3.27895573402127 2.2994758824880526 1.8006219624949311 -0.8846862587811731
P 9.213305547817074 4.034936372441162 7.020743562354328 -1.3874467129175523 1.0624513029112155 0.7750420786887684
P 0.3598677652346768 5.239902090920916 10.505532380334822 -0.001834482105577486 0.4496129235791225 0.46946646796993985
P 0.5486324223693579 9.1204111782856 13.434465428208233 -1.2952029876897824 -3.7488766685108983 2.273112819113492
P 5.520796524027077 2.5028445465292153 5.4619040798694 0.13497983064371594 -0.39890896946635174 1.6114350496811927
P 4.3136850711694015 4.587851830549155 4.04387911868696 -3.7177236399468616 -1.0255096926898597 -0.4344313307426776
P 7.898860525967769 0.1712549024097001 5.63386360771674 -0.7302115526376391 0.8178350054845785 0.45587767354191167
P 2.010768622551527 4.78327294926495 0.4798527340388335 -0.3372503161142902 0.32106213639020187 -0.8237855666410586
P 7.350498897150908 2.603450441794438 11.164913743664162 0.6331518940784644 -0.569601937240961 0.24442115069669518
Ni 0.6131037759096292 0.45387810404305035 4.6135444229695 -0.3136627586023372 0.629873994658141 -0.3910491071023007
Ni 7.83557541684778 8.08807869202774 7.594755618505505 -0.8173063866746183 -1.058815248820525 -0.46049974569495533
Ni 2.6873964430686423 3.9014323400541926 2.3256424929856006 0.5474251440336056 -0.7493423599298191 1.2872839899530217
Ni 0.9694221779025749 6.649218556335497 13.479996225104273 -1.2921582873261876 0.9148044183227921 1.605535653477622
Ni 2.0717955570641835 6.237125115545286 2.2449216522916604 1.346596768780726 2.133596791162319 -1.4883519704750625
Ni 0.17459531422510963 0.23112089155369142 7.544849959683478 1.1505439820850893 1.7933022889050663 -1.9135676961567432
Ni 1.457871904481768 9.302583089969168 10.106125945429786 -0.7771179873811906 0.3173975430544211 -0.0851240834638534
Ni 6.00087882353429 3.5504595339678136 12.600807331303784 1.45486823689532 1.4495874481123552 0.7943058120143869
Ni 5.402612472897315 2.4666950127736755 8.718807473897495 -0.37873378007005737 -0.053252431566237324 1.3302255265115541
Ni 4.31135193640913 7.104526525295887 2.491815097025937 0.43188645283363686 0.10190850201104384 -0.24173640477568048
Ni 6.337768490886979 8.971202993857602 9.705102245225058 0.44782266444791907 1.6655811967062928 -0.37918115202012115
Ni 8.926058241749208 7.703945388284322 5.04309327237381 -0.5799339152945884 -0.9168060221338533 -0.4928298252862286
Ni 6.681029771239608 4.04384726062196 7.460852423304127 0.11678773311572144 0.08955280865916836 -0.38627662541432184
Ni 6.845876517574809 7.834057473750735 3.017553751685365 -1.436070387462527 0.7409973303992335 -0.22984299577220416
Ni 5.194148287569878 7.465975012755695 4.7401924123681525 -0.13354952595509256 -2.9788415561184185 -1.235727972252601
Ni 1.1521000706184903 3.4814399731478796 12.567550322449835 0.05222064786761329 -0.2873907122796857 -0.35013051451106797
Ni 3.830285784894573 2.9911724628598804 13.126573159018653 -0.11606088225202593 3.31866786049 2.464828411886355
Ni 5.833455321941759 6.819068892879476 8.790696134571226 0.12185743432914496 -1.198162098183685 -0.26156475235551724
Ni 4.735495221784521 2.318695560811843 3.4948269194611354 0.39692407782583894 1.755155859742332 -1.0804531388052747
Ni 2.8630374514272714 8.520364524016289 0.7806537727602467 -1.4026041373842812 0.6154593618947078 2.1469562431883604
Ni 6.0386868506736375 1.3969480401794045 0.4517914007855701 1.3692854686274933 3.5813096479597806 -0.8011441750924589
Ni 7.761467935647012 2.5538643006243196 5.491539576334413 -0.10550778932652796 0.14286720381159265 0.6193481554261526
Ni 8.308480281710944 5.671194700883004 8.921239240917048 0.4818152193432799 0.31086102748748395 -1.2100267108317548
Ni 4.035676603951449 5.501531764721378 0.5822183188943337 -0.8502422181706906 -1.095763286799784 -0.1032238783883577
P 1.6117838385067798 1.5372921865221916 6.245931996513879 1.34871638622689 0.458675548002023 0.20527790483833033
P 2.82743137878055 2.2961231847576453 11.512933119724686 0.13117485507532894 -0.06418501931834107 -2.977853481173536
P 4.067169238205563 1.4823651344550655 1.4293654953204207 0.8028680997621012 0.064510778088876 0.5520901536094428
P 5.975026940788947 9.175563110811549 11.923337146068 -0.04051930027028505 0.025533111274097957 1.3723754204067269
P 5.482510625912734 5.741338663997045 12.468014483367837 -0.40090003175445155 -0.28622960209204895 -0.10424846299813015
P 7.617413261733672 3.93490204834211 0.5097468430314913 -0.009196836007919646 -0.5660360742665735 1.0141955532286209
P 1.9293150463625932 8.46125844342273 7.237451490501392 0.9367878645724189 -2.083544354590618 -0.21675505223999442
P 7.419246727416433 0.047935143801604414 1.7033570353426764 1.2249990158708708 1.030664754528238 0.31643595047210016
