# total energy = -340857.1878474853 ev
CRYSTAL
PRIMVEC
9.35047870420874 0.00000000000000 0.00000000000000
0.00000000000000 9.35047870420874 0.00000000000000
0.00000000000000 0.00000000000000 13.68537074448373
PRIMCOORD
 96 1
Ni 0.40204814380946263 7.477390822779669 2.735623741753722 -1.0108155810127946 -2.6095259840384673 -1.8619196329631482
Ni 8.005777024766035 0.19542313515147375 2.971176326427659 -2.1665336510996562 -1.185355947557952 1.225325545972354
Ni 0.3426595132674924 1.5450918046440554 7.1044862510445865 -0.5349038716381432 -0.9372162103590891 0.12592491953029925
Ni 7.845678128122835 2.873720026920977 5.073946577744106 0.27827486602134655 1.5433324404760003 1.3794217857305469
Ni 1.665600774386933 6.288832771727788 0.6356773350107036 2.1972264521978224 2.839566183423142 -0.3667367556091813
Ni 4.909796118671547 1.2219579610395888 5.418694987957639 0.4551726770550871 0.3146289791703485 0.4870926656921353
Ni 8.275426130092315 0.5994825669336005 9.174987065250571 -0.6597283590154123 0.7317866104342429 -2.427542016731071
Ni 6.047085494901875 2.202514612965904 3.604672194752995 0.5681772889792924 -1.112964995390051 0.5545769245870384
Ni 4.634574128028169 1.622298707434786 8.079008104005037 -1.8987501715279362 -0.08368118036973976 0.4170406460700559
Ni 3.8986447003735143 8.02464629082292 0.37904503111048277 -1.0096179611602678 -1.6334215812546125 -1.8867073814307893
Ni 5.262608381733175 3.9221985562691 4.963122833859366 -0.8854552757367138 -0.1748275587682731 -0.9415179230582367
Ni 5.94604422185396 8.10920266988754 11.905670014048663 2.215881605405164 0.9780921226378446 -0.15962591132717024
Ni 5.688260874023311 6.283774162740288 6.368939257969578 -0.6427174262797125 0.9473293875336912 -0.007836465325283279
Ni 3.3190272254804745 0.9295825171844391 3.6268281540799467 0.5535731659128724 0.5466800383374649 0.7203727121703465
Ni 7.603407224488605 4.301594230331582 3.160909695278036 1.0656860077984291 1.076944354321068 1.1494283804234076
Ni 8.999508501208776 2.312915715212502 2.8907883907763967 -2.407535748812473 1.1274143380461616 1.4160198965695547
Ni 1.1783005758960834 4.6139376214932115 9.899107773329785 -0.05092404054337682 -0.21700342080537469 -2.3861796517341998
Ni 8.55397689116 2.996220648631207 8.346940461438333 0.9716188562086749 1.4083646940171424 0.7335609287258463
Ni 3.504091900305974 2.9162834060542466 6.159306200307377 -1.0976332501289872 -1.0099540043434476 -0.10161899579508306
Ni 6.241248185521898 4.980214573911585 1.5419304077888358 3.0654702491522556 2.1458064458546335 -1.0617221380546746
Ni 8.600121503643015 0.9378249641760861 12.927597859071454 -0.6903607391892884 0.43099736536046424 0.6309088636805585
Ni 8.445726399018994 4.576404799911281 10.446276281920937 -1.6909155617060232 -0.4860187159016662 -0.07432673573803328
Ni 3.5775025087364 2.3361610053103288 0.5721782340234377 -1.8967431684002367 4.230601642133218 -0.5803378356012263
Ni 2.67561143428113 5.360423739622703 3.783608565825431 -0.15320380985091034 -0.46537892816412757 -0.5507236122792193
P 7.805330812446197 5.1189102247647895 5.13628341422648 -1.3105470742460203 1.0194087219984445 -0.8059799059182056
P 6.340812082932059 7.942324676172369 8.937505476816705 -0.8638988897221768 3.583852211875976 -1.9084054352295132
P 4.484162327338851 8.22961813484322 5.1322196961747855 -0.8865400241604603 -0.30448572008875946 -0.6682502804434943
P 8.870041772852176 6.512468171273132 11.800018954991806 0.6038138072359795 0.6446994897067477 -0.9828561196853912
P 4.281490701083662 6.031105526769459 8.09261118044684 0.9025140309912134 -0.3481047423302908 -0.0717458623847345
P 3.192505897920661 3.2055404652562887 3.825116275911217 -0.1181748432712352 -1.3523277577272323 1.2823405299048174
P 2.281629013415507 2.2626662425714232 7.882226344295553 -0.06549088261395818 -0.4272795501892448 0.6473238147034723
P 1.2617255470355897 8.236247624255672 6.16888576575598 -0.1855547153777901 1.2456313474092418 1.0800643880072882
Ni 5.138125458534313 1.3881346688507636 1.6436954078896766 1.5532777246141698 -1.1384559405723038 0.6539572608595898
Ni 5.253996590832089 5.980145417745662 3.904326986291636 -0.7233973579292832 1.0896995971042072 -0.39359809877639956
Ni 3.0064594228295656 4.375949237112724 8.499149424137627 -1.000997052260476 -1.5820260003914561 -0.3357055973349896
Ni 0.09223966742881479 6.746248840229637 9.494909954462603 -0.3250997967946853 1.508127610440093 2.0007772013947154
Ni 1.025261290686456 1.8996900091411961 4.997459661814812 0.7256858968531438 0.2105311828174697 -1.6129717980406932
Ni 1.4700261614801957 9.23358838548432 8.367427360313771 -0.504105398200048 -1.7684985995978253 -0.5128959999084844
Ni 6.992699407851689 6.381860684512695 9.90790750885314 0.19858352353729028 -1.552856063695719 1.132337743489708
Ni 4.660372098816546 3.897157974257041 2.4686900154477187 -1.8723405711861563 -0.8371915556343194 0.49701352435027313
Ni 2.390580791460511 4.276394690181283 11.56922950417782 1.899347695902619 -0.8871540035953754 2.3991261845925393
Ni 1.5920218573395475 1.9511830954520297 2.1693363093238607 3.560803300476313 -0.25698716028716384 0.3834597247908171
Ni 7.276542539874874 7.074366488991843 3.2378903164837434 0.4353201611055341 -0.541233670510913 -0.2615817216363817
Ni 5.15387166469873 8.386575270636511 2.1635203115600437 0.7439607839029316 -0.28106939804734815 3.5494896752357064
Ni 5.873175941189291 6.912173085115372 0.3572172735866021 2.240632587097599 0.141656214222627 -0.8278221986042775
Ni 3.0561385162687267 7.470293809431218 7.084327553972219 0.15016605146585105 -1.421027119976159 -0.8972471261653193
Ni 3.2360791287556863 5.145605841510283 6.246796759594323 0.5956736946273483 0.9145064274663992 -0.70537186788614
Ni 6.711726872795534 1.706097697723091 7.58069678177356 1.4568068486789296 -0.06915650439100347 -1.1206132559639281
Ni 1.062747359874786 1.267410638097327 10.009466798422142 -0.5498563791829175 0.7376525822967166 0.8782492449065779
Ni 4.776159076805842 4.737747310224236 10.01353145152171 0.27102795465094615 0.8598134067988934 -0.11370780863881706
Ni 1.0971010186919286 -0.08392709184676805 3.5090111871605463 0.7261985748235041 2.862809213111482 1.3582178979594222
Ni 2.951693668966745 7.727600282847148 3.199488835428729 1.0710853244371297 -1.5373991057107006 1.3590650764510657
Ni 5.669083042168668 8.76383903555084 6.933747444665942 -0.17414750198211298 0.0708752868543231 2.4267768564302723
Ni 2.892262026222663 6.529261631054185 9.789105001476656 -0.18688834658754908 0.340051275898195 -0.9562739983214885
Ni 3.204839179352292 2.153723815005139 10.114679320027035 0.6816966357563873 0.9257393200677412 0.041745716478218425
Ni 0.2389140817737637 2.731162628356428 0.6788438200214106 -1.5457819304577571 -0.3269841583015917 -0.4013355766299733
P 1.481153231156951 8.357663590434386 10.591820223388643 1.0342907813165994 0.09883731928488786 -1.3192124632305022
P 8.181612777094932 0.9281575042275169 5.090957903679334 1.3639193192195738 -2.059268769872705 0.41301069897505643
P 6.754795177779681 2.9175924730750418 1.7401222196892907 0.21394380804344443 -1.3869905992167404 -0.12184252193080952
P 7.356629390111354 1.015779905264414 11.074078643753689 -3.10153999829162 1.6937617729055667 0.24062054600368238
P 4.433136764964015 6.161806518317095 1.7884997264906328 -1.4583757358279463 0.39100616967950724 0.9555566605394898
P 2.0778727316288026 4.157101282672 0.4133323015287135 1.5319905331006196 -1.2035421315486754 0.3651413860976034
P -0.037348617151146506 0.3158591711603357 1.4526885038376411 2.1591522710339204 0.5307386845168601 -1.9347744121413457
P 0.6169604817569545 4.338425766009514 4.082688302922794 0.18984742921587305 -1.0771775533777965 0.9945055309988613
Ni 0.840915667674522 3.923816189087654 6.269063054570171 0.048124880531684865 -0.37544251091329534 1.146814082729012
Ni 7.184515128313002 3.4905898090343483 13.432533995476025 -0.8915716730470967 -0.2759395330199506 0.17225131340066463
Ni 8.760687924222212 7.936059855429994 13.59730532633559 -0.39815332224724975 -0.5295778314395395 0.35935177599901985
Ni 6.182199912405334 3.0984961848701573 10.954715107654007 1.604721642216759 -0.8993844842232963 0.003429594506839255
Ni 4.954369850729608 4.83906909763375 13.34075904683959 -1.9306822443498426 -1.139535803900044 -1.1208677951768955
Ni 7.058825993359266 5.608426486712271 12.241482171749528 -1.07035873068375 -0.3839222662495323 0.7220436721148661
Ni 1.656053935613851 8.649604237029058 12.732991955760104 -1.718879651019117 0.7011115499478893 1.0283013965023837
Ni 1.1873331383395676 2.1151717912427332 12.326673448319234 1.6797490035662426 0.1174978718088686 -0.7485908264757752
Ni 8.50146460266869 8.116701753820951 7.440626610548521 -0.14737023388826875 0.572285140500079 0.2574946960512017
Ni 3.71991965012015 8.494479795064878 11.766805119530627 0.21396283420683795 1.2528975420533521 -2.002171767749397
Ni 5.142763295979415 0.47298742071420274 10.31772964067038 1.808075847669815 0.8831736787913885 0.1307007436523878
Ni 8.932811536499283 8.027423383002748 4.958688836850359 -1.0558515382065108 0.3094615760367961 -0.3735890026443243
Ni 3.738283990326156 8.758023037787023 8.915513150867353 0.5966054624129984 -0.23642810518888957 0.543414994432948
Ni 0.5990103677582422 5.065388084571724 2.1197133187570194 -0.35508631585444655 -1.5368748577761144 1.2639612560666813
Ni 5.481615294312138 1.277827071391365 12.77972751849822 0.37403148949838166 -0.18957206406729932 -0.6177371021852909
Ni 6.476066757616318 4.115239189442728 6.737773566317863 0.46563321026677873 -1.0733283548350354 1.0781851687067046
Ni 2.628915143553637 6.573919517420727 12.033477967480344 -0.23626432591751564 -1.273008196760298 1.4657974822133142
Ni 8.633184796396803 8.835744216907353 11.00587064168305 2.118581034479777 -4.335721709103024 1.815347955851196
Ni 1.0803730122619155 6.126312101096118 5.5370870093183155 -0.2819165765389919 0.6720038339486556 0.09280062617250469
Ni 2.6221827988752637 9.247025023404907 1.6517424298760763 -1.5766829909119877 1.5826906305586483 -1.374883017319929
Ni 3.1451831251189306 0.3099814602369672 6.745929988905285 -0.8099800282165339 1.6063589207098656 -1.315538613923341
Ni 0.2392273228108824 4.803901947167971 13.470099543733475 -2.9735175728023435 1.6515347459155556 -3.01605570327487
Ni 8.139769384823099 5.752919434371852 7.039590188536558 -0.7847721614923387 0.5886324715098508 0.9875517253888475
Ni 6.51546032446352 8.985417329777793 4.824312172117906 0.5799097469248722 -1.0209231017604417 -1.3385733842556173
P 6.620008027031422 3.6328386418011385 8.79894073266558 -0.7490011745403165 0.1739981208884423 1.1574448229699807
P 4.30446482729861 3.0919789012023435 11.94668588895378 -0.8387028500725233 0.07129360533866431 -0.05171722586863351
P 8.727577879074826 3.2660287120957268 12.088041751002816 1.0159750137265469 -1.1778187586406426 -0.554260164677568
P 3.2850943382057305 0.6649452684520584 13.268172215584395 -0.7147137141123562 -1.9584398740790852 -0.9831613096306357
P 0.6697532846098632 5.799765332758865 7.8062312635469295 2.67315435952239 -1.4517037231244094 -0.9451074401817078
P 8.261082495735893 6.179450871661665 1.3368500982153848 -0.5628746458194563 0.35075195014515076 0.4399538032228036
P 4.935519285630164 6.2938165768855265 11.688510756064765 -0.7945086720538124 -0.4549993847020164 -0.2890806983875989
P 6.229737746217623 9.030393132420812 0.5008471720603312 0.7001180756863684 0.8625503461140822 -1.0729768850328876
