# total energy = -340876.7556427403 ev
CRYSTAL
PRIMVEC
9.14059091463244 0.00000000000000 0.00000000000000

0.00000000000000 9.14059091463244 0.00000000000000

0.00000000000000 0.00000000000000 13.37817874864996

PRIMCOORD
 96 1
Ni 9.096139942379862 8.786666965262988 12.25111991671681 -0.4880205768230434 0.4422127744603094 0.4871857396265738
Ni 7.185546266156321 9.046753331180923 7.114033941267183 -1.678201970794097 -0.4886924060790875 0.7592657896911181
Ni 1.9385090400217195 8.822626048819647 2.6090792220417662 -1.4719928123907489 1.195992858446508 0.07453499509409744
Ni 3.817704787415286 1.7137967598598258 5.373612469006789 -0.09307419154886551 -1.9214319293961684 0.35867017655096295
Ni 3.3873840615178876 4.278171181225714 9.317192330051647 -1.2339456835411975 0.13955202339543063 -0.5943071532971248
Ni 5.015524346540539 0.824818563038594 12.224550961919114 0.7937733365496845 -1.0718211741618897 0.8421627835966657
Ni 3.6584391361973867 1.5150254759190294 0.7279749193236882 -0.8203318037645034 0.274382730055792 0.22501574958688988
Ni 0.37824495293374943 7.015156516136069 9.230782670546178 0.9069615252396057 0.3299730657265866 0.4189147231643172
Ni 7.94489169253808 8.79678559909553 9.850286200808641 -0.5292117063493724 -1.0327866859672472 -1.5358888397137613
Ni 4.621628874322165 3.946294616463346 0.4049638134178542 0.9524808498276435 -0.4726368952781215 0.41086408494569887
Ni 5.1361435805551965 1.5816146786923533 7.436875946246276 0.9556219665597865 -0.5922795813441347 0.965492431595963
Ni 8.888666816154894 4.768755821177267 2.4703076890857845 2.0457223986468382 -0.32433000850819627 -0.1636635717316536
Ni 7.030037397689258 0.8665663826441676 3.6061412468813163 -0.9907604621341324 -0.44130954591974964 -0.4851208866777452
Ni 5.1134840563719335 6.900003355320924 4.172091884733572 0.03147750178299095 0.3561993464129672 0.0459003620765403
Ni 6.3001703761042 3.109711199218912 12.407899327282088 -7.559043294180529e-05 -0.7271527112066574 -0.6105783796533226
Ni 6.8228659109552305 4.690877988970168 2.9626646895613944 -0.9096401005130335 -0.5320368345029933 -0.05525095005350484
Ni 5.620092151706005 2.8283821006660825 4.219784744487912 0.6546676566630532 0.37204274120312697 -0.4860760515021629
Ni 0.9126495843877489 6.651205618836764 2.929580321759329 -1.7068175776482601 1.8657953138684704 1.221352163146903
Ni 5.552534046325409 7.679001051567152 10.833581582093366 0.1756701092742265 0.5311824569224981 1.274870189669701
Ni 2.302971810396565 1.4599442767547122 12.09234785739318 -0.45234754890146617 -0.4079008885523169 -0.7490765078629422
Ni 5.1714079792236225 5.391102075127102 10.26840698038599 0.9464930076753246 0.01931232717536674 -0.6504603034499249
Ni 3.2115190977074892 8.431271660797702 4.588782161876601 0.24468700276357216 -0.08892160283307267 0.28891897599875405
Ni 1.8033014233541824 5.909995124274123 7.29635124800657 -0.7107616714431436 1.8571072991761695 1.3322173601306024
Ni 8.355496164436568 4.34042774403822 12.375349684032148 -0.8712607294038864 -0.6368697092496839 2.3069315674351496
P 5.968385217248179 1.1108834015992288 5.42786096036429 0.9081599164230811 -0.16443978777604581 0.5140026027091018
P 7.063848442446777 1.021205066882814 0.15774922723161322 -0.23304684742148252 1.061116900370508 -1.1001377617183958
P 4.0506618803296215 2.6254701291677955 11.784998239480734 0.49578607970107513 1.885616719469772 -0.4734185106391524
P 3.013707575783329 6.821714196535266 2.9835079783855547 2.100557344208847 1.0768505090556808 -0.7348683346833602
P 6.429473171221762 5.242192713098245 8.421536931771815 -0.4554475279830285 0.4286332360036618 1.754122019161179
P 1.376179904178907 0.4414338559909888 0.4882592736941026 0.7378757540511163 0.5201082013862074 0.46666885062014474
P 0.7644778680231074 4.9396391630917895 4.517810959953032 -0.36399853074241184 -0.7182314974576276 -0.13228454319973992
P 1.8526331910093137 9.177610026706375 9.685774764625524 -2.0749604695763493 -1.978368237571896 -0.8317014790540257
Ni 5.468340065989777 7.324730039749925 8.452265769367333 -0.45921959343095103 0.3217259952264459 0.1342414098157946
Ni 3.6557243807788997 8.190609049978368 1.1421469637468749 1.9718011258773396 0.9756403186632423 0.24107794525607512
Ni 3.0762749186774134 7.056179486904317 9.139490107523688 0.024546836101428694 0.041867329657747254 0.2321554459554647
Ni 8.355057416086106 4.940745174558581 7.509224635178484 0.5064152772801472 1.187895426150354 0.19523183345623796
Ni 7.347416985705092 7.295361322040839 3.2718341990691986 0.8060413552837602 -0.6324070454926398 0.1822999558859183
Ni 6.4753223738450965 6.452105273633121 6.497406954877441 1.7834189683530834 0.5236167287600982 -1.2086061763351443
Ni 6.3893094159731705 5.780025066040232 12.350921455561084 -0.6936023860550377 0.39361429672631565 -0.22358287379510527
Ni 7.899481238265208 3.638896553420534 5.4368918639113115 0.5094064986979873 0.8823331851679644 -0.7956888084048425
Ni 2.352056782104561 3.6828627943731345 0.3029941264750443 -2.2912154422514734 -0.5748742413834937 -0.12467124962885627
Ni 2.464952217032951 1.9962684322419852 9.528928627748613 1.7934347007178728 2.027030735774606 -0.9741778751851028
Ni 8.374764529494382 0.977677574280677 5.459259803253328 1.996668578542981 0.33009725000927664 0.4988966003055988
Ni 3.272861601456532 0.16784957988288612 7.895412761373732 -0.18268742113232408 -1.1454771090851434 -0.21954392783904125
Ni 8.33848552526551 9.382724880547608 1.7954313748177608 1.4312629387715543 -0.12182169599520311 -1.2680703931390485
Ni 0.1237782221379882 2.123222095566446 12.987789365852166 0.8101569201140304 -1.5498758980214726 -1.7895700755561437
Ni 2.1002792130735095 7.998812036691798 11.550786143472262 0.6353049358657252 -0.6390739159898542 -0.4999006160900811
Ni 0.5553630917201565 3.4935063187860127 8.983393499078817 -0.1820420742388413 0.33663993622380084 -1.3627175856019886
Ni 2.255193943149322 3.1125996258594575 4.21083519219754 -1.5980069492007445 -0.02216265213996828 -0.6143589297416774
Ni 5.765226449802756 6.511025520863985 1.5111050765958338 -0.4311161503265156 -0.7846662320420937 0.3012453587745909
Ni 5.970268178918913 2.296756208765012 1.8048096208088975 0.013000526024725997 -0.06610023406318294 -0.6534183576369843
Ni 3.771389414669585 0.08523235143172776 10.336395607585477 2.6884354540511763 0.31858410716335456 0.25532622764497315
Ni 6.229879234123848 3.598842485259559 7.1184351356577595 -0.11563587889946536 0.06601204522475082 -0.2673067970456171
Ni 1.3565733372676125 8.278093642942471 6.071499306138445 -0.3207140090221638 0.06125936103111385 0.38036694479810623
Ni 3.8996319012735294 3.9862572787179755 5.349144021936931 1.5040269580081582 1.1846586643806114 2.091626874488436
Ni 8.711906074462298 6.71111304985617 5.4048778592725615 0.34005256144977564 -0.6510112908573885 -1.0681565808261089
P 7.943438338627174 3.0783315515702068 10.549817430195468 -0.5246695955046448 0.49238116778458435 -0.09440782275862451
P 3.4056926645590635 2.8229343086478393 7.376781133118861 -0.35898513668822046 1.4095821113640112 0.9305519109650362
P 7.748762039290694 7.289812983525616 11.287864366339463 -0.6990559529704412 -0.7983229035935799 0.6096962341586855
P 0.7084780395000093 5.258536089152974 0.45872054099921256 1.5586472164561995 -1.6543354485891446 1.2580446334719302
P 6.738461697035 4.533431315288562 0.7547257718750142 0.417184627847088 -0.17708035935819177 0.18475458807399794
P 6.019188619995486 4.963185324566612 4.9022733426364615 -0.780099695717334 0.03217967005633813 1.1334687717703575
P 6.024234226025805 8.605107413487211 2.255654628917308 -1.7162740950754698 0.10323596257321575 -0.5381622306744409
P 1.8001936225384063 1.0537181477702149 4.590199867484032 -0.2609980812187699 -0.7108534598260016 -0.8314399978625229
Ni 0.39391832369496 1.5576480500483374 10.324649034560906 -1.098213033891857 -0.9437550399188713 1.2945057045124415
Ni 3.2675783400697123 4.828014270261614 11.92406409945515 0.8725000011276265 0.7846070966693842 -1.2043985660117
Ni 1.3286031299256262 3.9750874769624502 6.531989465484523 0.6689264805749124 -1.3208888224916606 -1.617782332055459
Ni 4.209900109775616 0.8653296607313012 2.9996950503404323 0.9062243899632652 0.24645720729011747 -0.1285001364566432
Ni 0.43872367086781916 6.263315514665347 12.014126338978219 0.36080573483672695 1.0204140233345071 -1.0517442009063565
Ni 8.329463762309125 6.669614768374922 0.927841246022514 0.23255628093830916 -0.7093979583263977 0.9705137960699544
Ni 8.682957823922406 2.5642007501438298 3.522848528782258 0.4773299298784166 -0.03731621995195509 0.7201148305232694
Ni 1.568708164716247 7.321247474718129 0.41785844462613536 -0.4265074479099106 0.48980826485108553 0.844886610285732
Ni 3.4358931760159015 5.832245260335908 0.9066378179273488 0.3907140923603852 1.2935988764274562 -1.3488608822245545
Ni 0.30991263952640036 0.3514200615982829 8.034772948366584 -0.048247779262794326 -0.4855772574888734 0.4705157351700606
Ni 4.562562377641147 5.471877474565381 7.142074531157056 -1.5523354153055586 -1.36061288055416 0.6909358949664681
Ni 1.7607519739499515 1.5636442775046586 6.697129774303304 -0.6287026000578592 0.4969317632697442 -0.5845811842586126
Ni 1.0923005808390136 3.814852923137279 11.138564701090505 1.3358243607555704 -0.183682952276374 1.102673897876688
Ni 7.500128833437957 1.7892431949581122 8.604362455350488 -0.3879439858144158 0.8680296240610987 0.5182433802633268
Ni 7.18696305770469 1.1924448918320867 11.243796664830818 -0.33575316274347333 0.22739144890791807 0.8199463954006264
Ni 2.238987675954112 4.841158439594221 2.480541494360323 -2.078324758062892 -2.0249165176450807 0.7440492298516799
Ni 2.765750773637556 5.989911308192747 5.053660718786367 -0.5959043225809157 0.30301941995587817 -0.33523251435331297
Ni 6.817399837755718 7.964836461302856 13.447343528717255 -1.3504050867832227 2.476864774225599 -1.6383298171895075
Ni 1.4319100852782831 2.3386475356435494 2.0964940944917068 0.3677513129166247 -1.3488050892859544 -0.7683384414163478
Ni 5.4821789202106155 2.902795649022655 9.763701956022052 -0.11292413639525713 -0.3250337194434402 0.43326636390029893
Ni 8.2371437968993 5.285967001647517 10.292475069586052 -1.1301152819170923 -0.08035931508535837 -1.7764047418187794
Ni 4.435800666720013 4.895627219186016 3.070438651557198 1.0429106617751265 0.36585075345980217 0.5032389364346946
Ni 8.30086285421335 2.8620834583359858 1.3392628867237386 -2.233302629095089 0.6020011795072728 0.11906418785472396
Ni 4.9931481806669495 8.503628576261482 6.149105662803696 0.19031048489522065 -0.3661495156471436 0.39729971599770286
P 9.025519739136664 8.60001610450372 3.7511740844220234 0.04999664363310099 -0.08066141970680947 1.0176477734432798
P 1.859150432131809 5.787419803863654 10.446056187488269 0.43892253374481177 -0.6323358259350722 -0.718014496350815
P 3.409979601566708 7.2196772315860525 6.857720811163224 -0.692453102941943 1.3723155137030687 -0.06418553353897334
P 8.549020749353085 7.46024843649904 7.397650929655861 0.6663276094994847 -0.47946445972291624 -0.11700293445032106
P 8.897012175404315 2.667334034274429 7.1316661406013955 -0.7363009533648287 -0.9856503946010766 -0.049748275067720775
P 5.787300976185403 0.20040653560533297 9.145268788922904 0.2584004956949227 0.8853022950986174 0.6346073955780684
P 4.010141642046279 7.205719549686964 12.578832028386039 0.5768457632875679 -0.10526147764367678 -0.7956641258144942
P 3.73094230111132 3.106777069625194 2.303133598850798 -0.4704332027585834 -1.8798847020820009 -0.3221836515891548
