# total energy = -340864.0939105845 ev
CRYSTAL
PRIMVEC
9.32378989847231 0.00000000000000 0.00000000000000
0.00000000000000 9.32378989847231 0.00000000000000
0.00000000000000 0.00000000000000 13.64630897953953
PRIMCOORD
 96 1
Ni 0.6076080631541514 8.775811901123344 4.014675582552245 -0.21840518624890773 -0.3382975264318819 0.9370935687382959
Ni 5.277973559796669 6.390376257441898 1.553441258390221 0.5157949187228342 1.3236327037853848 -0.07732001403840232
Ni 6.912079584494914 3.7781394300995044 12.696129799861936 1.5691033787925168 1.0693953383292165 0.2638172958351198
Ni 1.695036990175091 6.800455174596091 5.0976328200486725 -1.2570035938019255 -1.1621831089859145 1.515433657183203
Ni 6.900387552251919 5.070547211064702 5.808960584221573 -1.0281227048326744 0.4257651704272474 -0.600123759978902
Ni 3.9949921301852718 7.227093142199692 10.33844361898878 -0.6752195126724759 -0.3103295804640462 -0.7779610521077763
Ni 1.999029828492933 9.259744556233484 5.974517523072847 -0.04146623756458665 -0.20697406159383064 0.9497053439650353
Ni 1.6878017293931427 7.4011776190808245 7.6796922697533665 -1.0670029268376398 0.8182942045091842 0.5514967429998179
Ni 8.16956044936581 3.9076934875288507 4.1952167837780925 0.7985936407564633 0.14480684403646674 0.2501806788882917
Ni 3.8006936773050883 3.7096375474126813 0.12231879664739805 0.39802965218519193 0.8174053741463277 -0.40059561314015524
Ni 0.57308486715245 0.01415537747313665 1.5264078626283897 0.9048318804911126 -0.07638233271548135 -0.7908242812236896
Ni 3.3264950586077777 1.210899211692269 1.0982846153307628 0.368757642693952 0.17690089635753406 -1.8922126275197346
Ni 7.496737139382613 0.7987569398846672 7.284672205291087 1.6288504169441624 -1.0051614680508107 -0.10877720410641911
Ni 9.097035102746652 2.6839647412541576 10.780051863282456 -2.92190396239111 -0.051076249850524946 -0.7898904565555106
Ni 7.33403700968545 5.866341982972018 0.1626777526019622 -0.25427824599643306 2.453110095008163 -4.591479367858461
Ni 8.67352060468165 6.171761361108981 6.836841263773351 1.3718501440308761 -0.4683948321723159 0.7584939445221002
Ni 5.171011044731576 4.96644709942752 9.5951967932683 -1.867255700464081 0.28576654641270144 -2.321351085294589
Ni 2.886626633466052 3.7746896279225446 4.667856464843004 1.6780716158638196 1.0473802675107058 -2.4351403979036195
Ni 2.7912162937989415 7.645321051523245 0.9284005056948212 0.32067955623980254 0.1618738268210825 -0.6136978991189108
Ni 0.1705871233768679 9.286541127737761 11.078524085738193 -1.0112446981304133 1.2380522495104034 -1.0069704962350916
Ni 0.5542247054131134 6.041936913779278 13.52522448656658 -1.9498539321822872 2.102364572620915 0.798529106067115
Ni 5.894928722092447 2.1570867109357024 -0.08935733541499606 -2.7519758978069833 -2.065879847431319 1.983155374547894
Ni 6.425666801333231 7.636099823542128 10.218792358565242 2.166057482794186 -3.036675950628383 -0.06812086403763752
Ni 2.0254534484105124 5.239885879005097 7.092177905711557 -1.2489460136047716 -2.026772339906896 -0.5688300920719429
P 9.037195020660898 1.9285979213449458 8.596177904632142 -0.12982965390134416 -0.6822581646868121 -0.207150696381011
P 5.945659461673094 8.773294477913131 8.376035771551695 0.6109486185085479 0.8865911891133699 0.48495042253815196
P 8.215955626751086 7.561108583246753 1.396521878286882 1.193963486721305 -0.15461663103803694 0.3749804836752123
P 7.30878818726597 1.550769992650494 11.954344011982347 1.7712363102439623 -1.3346560514790822 0.4323909032738811
P 8.190865308755953 7.227848369162756 11.897684274552162 -1.1856791352253258 0.29389997415311325 0.4263529246099173
P 3.6022368142332177 6.1369090353320175 8.035342632344799 2.273424693926956 1.0050002598825982 -0.0733376323518866
P 2.181981229347819 8.792697284211114 10.35941748384573 -0.06792134643232173 -1.3973804270914967 0.021923025325336437
P 5.978497848881886 3.5689042661720514 7.032680006706599 0.2536655521130986 -0.6609293213020488 -0.001984634530196582
Ni 5.454267774828987 7.594730168787611 12.579044446354883 0.22963859307088194 -0.04479530193781963 0.424112979535805
Ni 2.5124909254799146 5.99187748705469 12.497289729034733 1.8572736495507045 -0.5925690875600957 -0.7867886777017353
Ni 9.11583186271625 1.3151578277537987 5.676987003373521 0.1358023265450113 -0.675011767537044 -1.0570545573756762
Ni 8.834934051404705 6.4954926621528335 4.3928829894861625 -0.8427124854525487 -0.9091400209481634 -0.6907302067135652
Ni 1.096962501955917 4.701175959598636 2.8899337816611004 -0.9360504721857621 0.8646082570843754 0.3585621902181889
Ni 6.900881713104296 4.929394359289036 10.848624606770752 2.490668769988227 1.4880130990784053 0.860780398697853
Ni 2.7428444730041632 4.996609559001751 9.599168727666637 -1.1484001962692094 0.6562404004668118 -0.7759959579616055
Ni 8.555294951698267 7.672872849990586 8.69535971721974 -0.7222311055353239 0.8576567654672068 0.7322710062698292
Ni 3.5400378133615975 3.8299983482299127 11.265560238846392 2.033749799665994 0.7891898309440601 0.9900312972775916
Ni 2.884584723528879 3.205500240093159 2.1953636646575228 -0.21153699837416473 1.3943632375317276 0.6329816870491873
Ni 7.322400920180461 7.761038605086082 5.90335183367803 2.863438362055049 1.3741859912529044 0.7132731250110877
Ni 3.345086695204692 5.490173688838373 2.311425266059089 -0.7926037417216156 0.4849311392644423 0.20135388719357583
Ni 5.344946340978028 0.23501823949487838 6.385871934653549 1.1200190740233549 -0.39035799457254705 0.04058614895247849
Ni 1.7759022179609654 2.396596219913396 5.853133902529095 -1.3846958896452926 -0.40077533325112913 1.998293258630597
Ni 6.031438326613719 2.6815405559406185 10.828946748677577 -0.9359178032626398 0.367557965958896 -0.9483393168554441
Ni 7.90563193524904 3.650673901555669 8.658582961255412 -1.8792612095653896 0.9175277307912262 0.7558552213476725
Ni 6.841153516494551 2.0962396595658634 5.508482814608364 -0.43588786068354607 0.7394752373277523 -0.37059058213763274
Ni 6.440230560793802 1.828637572320115 3.0013008549651006 -2.117793505581475 0.13171015875350864 -0.34285866344000304
Ni 3.7740835815941596 3.494416510518719 6.852343928853435 0.8382871026913434 -0.49012708164308494 0.9627516356260322
Ni 3.4262969032082617 8.774515894359569 12.042294387536522 -0.6474557122956462 -0.5413156887017581 1.5128697531107687
Ni 0.8815894872903753 7.130694480827831 2.3422385261521086 -0.30904711420719677 -0.799852709974545 -0.2869358841304542
Ni 0.665190855761413 6.915156435085175 10.908845099474936 1.3507007636467705 0.7659344599605454 0.9045290045387132
Ni 7.517212181492354 0.46256719108715516 9.562227873004163 1.3086637411803785 0.6029244626524907 2.0849466342547833
Ni 5.801000864982463 6.833069790852863 7.405469359464756 -0.3819903393341421 -1.1493396773643432 0.6928557376970004
P 1.1108549485604313 4.789640075963489 5.152628261023214 -2.240750343622386 -1.311052296017213 -0.04709386816400921
P 4.974437587172533 5.712154473241244 11.652405204528245 -1.0727853378473717 -0.8504340224665224 0.1395337685629855
P 5.8893810672403095 4.479101937299092 0.8782627591370258 -0.6422374013195004 -1.6536196534690424 -0.3034148556220839
P 4.616804986897797 8.995480385688685 0.4754060494592465 1.3002438925477995 -1.0760938333953143 -0.2010960055464988
P 4.060351895754161 1.9512640540265391 3.2063915943853685 2.810860845068649 -0.24336005642203248 1.008316982960657
P 1.6412387237938513 0.9929835995844113 13.2662590256898 0.6800994664725963 1.3420387170963983 -0.7245191302385522
P 3.228399467516439 1.407845620838011 7.561801340819045 -0.7819295498372212 -0.5115939932676092 -0.38742822252026177
P 1.757114781781035 4.642715798383667 0.7653078444526571 1.550432284745575 -0.13128464118031583 -0.030458059379541096
Ni 8.093086726513308 1.5974542075154627 0.4395383629874975 0.964334663842436 1.2089483901659115 0.653201870750804
Ni 0.4783383813096625 5.722727650724143 9.097925524659894 -0.7325222030486869 -2.4454839459214726 -1.1789909245718728
Ni 1.6202508732524006 3.0069687867039487 8.43258642064277 0.28251847178904893 -0.36301122712847805 -0.13592779637928204
Ni 1.033803150748548 2.536108084707589 1.011685256899401 -1.0066010287108147 -0.2717146963053256 -0.14407485096644865
Ni 2.4330056185648243 0.5794781897274268 3.0292759534833453 -1.4921245501436173 -0.33821242291724335 1.8082781934886083
Ni 4.306425352657746 8.58831049091074 2.7239945674334605 1.0221842278610525 -0.4933833837968535 0.02779156829097149
Ni 5.537221531500373 7.598487656023598 4.8541010282084365 -2.8673523523974747 -0.37522859513027634 -2.167386228907938
Ni 0.9819069374594697 2.467634173389768 3.4690688559287643 -1.100116421562157 -1.1412718127545443 1.041888391158199
Ni 8.450523527205027 0.8368520797079723 2.94655156203778 -0.3778966288807427 -0.1967279583857902 1.3423405646075333
Ni 7.509902330393066 8.85927846622644 13.272481722913863 0.7996058840710617 -0.8017386141433482 -2.0950423279278887
Ni 9.09935672637385 3.756060696166961 6.710040521432806 0.7224681612467945 -0.369785312627518 -1.3891405556802077
Ni 3.942862822154507 1.6764267059988425 12.23051745906939 -0.050683385287480454 0.15416874486734095 1.2356112441690783
Ni 5.881716912133657 1.8496347466512333 8.540569890676448 -1.9330674567525679 1.1806801393488375 -0.34969625518712677
Ni 4.220898230038142 5.584922039439095 5.624462366660857 0.20878746065348558 0.2241253765621366 0.19630064104038453
Ni 7.995895543019713 5.316676610706292 2.0238973079150138 0.7848181842389258 -1.1812524669125397 3.8283073011344007
Ni 0.8104694844649295 8.459194651595764 13.036987037766979 0.23610594596278045 -2.060919675212567 0.16755596480752433
Ni -0.08352250784110006 3.9428162032061698 12.92332724458375 0.18273627209238852 -0.7881678174374491 -0.17687415688465666
Ni 3.788143856412688 1.3542338302501205 5.299243921165043 0.004708204108946731 0.8519136923358425 -1.3423493063582816
Ni 1.8177007670401852 2.4005122115737287 11.300508599656931 0.9296605094990184 -1.6365223316671236 0.6666754797572066
Ni 6.631247039711041 9.00283685573631 1.6964542062045451 -1.3107962141423488 0.16135137865870922 1.0549837908895765
Ni 1.1489426293520024 0.3452338247749476 8.771424125705838 0.33288689693927187 0.22210680347021103 -1.2569393162228932
Ni 3.9199356233622247 8.323542835723899 7.778846110971962 -0.9938545276784239 0.5615137609161878 0.38268196608452804
Ni 5.51286779288897 3.628427339409111 4.18777919676036 -1.0865206851555933 1.1575327546980967 0.3112173823856382
Ni 5.334345192126127 0.1632726103827461 10.499797393457964 -1.5382609394903637 1.567833768051474 0.7706053830736534
P 4.071186139347749 1.9289429015626418 10.110345496185092 -0.41039203040528677 0.8753760371238408 -0.3406004635334457
P 1.085289117292258 4.6447577083208405 11.120936140177532 0.21975372985700217 -0.20303538866105678 -0.12144940025744892
P 2.9294694469880276 8.061646907754636 4.337997569229697 2.7614987496957535 2.6401035997150077 -1.5846904345974966
P 5.9631508910892475 5.787733112285669 3.5676091917872412 -0.0313484324042944 -0.4000443686223755 1.0077071172907999
P -0.06231368348453047 8.56522478769411 6.767313764223108 0.429697415602118 0.22784781971904633 -0.33618279408172425
P 8.218799382599661 2.930942605755486 2.3211965976305864 1.0539736044575074 0.23273934348339273 -1.021851527111982
P 7.263372007795776 5.705180278569984 8.871069330639909 0.6802311069544542 1.5555672919792949 -1.097914785925148
P 6.779663123637657 0.1237816992462224 4.444002531095942 0.08122629107134398 -0.033214539078755705 -0.23937098986729746
