# total energy = -340896.9479491872 ev
CRYSTAL
PRIMVEC
8.99892499652208 0.00000000000000 0.00000000000000
0.00000000000000 8.99892499652208 0.00000000000000
0.00000000000000 0.00000000000000 13.17083635769469
PRIMCOORD
 96 1
Ni 6.36480476295205 1.8776707237022698 11.238872785301231 0.3034480228528645 0.997464099406553 0.8477739591358561
Ni 4.67893712954232 0.35827150665711993 5.9272320283421775 -0.06421150168090232 -0.8829296811013827 0.42827096756823657
Ni 2.805315922150065 1.6231181284547747 4.821500801182629 -0.1436470194004107 -0.9616064662779955 -0.49577039597179134
Ni 3.48053227168184 4.156081581443549 4.920848034762465 0.3335993496252642 1.3163014602312946 -1.1989897362913027
Ni 5.18843827274318 4.494099207303004 2.6494455399150505 -0.8937283143787834 -0.05054737393024843 0.2399417747691029
Ni 7.1837879404144624 6.119737034795121 2.62089105057437 -0.21668691800622036 -0.36186451511854456 -0.9500539855537058
Ni 4.9563919892542305 4.514949716837011 11.578587608440836 0.16162597247633456 -0.4621766191767459 -0.8584887744501989
Ni 5.424003135959275 7.955931712557712 12.368087607488807 0.8464745235981421 -0.04560185699951501 0.6895670396433995
Ni 1.9024987581452237 6.347886783701322 0.43982966503332005 -0.34805152049485216 0.6944351663689783 -0.8320033265651606
Ni 2.761716129878912 1.6322430385400066 0.22718416423939225 -0.43711453400179556 -0.24413395847357952 0.48401736920092125
Ni 0.5949405379870789 0.1315498871695826 4.755620570173777 -0.22293032781277092 -0.481949430928299 -0.03286281216629179
Ni 8.701483660931867 2.260862953731217 1.2980553552173115 -0.4263557528233948 0.581500745561076 -0.15592326566460243
Ni 7.025748817222307 0.6645121280856369 4.954499515298684 -0.12789309900026363 -0.7157400984943415 -1.023792709998753
Ni 0.6811295432369086 7.388603476449849 2.4035463110757993 0.26298091597675355 -0.06404849374047679 0.5603639635824607
Ni 7.538606559497911 3.9485213732424853 3.816803206172909 0.7769518941169716 -0.4531062814443616 0.24230796100843432
Ni 7.546300640486938 3.9566564015630474 12.598089335187456 0.08345389485028208 -0.8564599169456282 -0.7081345182329416
Ni 7.8010602110125005 8.554171256498682 7.1666737845958295 -0.026575436495683263 0.18241128465280199 -0.28016976905121427
Ni 6.88631947120595 0.7507677253814535 0.32541283142515104 -0.6015509793437317 -0.09359561126997429 0.24000348124497375
Ni 1.778610555834188 6.414325847960956 9.432584235434351 0.4811079088636101 0.2849936728024189 -1.0875714950176107
Ni 0.09589434600616388 4.798613834890942 1.3944230446854904 -0.27163242100416446 0.08278412247676711 0.3283586700516151
Ni 6.567388565554362 1.8569731958955304 6.976776666646535 -1.150737071932502 0.21429836316938575 0.05664114553281213
Ni 3.4259447918228476 4.311088066865761 0.5514910277656527 0.9339352256149721 0.019574322587501775 -1.4202041098542315
Ni 6.028001991985598 5.686645764901664 4.7135262980774355 -1.1459273092486846 -0.24197474603873168 0.4931465851956991
Ni 5.3633773773357944 2.8361102439564405 9.135674599476621 -0.01675845040526146 0.10762020768384047 0.16349413603332488
P 0.24881128101240832 5.565259263777704 12.414936011733106 0.3770782467445054 0.6211373861160916 -0.04315056724554504
P 3.9087911187786792 6.241186528395015 12.649824155779172 -0.19456231819303912 -0.8871241787987045 -1.220860311112149
P 2.2911173400295906 8.509302615783724 1.2954033719805087 -0.04335008485086082 -0.061552981012132704 0.3244336239655961
P 6.322815778279768 7.585481960517609 5.839119052898834 -0.8016434833263807 1.148037156502836 -0.6352275456605705
P 4.658536566264983 1.0354793183209081 12.415950190595636 0.6161707861394357 0.8284287218400248 0.7643254636022127
P 3.7320432302342574 6.087817847347075 8.352654726417187 0.41064682672857017 0.010665193023330018 -0.5153501178759319
P 4.688233019205087 1.0207930725032563 3.8132207340773165 0.7809540732978292 0.25130090853566395 -0.5295588052761461
P 0.21603719567669308 5.5338800118376605 3.581163651878207 0.6156133709740688 -0.45026804066461806 -0.15370646051894174
Ni 1.4853265868126901 1.102764281543078 2.5326988845898533 -0.02394751195453295 0.24758823557076717 0.047085383523576975
Ni 1.7903091585075626 6.529359107940761 4.785215335259875 0.29631449713187674 0.06794088681634751 -0.6296364247260382
Ni 5.770533744994893 5.46833184116623 9.160790599523843 0.18838498573773363 0.11266471208628338 1.0690027308764878
Ni 8.512002293323734 2.2188559712086695 9.914729546122294 0.21840544335922385 0.7247045067764809 0.509169957207149
Ni 2.3236484543867046 4.969620409200276 6.947576954373792 1.3285028873934928 1.6762643874517515 1.4688938617504508
Ni 0.5930867594096058 -0.0357068350366789 9.059941445339247 0.06351936070988416 0.39153658826168053 -0.4182462363423829
Ni 1.3951213612758395 1.0812028569235357 11.185833120565176 -0.060371301999205707 0.6688395772880611 1.080257992075333
Ni 4.004197723042615 7.036376547804811 1.4920973780830338 0.7679175518288452 -0.2336852523364298 0.7597910660669689
Ni 5.599392186808558 7.422385441400502 7.909205693695227 -0.6157635233986879 1.1989375428971287 0.20702188411263053
Ni 5.417019970055783 2.7658736332905267 4.958530133865917 -0.4347946276193673 -0.20003876792657807 -0.8852380175195851
Ni 0.7785672049034447 7.315748178570127 6.975762487784004 0.3810045783821051 -0.35091572941652466 0.197349394019873
Ni 4.911172390459071 4.694163310867975 7.001682991738149 -0.01420868740021424 0.0557901103864265 -0.18677727493098156
Ni 8.186736144378257 7.1651691643135305 9.283056295633331 -0.7241540335896496 -0.9009721404253903 -0.31548952739843084
Ni 4.64382332367193 0.48145149356015976 10.155966431849947 -1.0027574865950084 -1.059523330631143 0.7515383391398734
Ni 8.066258534692766 7.029303392649986 4.623464155450206 1.0356246696366744 1.4659558621680495 0.7396500723427197
Ni 7.340639205489015 5.990629455906734 6.910118928506161 0.21067567881513394 -0.586779220351196 0.8225468091379512
Ni 2.4090392549772055 5.129279338916438 2.4346816921447285 -0.3153494022761408 0.769980605005461 2.106131238752199
Ni 2.4993434686905225 4.9761266320717 11.290738990199891 -0.07540325663166368 0.7121703788652122 0.7638444102007361
Ni 1.3266125442355319 3.3528735197399238 3.756665189291658 -1.1891154146003844 0.4230652549975811 -0.288857012412567
Ni 3.6049874062762775 2.529363882935428 2.599633789624335 -0.070975045656981 1.082823181699348 -0.07012221073838246
Ni 1.0062958041134056 3.305323199335224 8.174137649191545 -0.5873006400723046 0.7621353979294294 0.14896200385542085
Ni 3.6893703272518406 2.6064846713283663 6.923460734908888 0.5299580975970937 0.32468482074445376 0.5215374776335663
Ni 3.951590006712963 6.847174146875813 5.838855384392426 0.5449237177679905 0.3738211732597885 0.6732996699419437
Ni 0.8300599544090723 7.582179354993664 11.445839064443492 -0.5377274571298675 -1.3995365542025509 0.29503434486787256
P 0.1615487039941681 5.476457870561659 8.148124456308526 0.20083478146531217 0.01511834369867719 -0.4479468487306092
P 8.51017551152166 1.5340647653349948 7.795804838734615 0.07072641998128465 -0.09198070137437063 0.6851483417504136
P 1.6194555659254952 3.127504438699932 10.347614740630195 0.7487486922098783 0.18169034732637743 -0.5859888632394167
P 3.997529519518791 6.170230003718432 3.7215648818089675 -0.3492967057558629 -0.42823034413828825 -0.24112679621613956
P 6.782318893439651 4.035055037324923 10.42939247277965 0.6037377025824054 -0.44163170514585876 0.048572766702380865
P 6.23419436356639 7.68633291448723 10.23040734033817 -0.31951407517679165 -0.2098156448076838 -1.1426337260990773
P 2.355882604214418 8.519543392585494 5.9287339489469355 0.5447609669378811 -0.45955255129033756 -0.7123814664347538
P 6.96494308009616 4.040310409602808 1.5140934507865178 -0.1771019566247466 -0.40749593980441434 0.6669415889343997
Ni 5.278193552023361 2.8716469993080986 0.5749845216113287 0.06225489217516376 -0.6973981056520441 -0.8458502597505819
Ni 1.5571920029277428 1.2924256276538784 6.984652525923256 -0.5628620474139662 -1.2434888471449423 -0.38578374493830336
Ni 6.805527121358599 0.6745954236975723 9.174290787008916 0.1944669302657554 -0.9470054285353691 -0.6581795264710536
Ni 2.5708039331745742 1.580175257718357 9.119066183250483 1.0399055564002155 -0.5038626860616225 -0.2683581211282669
Ni 6.435329339222231 2.0418021192097138 2.5731076580087153 0.08005592491232665 -0.0938915452438383 0.5806826205351547
Ni 4.1556316351868805 6.997393204127074 10.512448052298042 -0.5009951347058405 -0.8725933321723811 -1.0108304934111298
Ni 8.044922083201557 7.035404663890407 0.5603216729990238 1.088631303740693 0.37580349379713984 -1.0014480237549654
Ni 7.456167406351154 3.803845653873377 8.195118643139987 0.7581669001999846 0.4967057633018671 0.1296908143306347
Ni 3.0364803109759446 8.371250105312772 12.307541039406502 -0.07934912865328915 0.09976934418085398 0.7622870930159453
Ni 9.10025303036667 4.771761042292981 10.327305966389217 -0.473915504880229 -0.49431000937618097 -0.34882979342177345
Ni 8.63041015022855 2.459289252921915 5.697084518056368 0.12523714943465528 0.6950661150847578 0.7176483712606478
Ni 3.5617115753099253 2.552536115153843 11.238134873440293 0.5049947427835367 0.3962476205841047 -0.024015646188307028
Ni 1.0324826762514976 3.455686239388619 12.495211823277801 -0.4624152175501133 -0.7165721074773337 -0.28959260502701095
Ni 3.232746868134635 8.30032057741159 8.049962381168756 -0.4077674482982461 0.0900678006223739 0.14416663934930654
Ni 5.5419430487571555 7.95830742879292 3.5136240190747627 0.23469621009944738 -0.10358846081662804 0.4547702994103458
Ni 3.041141754195028 8.34329944384854 3.5847461239737997 -0.0924794953876601 -0.11960746195270368 0.19740158741404712
Ni 3.401566703636562 4.068324063542973 9.164913007127437 -0.6880904550978729 0.4698382494870618 -0.12480520410355923
Ni 7.39250900995773 6.146607825243349 11.465226348750813 -1.0702378888351696 -0.06562020910297085 -0.4884152411583007
Ni 0.4268181191829876 9.0899042664633 0.14330518307129728 0.4916149790425211 -0.3981106419347724 1.0481528840106722
Ni 4.481185749736626 0.45427203997985754 1.6715899387931317 0.638465592981894 -0.248799739380365 -0.8417838029906922
Ni 5.879375744482942 5.611117786257332 0.2596963808537266 0.2412982887969973 0.7633618141373627 1.4711543756498535
Ni 7.718018129881808 8.644601455163867 11.358950842710799 0.5659244883893737 0.5192252845606219 0.43645427470997733
Ni 0.35231331832631896 4.939743977757505 5.882253600740592 -1.960201336854882 -0.5103881458849662 -0.9194316326821584
Ni 7.824520408835183 8.95062790217421 2.6038344878765898 0.232893866783386 -0.06551222277019685 -0.07283498168385522
P 8.622329115458788 1.8336029873241815 3.6445286833122834 -1.0612302860199208 -0.9672369250908955 -1.0444723498352915
P 1.7642392723962042 3.259095720925128 1.3706496842681666 0.011847386256889273 -0.9551645673073936 1.44299899626156
P 4.681726796333664 1.0720689479131702 8.081335333861206 0.4141748944864867 -0.46887588557379245 -0.47624620989593464
P 8.482917767292697 1.6124454032466038 12.093857062652184 -1.0358645535616224 0.6292854691445227 1.0670499780254914
P 6.270667007131919 7.799593386215761 1.364801282823993 -0.7563360176388328 0.22130230529104467 0.4635459887204469
P 1.7979492459457895 3.195437324531704 5.926112562055587 -0.4097520828284427 -0.024135716705939076 0.03126692843408163
P 6.741013827077506 4.001147087422404 6.0653943256997565 1.2922768151819228 0.018331194209020043 -0.23054490693523524
P 2.3909964100848082 8.435205466235598 10.22174137543474 0.49764781550016235 0.2093307347514653 -1.2740106698828833
