# total energy = -340863.8211997281 ev
CRYSTAL
PRIMVEC
9.31667632207282 0.00000000000000 0.00000000000000

0.00000000000000 9.31667632207282 0.00000000000000

0.00000000000000 0.00000000000000 13.63589754142852

PRIMCOORD
 96 1
Ni 9.525276853530208 8.948416196696682 2.4109089778430928 -1.8215584555372824 -0.15932226404382238 0.22348645742655704
Ni 0.36501061397605344 6.857465180436117 7.616793877551801 0.40805078386661986 -0.2007170249405253 -0.0675649915341675
Ni 7.06626121674757 3.3335534234268493 4.89415542678221 -2.066354730185209 -1.1670016134204806 0.6040662895664177
Ni 2.6791128016490777 4.723704035807738 8.721492702982562 -1.4264084388927305 0.443197764081398 -0.38464860289259567
Ni 9.102989175967723 2.182189228906053 4.137553720868541 -0.7985514746646183 0.08985568461156783 1.8817407814541331
Ni 8.528206137986432 0.5999725361462674 12.350332597038552 0.14216554975887774 0.44929976321407783 -2.6690267105072616
Ni 0.7334544232303528 5.54722370211633 10.319483460669343 -0.2443594442208243 0.8063043791371598 -1.9765682082486797
Ni 6.282430592190205 6.946094723670727 0.7557641366992476 1.7934305869528147 0.6997820325031884 1.1677132947755242
Ni 8.872066033046137 7.440959310914451 4.78073234413249 -0.32527257492712364 0.6052119731350868 -1.476152085974761
Ni 5.262301102389553 1.581105213257222 7.18509542508957 -0.8044652690458919 1.2793850468209191 0.679536909100907
Ni 8.434638756224086 2.932358701386612 6.647404871128036 2.391700067331797 -0.7644347354865674 0.7540809030560691
Ni 5.206373093555602 4.617251690490944 8.26564449344912 -0.5342713802604669 0.13475434489647115 1.1350798250112193
Ni 1.731876988529554 7.274740486059129 5.674223977382028 0.8096555549975798 0.3747549979279675 -0.4709847043866792
Ni 3.574929877344885 1.3310735669009488 0.6768481603495745 -0.14804360580620957 1.8330484584547526 0.007539760020470886
Ni 6.174748445579712 0.507723464104063 5.438268897500387 1.2114701281465008 -1.1682840796773297 -0.3768856711177251
Ni 5.56172976737611 4.7054526666080525 0.11398580990835268 -0.35008474887479707 0.28867009321274156 1.4149714007003824
Ni 1.977296880034452 7.6180506972072575 0.6411159110940611 -1.040440345857763 -2.6990908768824937 0.7824471129035879
Ni 0.5340207151010157 1.0492906871436927 10.178352582205504 -1.01210164681407 0.410242649311616 -1.4145170867717833
Ni 7.0650686821597395 3.3629289043286392 2.3919681745848185 0.880575321936593 -1.5418627979090092 -0.6324150159124399
Ni 7.561368037579446 7.925491703955801 6.756000983699984 0.9332762518747346 0.9350701105503638 -1.4101999474536682
Ni 3.7742042703066296 3.4382076501854293 12.803944804219812 -0.4956572674326948 0.0012133035818108137 -0.3995288624385377
Ni 2.890992657871247 8.86810644554748 12.758646191567548 2.1816319401936752 0.8480135859504879 -1.4034500303243442
Ni 7.481542753606553 9.552388382050415 0.5336452530393785 -0.9087379004137381 -0.016837640382629068 2.6100543457381113
Ni 1.4203739108412134 8.791858765338079 8.308148103161157 1.7249420551631132 0.03962249948762854 1.2240646769820596
P 7.930252525630655 0.31973808801789716 4.144562656574984 0.7559992031247045 -0.9477585046513097 -0.09053497006677956
P 1.7832118758650632 2.2189155675406407 5.241339512005494 0.5699724332065023 0.9403763532546257 -0.16288247059125496
P 7.155682677481911 4.511553995968012 12.43638887423286 1.3240155410461003 -0.3156324807341983 -1.2235892800075379
P 8.969714119101214 2.1712887174391664 2.0577389279894893 -0.29873081988285327 -0.790267123168639 -2.7757310912450515
P 7.038814287874537 5.454429604500781 2.3918042010789917 -1.8040014204901251 1.5075822794595841 1.3258417956215618
P 2.7893756676410475 5.909763533493223 6.8788059595524 1.3465584593436228 -1.1627032431554427 0.03713367162750379
P 6.216580322918449 8.00468345392891 9.911579799904915 0.11086134032895746 0.1193431525477235 0.7059102568881134
P 4.5893109777651375 6.960777805783389 13.149818964731777 -2.375519858027509 0.9647252144126354 1.1864401817610664
Ni 4.885404272576357 0.9630089463788736 11.905325272242603 -1.452976419189246 -1.2852497331318122 1.7540585129130952
Ni 5.51423335074518 1.3685545563293977 9.68833266672484 -0.7571032348221607 -1.2431774865521104 -0.8952856315635743
Ni 8.321310703674333 4.924813814033564 0.8586556482701911 0.011287657098677335 -1.0719726121380893 -2.7185847239410474
Ni 2.399603190949873 7.482483737929762 3.2387161786619942 -0.12299051949232366 0.11428065042315158 -0.3187962231741607
Ni 1.5043357991656434 2.992870515042535 13.722895187584236 0.2566434037944999 -0.576786113694226 -2.2456590937779133
Ni 1.8483727110782306 3.6240939790634847 11.14031060747885 -0.2229043596708419 0.45520455873428706 0.8399467497819535
Ni 8.648214247563327 0.7413885049100115 8.045834282217879 0.5099004076152702 0.9200877782089186 -0.014333643013852735
Ni 7.250982961067196 2.882225665315401 8.889132320999165 0.9189189547117981 -1.1194961116403492 0.36988275743733073
Ni 0.977105077874087 0.5922946630694628 0.42174451532443535 -1.7495493121888321 1.7089436228523278 -2.557414350944892
Ni 8.862646873137571 8.002512668311999 9.708391471159207 0.1539787403437219 0.8924944419716823 -1.4764027685329864
Ni 8.22943895702906 2.784204912201627 13.410577832372644 0.397052118763271 -0.3553030598509429 0.9525952639183207
Ni 5.011421638474743 6.7425160261810335 7.24667492986866 -0.8093984446814513 1.1610325403212391 0.19531565141929588
Ni 6.0073743528424295 8.287798618421007 12.210046741130308 0.9612233719069639 -0.2447571938798752 -0.5996457919012189
Ni 4.639863264277383 8.961562027192217 1.80574705290447 -0.05298143729303778 -1.4038724625737435 0.26293129368574075
Ni 3.3333205065151637 4.1557408050006 1.6810330900438777 0.7928431114259313 -1.5797122646566149 -0.005780611237519076
Ni 3.4647508614411224 8.813697054977723 10.0253988413045 -0.014257281249962542 2.0653041774335077 0.3877490961947903
Ni 0.8353099203781187 8.388800708004357 11.744107639314997 0.11060757244693854 -1.595206246527156 -0.1184635781562476
Ni 8.01173617801475 6.618865096105374 11.190517245294155 -1.1321562236065212 -0.6017947199234216 1.7327898333423062
Ni 8.716486852716615 4.6059691952888935 4.099046033693382 0.16508693444174147 1.864008911392009 -1.5481175205694693
Ni 2.9211227895668985 3.973907230385875 4.239318846254573 -0.34893700842359904 -0.17037106565881627 0.22497486904662545
Ni 8.833373875676923 3.284109821414227 11.085944073620842 0.0067614870935496455 1.7464303069438762 -0.037497739835141874
Ni 8.827811819825872 6.558213532302441 2.2759541242095076 1.6261710703397865 1.5327083851032506 1.174260866086055
Ni 0.8963341512397496 4.419551815852195 5.790402001263166 1.684026547895674 0.061913449675344984 1.0914944842211007
Ni 4.063095774208531 8.780259503136136 4.3988175523739415 0.47820719027704733 0.5610553332225305 -1.5745412619786368
P 1.8280064563204406 5.419100767336307 0.658534369417558 0.4328575584976545 -0.2184938893079721 -0.010640767543297803
P 1.7490196732296153 1.2092859721187748 11.797710205702677 0.7272871799019927 0.4345976811172128 2.378091989630059
P 0.7081214482477786 3.429170474012028 8.335855898975277 0.06319668726314277 -0.0326003025335245 0.8417377802441052
P 1.9220210385532221 7.323746204277782 9.87633108615806 -0.46918596061504353 -0.38802111890925434 0.449867977012722
P 8.488982930058574 5.76832706804125 6.075719628072163 -0.029862591887387276 -0.4227340969104074 0.8693306022607092
P 1.4526189280949697 5.566537172433302 3.4458053998446143 -0.7791036503526518 -0.5777104252807083 0.8523579789621127
P 4.9395062128226925 2.65229940677583 2.4659565607508704 -0.6393863050239504 -0.7083021541590576 -0.8207943452232186
P 8.0504469687369 7.68634193571348 13.201744529355322 0.3501798796917646 0.4436201963307973 -0.5449872240160744
Ni 4.408381120767753 6.784459703637379 9.639502102023775 0.08439260461446756 -1.4473163926899912 -0.9236387287849706
Ni 0.9771423445799566 3.8938397128248283 2.0239901991538902 -0.8848245841312503 1.4996385991324754 1.880014799901962
Ni 1.5409969210649592 1.6042012542199675 7.447368252656393 -4.340604491116621 2.5539693298190853 0.5785437198152811
Ni 1.850729830224489 1.8827326138900926 3.1030532576168848 1.3991814848559774 -0.26128578766251775 -1.8929178811168754
Ni 6.860101799876399 4.730756759893578 10.19277945571531 0.22825096869473593 0.6303900150626112 0.43535204278473405
Ni 4.679496405969808 2.1458076073007604 4.784386344643013 -0.9038384062295918 0.6163049977244547 -0.4962933583547969
Ni 6.561232135477886 6.289147915923219 5.3556765606166685 -0.005097212017249286 -0.01155839426156074 -1.4071267078449832
Ni 5.36237152432616 4.32287266414973 3.7626348214693817 -0.9233476799071131 2.021744547675002 -1.7981624452108451
Ni 3.071503264427599 2.094183902994761 10.259621951030848 1.6937316909985798 -1.0084522229869408 0.5481723066122753
Ni 5.143485527400487 5.7699202197171795 11.597112844682558 0.5693797939278259 -1.1663794064554491 -0.723650868700986
Ni 3.0050846778913285 0.6082606515316884 6.258904120774665 -0.2611952848312405 0.2610847273953052 -1.5625097847353995
Ni 0.7366686766116143 5.114436130175056 12.523999173061933 -1.750029337149044 -0.13899717933322514 1.3230014979592892
Ni 8.570131182089842 5.001760244978024 8.268440428056993 -0.020028122295468735 -1.717329790033494 0.062298858039221736
Ni 6.62553583645605 9.366334352995947 8.193006093703197 -1.1904762995036529 -1.4912609165917414 0.6750554762907858
Ni 6.307017301387739 0.9541674204112877 2.8860920860493824 -0.4965229578670997 0.813800687514205 -0.2417806277500546
Ni 5.507301743453415 2.892278359223752 11.22913486925163 0.9528336051813721 3.58487936758891 0.5658031323201611
Ni 5.921996329694951 2.3469453355559895 13.812755463780192 -0.9422429741497191 -0.7786681054771298 0.3721833805460493
Ni 4.756815503972964 4.9631612543734835 5.84978649706653 -1.5423417944279565 -1.0874205712620433 0.3354186622221901
Ni 6.8291331672986795 7.950469713564966 3.2788878242542356 -0.47236718655650256 -0.9445304846323153 -0.2574378746713373
Ni 1.1565628999896191 0.034125122564882725 4.465728991095338 0.40468263872533533 0.2564639407938422 1.3417954907373408
Ni 3.28742655823663 3.181169863125653 6.976807147645593 0.09705863011791026 0.5053089315898459 -1.082261138548291
Ni 4.086499265494701 6.356423636694491 1.6633751931351681 -0.021967762520342812 0.6640370136930951 0.19276434575235188
Ni 7.004063084651044 6.578440036913219 8.44442499318547 -0.8803048418840258 0.019993412402791372 1.7151510372146206
Ni 2.628187848078135 6.36825581580812 12.031484251623295 0.8564959123898862 0.5689812729378265 -0.3861832943695671
P 4.475694108244895 8.62541634024754 6.419821756720022 2.8310753723433115 -1.6378449071332892 1.0871868579846824
P 0.3392416185348038 9.004418738942372 6.482778266280997 -0.14758466389192004 -1.1587951663502882 -0.22075466031769078
P 7.597712392478869 1.7086691474491993 10.71135218956569 -1.1494736318390462 -1.5827705918669643 -0.22170648270799884
P 4.5979382201739725 6.700581665401155 3.8622999679796557 0.397585879779554 -0.32607527333407715 -0.1941889940140204
P 2.2539462710581573 9.29754933063695 1.8120609645464434 3.3113188763240973 0.13983690162570112 3.024535458611107
P 3.3503513910976155 1.352362172629014 8.36130067407546 2.25042771881115 -1.2248997712888454 0.2665856026088764
P 6.485124205415494 3.4765923572312185 7.080140269681092 -1.7374152479294596 0.07040606052738843 -2.166107876416147
P 3.77286266889532 4.445312426284623 10.473365142546504 1.3980643405323987 -0.4259178939550278 1.4749891760149112
