# total energy = -381170.73969217064 ev
CRYSTAL
PRIMVEC
9.19837654480962 0.00000000000000 0.00000000000000

0.00000000000000 9.19837654480962 0.00000000000000

0.00000000000000 0.00000000000000 13.46275385947458

PRIMCOORD
 96 1
Ni 5.756389853268507 3.2114566975994023 10.94372399909702 0.047891681474956226 0.5068089131741401 0.952869857735946
Ni 1.5361380332303098 3.9545935153710126 4.572234126360801 0.47803286948271223 -0.10748676742976972 -0.029012070961633902
Ni 4.504950763556567 -0.24804341413577483 12.148842825493544 0.4177440998949838 1.3064222534443695 -0.1677058601218273
Ni 6.002823551559374 4.471321499962397 4.9177416956363755 -1.2559630683525531 0.18538990766515168 1.6451643236128377
Ni 1.0138542293799317 8.620184721873036 9.32490912039704 -1.1117133823711371 0.7974515567322202 -1.1487539800642022
Ni 8.982453572363408 0.2583961866125906 11.95530163035344 1.042324193144037 -0.3923130614163889 -0.2442972235243212
Ni 4.430480709383044 8.1448494304364 6.094359353201789 0.8143619593343137 -0.5168912371108065 0.9038792867698563
Ni 8.193306476556229 7.014819708935471 6.5212771515365 0.49751077570166574 1.488758976105494 0.1981495213236652
Ni 2.0321052826105235 1.0124928696939532 1.6521893472718436 -2.216433878364209 -1.0744295583190142 -0.7109683881373111
Ni 6.079096487479195 1.2587058069546624 1.8343539906577697 0.027368107600307702 0.2948391981379309 0.3344233881884563
Ni 7.882171399676358 6.3127628395258855 8.793668857585597 -0.410936332944531 0.32635912312308313 -0.2614616511187497
Ni 6.028146681393825 7.393461669162611 7.7875569015008566 -0.4923544283117069 -0.7318732566107783 -0.6565252786970821
Ni 5.820530130905856 1.873626458085371 4.609821451258191 0.0831646457446374 0.7174370265807902 0.5918373516003936
Ni 8.892410667187441 1.4768820933852211 6.098264063922721 0.22029983216845928 -1.1957056662233925 -4.004636384148864
Ni 3.3389921843973145 3.9512637031661195 10.58787653507139 0.6306599808945461 1.3940454491809926 -1.18175254647741
Ni 1.3117436444502821 2.4146749494992354 11.255602304778424 -0.5325058037196119 0.3875274671022874 -0.5207928861580579
Ni 7.118172664554753 -0.31178448224358707 5.775238246055928 -0.9538468769372346 1.2617596204296722 0.11190700798465242
Ni 6.02851461644409 6.7774096177523395 5.301942234635385 1.6239907748590159 -0.54904930990059 -0.40667112991027377
Ni 6.7504767720729815 5.747715784458523 3.1850049269982654 0.6307067749720816 0.7122045745372573 0.8991564273728901
Ni 2.829052601483309 -0.021684252187335 7.733099754548842 0.08198656627613622 1.825726985092675 0.07002425170793747
Ni 6.735345443130856 1.0663769578051812 12.87366383646299 -0.09462610941701768 -0.0025387072614536923 2.310608502066105
Ni 8.987972598117375 4.179199466804942 1.133897638716835 1.48068082708305 1.5227715856055128 -1.6783001869348582
Ni 6.860820493647289 9.150737865978106 11.237521976408429 -0.6471649205281048 -2.951560608915278 -4.033213938676241
Ni 2.0803047741951657 3.177956211272824 2.4653662812117934 1.191476201523077 1.5419363314594219 -0.7693391147667202
P 4.351107920664747 3.691823500848403 12.71528803375191 0.23778281944457114 -2.0016907143479203 -4.023862836478645
Ni 4.302558890782354 4.360554653080286 1.0780975288313548 -2.2866579047877784 1.0807932957535127 0.606264068548685
P 6.434908077837425 6.763961591665173 11.416455230215409 1.2007709965614417 0.6322211547340788 0.1817728797378547
Ni 2.474694354573623 2.2050899464923517 9.099260073095609 2.2737247416658777 -1.4075193152977115 -0.9002763999099462
P 0.5762212425438942 8.802928862963128 6.825252212338224 -0.10329715482845436 -0.6390050104251318 1.2482392173457342
P 8.856950926718206 3.573771539971056 7.121379218517808 0.37355866362702117 0.22240633698850082 0.14608673919015489
P 7.245137852024756 3.638454521807546 2.1123601956118296 -0.5001559266339967 -1.3063829155660018 0.552192740625578
Ni 1.8230629838027796 5.688349464098355 10.442438248565235 -1.001962501497539 -0.01731792245315727 -0.8708601515313583
Ni 1.4785653962401808 6.5819257255468395 4.428397277160921 -1.1089574168925547 -1.3804003475937323 -1.4259957768353442
Ni 5.493757814389747 1.9639729096778051 8.904534127093655 -0.616019605273552 -1.359349183350388 1.6180648962928843
Ni 3.830590205055638 3.394568773739759 4.9106065151741225 -0.36846556537482994 0.3237530529588037 -0.4066706156896415
Ni 1.0034508658337045 3.7945969587635187 9.26028776768147 0.2931245294396693 0.45483869075443606 -2.077055147321849
Ni 6.570988856177729 7.745621504146967 1.8630299286377547 -0.001994661832525597 0.7025693654403384 0.22794783563202034
Ni 5.092101516768568 8.477563898014282 9.601137279220696 -0.5569667649754537 0.47245794649809597 0.609581305847376
Ni 9.226891223006591 5.247443694990215 5.75445175539124 -0.44429485380031863 -0.9911654108820349 -0.20010150284371345
Ni 2.939359529552589 5.304703587187619 12.423738139597617 -0.42975346565103406 -0.38005558420527447 1.6218086796060325
Ni -0.018279933134763234 2.33119968497049 2.5796248317209143 -1.1020527193529215 -0.8676958948707637 -0.31996787488475864
Ni 2.581846239586886 7.7773007119747355 2.522866251029495 0.023689116086823718 2.0447986012809882 -0.5225700326631387
Ni 8.140820541636005 2.892962919714243 11.314541820480287 -0.8634941980845904 -2.189777452118945 -0.22969310045790117
Ni 7.589994176261364 4.953573970344004 12.475435773672649 0.03720052030969723 0.6085654629883519 -0.2752756741837066
Ni 8.953009569965996 6.67887661129152 1.7429018942392909 0.721647465117712 0.1753186394720787 1.8225766123891516
Ni 0.49199723018786035 1.7084696123979188 8.019331147551563 -0.02743984137850758 -0.5193587248146927 3.271093453145147
Ni 4.985161194409207 3.0019360832263144 6.953000181627665 -2.101453630770871 1.576775550625794 -0.8063655713923985
Ni 0.8814776371581644 6.227788239667313 8.002745555323267 -0.1984806794108388 0.5890536182076693 0.9601221684229851
Ni 7.034761788659804 2.2503643544273917 7.190133401685474 1.2129292291905305 -0.4487850283611884 -0.19810298435644594
Ni 3.6665003710139525 1.8820981626177096 11.162695945073777 1.1857341568329771 -1.8623400083300183 0.900089994930753
Ni 1.9396340061028121 7.745879058682151 11.253327546330164 0.24618595590660178 1.192017418738528 0.655143310747891
Ni 3.0923469234525447 7.127389437563878 8.885027130566261 0.34910233035686977 -0.8304735201841956 0.3069791759345745
Ni 8.040300685903759 0.8564571339025565 3.884395187131059 -1.1763969385924513 -0.08611730061505814 -0.07755758397050513
Ni 3.038913555777891 7.5121759131304335 -0.15073563139233737 -1.0395813402915774 0.763540248696756 1.7640999563094975
Ni 7.813634298188349 7.228074864068743 13.40805454314232 -0.794088296686942 0.832508034115721 -2.4093440056658055
Ni 6.316616959177407 5.262096708366997 1.026556267152686 1.6219894281582712 0.753654871262244 -0.6382784166717523
P 2.660805101373635 8.409293549437713 4.601851978069463 0.08373517353612675 0.6965025904209683 -0.6130834054633634
Ni 7.121723237789805 3.818558728911991 9.050847179181813 0.7793695024195287 -1.545375696158274 -0.13770417155341447
P 2.961867956252516 9.342974731365022 10.009691439196708 0.9289475425923936 -0.4726932024373537 0.2801998509582013
Ni -0.33319186330559813 4.5640135375002675 3.3414555095588354 0.28658158611482903 1.4524688834252084 0.9859843809017277
P 8.237283913439086 1.0509880743278706 9.836951452123307 0.615393798764095 0.2617177329936137 0.9456931374818487
P 3.419376794503839 4.175667290322403 8.387551347479961 0.7279854915205979 -0.5026293278751538 0.9430338454821307
P 0.5323146331582125 3.9795211150264285 12.556938906331977 -1.0487509226059872 1.5399894921456962 -1.2392809797111817
Ni 1.9678822195868646 4.5106445584594095 6.937006964830296 -0.41537739943502017 -0.10639070615211353 -0.7569283998071932
Ni 2.248938606107617 3.188359574819051 13.475677326030423 -0.8391728477304063 0.3050243662010489 0.2813771590957541
Ni 9.109069221535659 2.076505844801185 13.498699022125466 0.5584891151572511 0.09414711289807012 -0.10031467516136272
Ni 0.5355653393272989 8.597225574736534 3.404864516283784 0.5238332156462785 0.08432652726322251 -0.7382999860727284
Ni 7.087762832650398 5.001341138244586 7.078459594904461 -0.9965454442470257 -0.44813711036454434 -1.1308390474569945
Ni 4.222312256319678 6.754487264120864 11.35763621324251 -0.09703934684420061 0.029530405358949137 -2.9449760137192253
Ni 5.343520734990518 6.978283758444212 -0.15717909396009344 0.38512579963933025 0.4671537606763632 1.170095936075088
Ni 6.2857932003415025 3.0043736529343166 13.475677326030423 -0.015784773638082495 2.264358469959629 0.8291074930746044
Ni 3.8618462875756028 1.7274826561203338 0.45519728629803635 2.8978937155194417 -0.8804382821380966 -0.281188954344348
Ni 5.686482193718263 8.98361256777174 3.733881236606506 -0.5093440208911679 -1.2500636721489826 0.21515788295620367
Ni 2.128780217067506 2.232289545083151 6.2309396033728275 -0.6151482584121921 0.3382173080132498 1.658359482146873
Ni 3.8831497269859137 1.4464722614808647 2.8622890944113215 0.9297013900392826 -0.1842750773344181 1.2059036898023168
Ni 2.1316593088358253 0.6925797823523989 12.547528967421464 -0.16425492545874937 -1.1396430189018694 0.9787760360787466
Ni 0.82234587539254 6.305827263828401 13.056420855279843 -0.22469179058856784 -0.11111048022528607 -0.8065872004849013
Ni 8.12821876616445 0.34165252978642896 1.0993310605821158 1.1951325673287416 -1.415770242452594 0.9030920149818704
Ni 8.801917041574901 7.227063042680515 10.60357448399092 -0.39438382790248855 0.1004224043838206 1.6336491238843864
Ni 2.342182546220884 7.300328109564423 6.437067856582477 -1.192545523327856 -0.7622212727750164 0.956316678633966
Ni 4.2382806375011555 5.554329122039531 6.968953845407132 0.939207272647189 0.38098452377744707 0.10834063078963277
Ni 3.720182094847535 0.9444708772763142 5.409886099844342 0.5424449172101948 0.672568448202874 -1.0710912379744006
Ni 8.728293238016986 4.821485287299069 10.345062397837497 -0.3935916710184964 2.1872390019678076 1.4070889126285122
Ni 3.8393102657469056 6.196688529543711 4.691150734606269 -0.19931680215888897 0.3364051945051754 0.38535771314447825
Ni 7.760955197366737 3.1954515229128986 4.917175995496594 1.5964863987911602 -0.366634168593046 0.14533032064010457
Ni 4.504601225258816 6.584657643295054 2.36685995004212 1.081125225171635 -0.2342166993598676 -0.6394485257204536
Ni 5.234032462408076 3.6437527865313535 2.9001063787151273 1.049815873535392 -1.8469550412335158 1.1983608444580525
Ni 1.6473831956777643 1.465834843501031 4.103541902256691 0.0027189415930598333 -0.574356678317127 0.054463164044886846
P 3.435915475013226 4.822156768765802 3.1746116816659202 -1.734446909329755 -0.4356454056554368 -0.27526693243295813
Ni 7.782948514996295 8.935330290800788 8.187643036295034 0.6108807413850899 0.36027660180613436 0.22221427558235277
P 0.9864614648877439 8.543185114228946 0.6434199802865667 -0.42062887764194656 -0.6585659632761949 -0.261884083368149
Ni 5.883824157927597 5.5257497670102405 9.781753835882634 -1.3089175090623975 0.6632888226731609 0.07588379581250802
P 7.919102880346652 7.5772544251459575 3.841542711664385 -1.1249784749111593 0.029983947956599973 0.22070838046078764
P 5.364106701052814 0.7603957311418899 6.986603689768317 0.0028580382740854005 -0.507320562703236 0.09215013707269935
P 4.587736149866068 8.764700411240653 1.186621811582104 -0.015959351542733806 0.20315520206837273 0.24763580097925095
Ni 2.3069619635343197 5.837942657159621 1.3931124808162638 -0.6354280917071508 -1.9107477102094448 0.5379375162581446
