# total energy = -381169.0815614606 ev
CRYSTAL
PRIMVEC
9.26362678524896 0.00000000000000 0.00000000000000
0.00000000000000 9.26362678524896 0.00000000000000
0.00000000000000 0.00000000000000 13.55825418195191
PRIMCOORD
 96 1
Ni 4.82298696074865 6.331448187529358 6.390506588624287 0.4683704066922837 -0.27687078658496833 0.5729911654281681
Ni 6.730293647216305 4.121081944363096 8.329147493356746 0.35372208851706827 0.8871228932471239 0.6827592726929467
Ni 3.4918778725280752 9.062606275966562 13.318395252080624 -0.5328174214227598 0.05349488659434658 0.5500085884900656
Ni 0.44353875442172 8.962040341455786 9.793493475726326 1.4684233498719357 -0.00980490190556376 -1.6563938737800699
Ni 6.484057178422002 7.303424984932523 4.573972330222604 -1.4234791810610776 -0.34859659436504487 0.7532290965787352
Ni 3.5310352237787255 2.1493096777314302 5.209840655308091 0.2792616554146481 0.640813267278464 0.19413860039205919
Ni 5.536017593138941 0.19690672875530787 4.85378759409932 0.2716203368193064 0.9742557796108898 -0.7659524576826744
Ni 8.840445973697086 4.958847314058805 9.22812783650867 -0.42621022838446593 -0.5851455414025148 0.6933951551402381
Ni 8.703714839450672 7.584363000399391 11.175242180841074 -2.4862696124792665 0.4391505905952179 1.1156309722579885
Ni 1.2136833526035318 3.700772660960096 12.080757086465722 -0.22349648472888606 0.2431721087809425 -0.011303340827961179
Ni 7.993630040440486 1.4000119457087055 3.725048921827722 0.44088994188382774 0.979070941611346 0.8531151688431113
Ni 8.040976437942751 2.598438104673766 12.37375078608627 0.6981699508210621 0.030069051471238534 0.6362863259423881
Ni 7.121783787079969 8.790922623854177 2.870716481638362 -1.2222726180786432 -0.2889655129659733 -0.4761485079758058
Ni 4.076551689463197 9.014917124265985 6.593650517426215 -0.4382974985663032 -0.5958791257699351 0.6516959756292389
Ni 6.1227386716369665 3.737002706084603 11.413704613872532 -0.11140178621345977 -3.142544979949072 -2.133235036947526
Ni 1.8129937001693672 4.485031321210867 9.604166246567251 0.19164874409066995 -1.9583740538381564 0.657830627772067
Ni 7.000754500567138 6.838455755851883 12.658759239248793 0.6233444210697393 -0.9179072256178321 -0.12502246232068792
Ni 4.3889767730400635 6.467206640942718 2.9977161757407473 1.9176416091158004 -0.3573378308927846 -1.2311560366112022
Ni 3.089326962048543 2.350108056181651 9.268138367804312 0.4601619027395623 -0.38401122641891283 -0.30958344632664103
Ni 2.3885798990356726 7.476728918501757 1.3603265677201124 0.22753260247147267 -1.141447933321092 -0.6207442644427309
Ni 3.019256887560746 0.25279326397178403 3.98981449731035 -0.2930409685869276 -0.6429385411515831 -0.030557046851250602
Ni 6.7811139048366185 3.236285140482493 2.567147425455776 0.35463483013932473 0.43058598885465843 -0.24770702053681856
Ni 3.935679713956069 7.772321991853302 8.936936838698717 -0.8762550972946844 0.8614864236259422 -0.3261277238385674
Ni 2.7195507638294303 5.757761032194253 5.501871864085263 -0.5722730563152209 -0.6278770188327703 2.140747286164171
P 4.103230935169814 7.686105415536814 4.740779682189738 0.23372021933942327 0.5307152874780925 0.4566420625117619
Ni 8.061884444039915 6.037328030867865 3.5985374208672596 -2.0238147999404696 -1.0195989836323796 -1.6364449414619686
P 7.571468031641193 0.38734466678945917 5.69395131682053 0.7798328152091925 -0.1636733419236665 0.1430852333596697
Ni 7.896695447706443 2.7308987068817245 9.860064678303223 -0.08536628138164654 -0.31305649247690603 -0.004904636390468973
P 6.36979960323262 1.7078978520646544 1.1934747503434673 -0.12857187023484307 -1.6016304048859449 -0.7066414786271831
P 4.639409664856971 7.226888898811665 0.5070714873486969 1.388575427205357 0.7692648098853591 1.6300578069887024
P 7.780992746707954 4.819124028297379 11.934842918792585 1.935545743089731 0.5774921386223152 1.0937933075576065
Ni 8.954805448783263 8.067322193078034 6.732377963287135 -1.0009592570440051 0.5352247453126718 -0.3309809381658106
Ni 2.147447688708156 0.4612980537078853 1.6283603508018014 -1.0577695811648298 0.5961172099226701 0.885765607888281
Ni 1.8021367293470911 4.472182670587576 3.713823258651583 0.3518410694442715 2.5264904076725263 0.22154218921599264
Ni 5.990852414301859 2.755206464081087 4.7649132832018495 1.111335430206428 -1.1088630574065355 -0.6493251614042173
Ni 3.803135739105277 5.295543100327108 0.8830061447850863 0.8789694109020538 -1.8354480690351809 1.631290393844223
Ni 2.3322941014962955 6.983209191064245 3.6495021910684837 -2.4418774595171366 0.607785647399534 -0.3727917035540096
Ni 5.008954272401546 1.4689240668238188 12.793759001612372 -0.42702218276280013 1.5281631889347294 0.5447419407744877
Ni 5.354441240675259 2.423003536898794 9.642671438478406 1.1378175356573563 -1.4001505336374662 -1.0649375596681787
Ni 5.265306621859609 3.608636627002452 6.68523629194116 -0.8204374761044321 1.1974275340105054 0.26311667022366947
Ni 8.863595777523765 8.123237445538154 4.407340987168118 -0.13736118639169892 -0.35696862047882394 -1.2151802300082362
Ni 1.779190725314004 7.863679881144504 5.863945356469287 1.2659389486183423 0.47795856460135105 -1.7179468547922028
Ni 0.9772200102746732 2.005371441693437 9.900264187589288 -1.2852114236947092 0.6065931697533296 -0.20894609771853695
Ni 1.26681025334223 6.56470631492263 10.615204979863156 1.542630272202653 -0.6787941173976115 -0.05755928647170733
Ni 7.60928215697953 0.474948008065073 8.998857700530918 -0.16647661570041652 -0.2200020984223824 0.29884729085605954
Ni 4.4887089811225085 4.443678490365611 9.036996979176305 -0.6468296486758731 1.4245680432498822 0.3957017753829637
Ni 5.86661791285344 8.203256655404044 9.871615494786411 2.183492647551497 0.6675486263907793 -0.6402023731673426
Ni 6.340285687669676 5.3950715086159615 1.7384668947407886 -0.5716865876841315 0.7817742552062795 0.2645999396374153
Ni 1.610852095806834 2.336416415503047 3.500673686346976 0.06817125765959872 -2.3872721134674304 -0.7150070769830589
Ni 6.550644129164767 1.1030108010559774 11.221353736866709 1.1766424789443541 -1.4630209479094418 -0.5224946993405131
Ni 8.500776563167733 0.3207845805649397 1.1307322047980095 0.02840631905683495 -0.6978565333457014 -0.554721934805335
Ni 0.7139736696170047 5.929879221509861 7.456104379390225 -0.46648990184011924 -0.07849269419026482 -1.1037974699581699
Ni 4.6557321755983105 8.78980172498942 2.3100558385645917 -0.09026346157294778 -0.014964334619316165 -0.5408310357558558
Ni 5.941921936585764 3.651045511323596 0.1459790130620095 0.47369464711867454 -0.8346811305076399 1.3359251479994927
Ni 8.908292777709331 3.7775496013824728 3.3843030778431227 -0.25612918316224276 0.864213335638802 1.5693216654509101
Ni 8.236624239791277 7.195827957542814 8.635102859849757 -0.9272051059799902 -0.24828860407190143 1.7908178319203156
P 3.322742571100499 3.528098654025601 2.5150700936540775 -0.4053177012061729 0.7403159880614928 -0.7715530916989035
Ni 9.12944334463783 2.432017045951759 1.685521561090927 0.5283676131815223 -1.3222245105839487 -0.3794655160297594
P 0.3944665432128089 3.165974211693179 7.950532868634619 0.9089469311007508 0.5979650617646862 1.4084803936594001
Ni 3.705969555696698 3.583439561612869 12.6053803678562 -0.3849715334496531 1.3044926405218242 -1.0705042551226789
P 8.54866025103492 0.2540577490547539 12.411456526988925 -0.5643090642731378 0.3072162316460451 -0.2021524718354712
P 1.722793764250849 8.131333855519953 7.8583783074230125 0.20256204856906407 0.47892967026536865 2.610399387782356
P 4.159896541415431 0.7422425537136413 10.645168181334704 2.573881238251664 -0.5577136704438073 -1.0301042540390775
Ni 6.114484779996482 8.809153441753699 13.733833720416769 0.8586330133375472 0.6279335831023185 0.6874301958060548
Ni 3.173625967579868 2.244095109005773 0.7167518313487459 0.27357926031789015 -0.3448556392653738 0.33715672795921936
Ni 8.044116807489466 3.2326630623327404 6.595820058865275 0.14035883556744214 1.029359148342937 -1.3369283924530266
Ni 7.660213578123622 5.944562070275481 6.367146500465129 -1.179743486467181 -0.6171604037462145 0.3985410446039717
Ni 8.536608272332037 4.359425802969192 0.8726948015920185 -1.3442023004066204 1.485027276977204 -1.4602094466025757
Ni 1.7119831115634803 4.164426455009368 1.0713403131317472 -0.11039699909802922 -0.49066855596885167 -0.502371960448709
Ni 2.644552439787495 8.575200542336816 10.950215712383532 -0.09139011897822324 -0.6860626260345668 -0.32996329553457365
Ni 0.6111464837600524 5.89710450924944 2.0920789902399437 -0.34590670623770753 1.2365594670149607 0.6469119239770342
Ni 4.920199462292136 7.808765100398383 11.839759198729437 0.20652720386439916 0.2932574554731079 -0.39019832906623125
Ni 4.166158753254901 4.530376775285135 4.304949191779295 0.30121939063266184 -1.604849940264507 -0.0035558356720583923
Ni 2.9164491553204552 3.821033066433466 7.079469391754037 -0.03432602697537959 0.21371755096525127 0.8984439746868979
Ni 0.3518242154917323 5.931092756644433 5.058896338184017 1.6302033314276312 -0.6586011873895045 0.791552674749282
Ni 6.697778316511365 5.874760640970148 10.317465524140006 0.12137098161102969 0.6022369496671628 -0.43560812465959814
Ni 6.348697060968844 8.33881130902381 7.304726524523418 0.33453188874186257 0.17181602563545892 -0.6845533884788919
Ni 2.718124165274285 1.648499475859505 11.761446348953534 -0.9024314985797361 0.8043349141156149 0.015291378941431729
Ni 0.965186558825751 1.538512432708579 13.251837944944198 -0.5074583738326809 0.12246678577836972 0.0833227685890565
Ni 0.7365213376898889 0.7154141636126224 5.046422864453475 0.6025951043375299 0.9165224294551635 -0.022380424577729197
Ni 4.701420383870893 1.9698639594734846 2.774330295621622 0.13275068420288105 -0.9719320165737195 0.48200290987405364
Ni 0.5526503848228977 6.28248991893232 13.278723769532503 -0.4573293183867736 -1.334681762510695 -0.365632466801409
Ni 7.728764417786457 7.2210620774403225 1.2669593977366316 1.261623351962124 -0.45088947629870085 0.2746172146641012
Ni 1.148847227360263 8.383443463820505 12.771468862369572 0.021126240455653936 0.6814829770836843 0.1798728345016644
Ni 2.151180930381686 1.083927729474161 7.019081660187267 1.267308061051727 -0.3243698606071962 0.053936859227771625
Ni 1.1674763812199878 3.219008476162062 5.762326147570718 -0.9056170953965694 -0.088068510804158 -0.46056736570809714
Ni 5.145583506751163 5.3520049067791335 12.297390708878059 -1.2639514858746683 2.921992151229542 0.44882488046018837
Ni 6.530208568043657 1.6407458200760194 7.186539318768499 -1.1456128633320593 -0.91633139649028 0.2800982923833305
P 6.239969871087397 4.841310414917986 4.450808704053244 1.7205254141526563 1.5207797519864648 -0.15641820302315
Ni 2.7433490215448124 5.998328161275901 8.305665125321433 1.3089861575168036 0.6160774550946809 -0.9695612023486979
P 0.7406510625982258 8.379784331162828 2.5567888377651022 -0.6035155592692704 -0.46971766474879756 0.020917723989273652
Ni 9.293733769154098 1.0891616787186882 7.287574919167237 -2.5437368534577995 0.8055502745799545 0.9667399308498189
P 4.164157809826905 1.8446938316999384 7.383785096271329 0.7013915430821533 0.3383031828588367 0.2583688711260389
P 6.12681466750881 6.381629254887951 8.203394683446065 0.1597732355383119 -0.4406526290620411 0.50286998313105
P 3.4881909489894527 5.640557623624766 10.723983119693 -0.48037437313169523 0.017751153335833946 -0.23582955237294223
Ni 3.1261684065538264 6.6216961481125995 12.779563419625976 -3.158419485087483 -0.08540484792906582 -2.588653254354516
