# total energy = -340859.8483087036 ev
CRYSTAL
PRIMVEC
9.37047119268525 0.00000000000000 0.00000000000000

0.00000000000000 9.37047119268525 0.00000000000000

0.00000000000000 0.00000000000000 13.71463177223813

PRIMCOORD
 96 1
Ni 3.3993913706258017 6.648255494547063 13.06956380291161 1.15288034352775 -1.4048685079384255 1.1807354180668053
Ni 1.079478263219808 2.0363158015349216 4.404577728339658 0.6217539366541679 -0.2560919021664041 -0.510345979793121
Ni 0.041454963858371795 2.9191172482033356 8.44012100705339 0.17281438499298624 -0.4239435438374764 -1.0509728699579706
Ni 7.071013665757349 2.473026604116164 5.436712623702767 0.7926734186172865 0.4561211570112854 -1.1061831965815272
Ni 4.359143125432767 6.180706471789984 9.92355090611645 -0.9366194573153548 -0.6217595930811227 -0.5451373764406934
Ni 3.3992508135602777 5.324470310505494 7.872857053825588 -1.2716763653227519 2.237165454484605 -0.2835497412670407
Ni 1.0270879596637148 5.895291294538143 8.291564370407489 -0.11096289890382825 0.7601121968518135 1.5153855775540868
Ni 2.834726786063079 8.682903352237773 7.422358540163602 -0.8797615677860462 -1.4769972075838755 -0.28358702226287935
Ni 8.379346943062377 6.091527698950896 6.808203812830086 -1.1034861093653383 0.003836600137270812 0.06886725528535881
Ni 7.559046538196706 7.163612660524172 8.818452838040137 -0.8896795982307064 -0.7953180553289851 -0.9806951074783304
Ni 8.196351014221928 7.6397450347492155 2.0288878291455608 0.4657332261797527 -1.6184379633615869 1.0624279058724475
Ni 2.8107664916268544 0.7557256778229042 12.003717700953366 -0.15644571382697572 0.5034685359469975 1.2556463084430824
Ni 8.377913260994038 4.970772510822379 9.169712441159975 -0.12212997126424127 0.40756973046514317 -1.2746328768479145
Ni 7.104531840649165 9.355684431601105 9.663260772850473 -1.171823717399472 2.6571597838663465 -1.009974573168738
Ni 4.56521852443216 3.3439650344544027 11.228867828795346 0.5207131819600581 -0.3957570541009313 0.40387068434700124
Ni 5.265736198058777 1.906459813933358 9.324194026641239 0.33585549264929254 0.8771737524542119 1.4267259701331494
Ni 0.95181496584041 7.339327733370508 6.183145605400367 0.2167303696496461 0.7130442968297332 -0.5195569568684278
Ni 3.9927764489104747 6.1448175677263395 5.548268081373182 -0.6815097165565618 0.1716887560289753 0.4094816027758755
Ni 3.2044293502737937 7.9597278796487805 11.194060277089129 -0.678141057194645 -1.2598240939698562 1.6350388051430613
Ni 7.327061786785832 3.5656797496110335 11.854296169830944 -0.8901210566434993 -1.0883456541794738 0.9239575455769701
Ni 8.932036065642505 4.950588516213217 4.820323039027429 0.30782481176432147 -1.263218978584018 0.040444481168291635
Ni 0.023198475141087492 1.1464583901772316 2.2947187219344736 1.246720980928995 -2.959178787582168 -0.9922856405294072
Ni 2.330792224277505 1.689983192085233 7.915811293049543 -0.787941817469572 1.100594903860472 0.307877776489444
Ni 7.099724789008263 0.23250668664751853 1.1642641592377376 -1.3721447924531596 0.11537876858333677 -0.16158380638448946
P 5.578794264863556 5.790529428368026 7.108280029063122 -1.1238477037408259 0.6295364088130643 0.27010287173351544
P 0.09626753417698523 4.073165719918832 12.22998177979744 0.1480394920411515 -0.4376781198147494 2.297295587007282
P 8.804906885112096 5.494291357070881 2.768038080754841 1.9098542518608979 -0.5671046247404039 -1.8261365618262677
P 8.224200054137635 0.7786242978908751 13.237253067316558 1.451722749287803 0.6011378030657131 -0.8918825194192962
P 3.0884510302749084 1.5213896772254172 0.6231850502698436 -1.751664558759622 -0.40583089339716555 -2.182419983312609
P 5.31686148802516 1.6886151033141386 6.193555261673031 -0.32392865930471954 4.3700006848905515 0.09113557976525596
P 5.482793789111066 5.0011890598016455 12.196284628908856 0.5348593915534531 1.0021769315011901 0.2570820339938153
P 6.005094474125032 2.877662284344964 0.8201457920935946 1.1938930384946858 -0.3003696410378569 0.7237997355740244
Ni 9.21362809071211 5.556970437823288 0.24922735516218367 -0.8408306950488035 0.03775407882032208 0.1180653142765644
Ni 6.416964157992771 4.862777832145224 5.301500474857658 -0.044790673952129316 0.48875411255495826 -0.12043484295000548
Ni 4.791506029453819 1.2782915471671579 1.8020755777459474 0.3129559623432997 -1.4366373157095904 0.3850224412922466
Ni 2.069899569723982 6.640749747248113 3.6950644025195416 0.5976752984384094 1.4332853685182219 0.40292734659712537
Ni 3.568294111029769 7.076682800733459 1.819149513018628 2.1519171867380615 -1.036737185974563 0.5387235024945496
Ni 4.684026726683583 0.5711958028740438 7.704427522208882 -0.7988998591429726 -0.43248783386306155 0.6305792482552817
Ni 1.9522533058808857 4.565021744540426 4.159510862316967 -0.20035707049794527 -1.3729279504760872 0.3527062456580442
Ni 6.839216323767171 6.775290970367124 0.014083817965445933 -0.8672037857256936 -1.5177245100999088 -0.9370956256208249
Ni 2.4417292308596177 2.953769250090374 12.086348388633269 -1.8898868076000357 -1.586640873455648 -0.2748758676421266
Ni 6.74361877826918 4.118537540669789 7.473130563371969 2.2963167680337806 -1.0137386681968605 0.9406023532225027
Ni 8.13813227768213 5.681775741537044 11.661181069319912 0.23298436961466323 1.6488497428842246 -0.31964700121023015
Ni 0.8367474556261166 6.757084145146323 10.655747331170735 -0.2535125714750021 -0.6701698660637103 -0.2011649111112213
Ni 6.884616255931233 8.803379498333408 12.14741949655609 0.08181095993022039 -0.2793336463031641 -0.5581237613980324
Ni 3.0112570898894497 2.9830894539585584 2.6892886421775897 -0.08332379703032101 -1.8766906206247358 0.14144615509434993
Ni 2.611166088112574 3.3634649846780174 6.013715307477135 -3.429308857278036 3.6537396808957334 1.9683072537914683
Ni 8.268653568727172 7.247290966865778 4.355725714646341 0.7011053793003023 0.5975817102833385 0.9752353699153398
Ni 2.5542311061045573 8.685255340467531 4.986516776255208 -0.5887623122194957 -1.4140859127716356 -0.4609972541566641
Ni 2.622916658790331 5.002960078827241 11.43014460957777 1.0869827123936764 2.327650545150056 -0.15983365646260214
Ni 7.16563668226771 4.556241613180731 1.2931090730146357 0.827133657177685 -0.28541121995581165 -0.9844193504074529
Ni 8.668369751662652 8.087934664348202 13.662515965434473 2.312683382317262 0.06008410977609007 -2.0295077365601886
Ni 8.50031972412286 1.5596586809319248 11.240978225560845 0.2518200142639276 0.23465790066234424 -0.8105384718231654
Ni 4.419601404549904 3.597230125585522 4.773391034849161 -0.0979924547860893 0.20591219598821958 0.905296478832357
Ni 0.7633213816437894 4.284704103531568 10.285150824023292 1.5037251104970233 -1.2101766061460577 -0.3909010115602106
Ni 4.095701702757752 3.4772225030416326 0.11193589879443178 -0.06989286833639576 0.027190187261546723 -0.47733738607758436
P 7.493378277184168 8.190700620187888 6.162738593580574 -0.29021069822698403 -1.196726651288739 1.1376632694676794
P 3.44777111257896 3.936085099149365 9.506392528396617 0.003272757214000815 -0.12721818442042607 -0.1925540295137587
P 0.6724840354315254 1.6866004520416362 6.387959738998463 0.5382470770787633 0.570091732393186 2.9147411260940834
P 7.98373502644018 1.9463967614840771 3.457335552364276 -1.3802843908411584 0.7412546978256782 1.481638563010629
P 1.474378024043353 7.2869842821695885 12.710020703396928 -1.2964785119680962 0.49333581838836965 0.9070849381913475
P 4.724713311917093 0.1861753296625878 11.463525975592477 1.945565332109262 0.835648893737548 1.4465309206742185
P 1.182834558734691 5.2558503511169645 6.366345810509375 0.552546524420571 -1.3592967328458978 -1.8189773250736672
P 5.8718088941246975 7.560021067184335 1.6712516204864796 -0.7871514603577927 1.2132896978537426 1.0412507575742003
Ni 6.04415059739847 1.4020379876539701 12.989703963516725 -1.0593186708195046 1.205580502134943 -0.5136135948007994
Ni 1.0569329099098528 0.42199354077383794 0.11240817053459043 0.28864669617397387 0.43049214358927157 -0.245180654570539
Ni 8.870387736703936 0.19223521328085383 5.502172860258331 0.9276146827135832 0.18030529405339268 -1.8642439102209507
Ni 5.711817471674914 7.955445574385835 7.378238614342907 0.1787978562699308 -1.4197950473412708 0.3836258180550361
Ni 0.4432645100230477 3.336599844220976 2.6208251696553426 -0.5871538300817952 2.347527486579641 -0.5182526362347074
Ni 7.029296328709999 9.238834657795975 3.3590290036900985 -0.07154840166194774 0.44515720180061397 1.2882797782073878
Ni 4.947983525265516 8.56581931665677 9.71089181416794 0.5637778743600163 -0.7093635055440364 -1.7059040646950556
Ni 3.2085523575291472 1.4216035311748292 5.776973167921844 1.287188602025738 -3.109215512559006 -1.2758621212693255
Ni 5.7776637716371155 7.3350547985785965 4.419402750563965 -0.5566325215644865 -0.6942857852753076 -0.5217035708977854
Ni 6.3603477719999395 4.813610970625135 10.009362868712701 -1.3697891477367894 -1.1502637318405093 0.0014506164035975016
Ni 6.831448203279244 5.708031801376817 3.2213336800207424 -2.230664934361926 -0.14215912200097452 -0.6001034482639278
Ni 8.936496409855113 2.5871964232053144 0.41542015534285964 -0.07403234442606604 1.2414080533565135 -1.0691893929659975
Ni 2.512757401304115 9.262073425962512 1.9678991813678486 -0.8976155652483316 -0.4061797920961521 -0.05737828080915279
Ni 4.539356024375851 3.579454342032328 7.359380541385181 0.5546936526705609 -2.6239529580970746 -0.03884885454639762
Ni 9.350802416191925 0.5590198128113023 8.84213857767504 1.1500055930831163 -0.727929698581998 1.0491651273252705
Ni 7.576756728452657 1.0072975248380183 7.420713085449875 -0.9286004436656201 0.26276879996594743 -0.23684410968038563
Ni 6.046596290338578 6.901501844736113 11.24413232611119 0.26860546125238255 -0.11028721299304231 0.24454379231748855
Ni 5.505648367965173 3.052543385269194 2.996166883334857 2.5658681381392 0.8784320503413452 -0.8128624919706517
Ni 0.7914028092411601 9.027708574908774 11.398353412497684 -0.6128900585056347 0.4714886406062912 -0.31040979888267833
Ni 2.782055368375939 0.21655252266350772 9.60435611783092 -0.09584198410198977 0.4129549060364565 0.15308862442928473
Ni 1.8116962403574735 4.210424379637962 0.21706040219359896 -1.8240825075107165 -0.4806687644436625 -1.1020149241364505
Ni 1.3333992873233704 7.133655264625617 1.3355188878714632 -0.8189904592452605 0.18527549357447445 -0.56681666118634
Ni 4.3936077178991075 8.76124049008949 0.16956616975323788 0.6061295998533496 0.3670347464655743 -0.30408359955433434
Ni 5.750620592230411 9.300754730394555 5.413096225553523 0.12136969605944904 -0.2905014899945255 -0.8530714600893695
P 2.5123357301075453 7.393357869357708 9.29437812485531 0.0350284523590429 -0.9621317426538463 -1.9759035780814873
P 3.365685786313287 0.7035143502635773 3.657898303253841 1.1772096643017338 1.9696853650859176 0.5055902102756905
P 4.353333433391132 5.4308345272225775 3.5576305149920593 0.9923936268621812 0.40399075486463326 -0.06510444580881691
P 7.343366406386547 2.6635282802555627 9.084393365340159 -0.23439539102957693 -0.13710973250252517 0.762122799523939
P 2.998710029173727 4.835134942592286 1.6698526091609698 0.8869215758695951 2.5343947501212676 1.1412486728260927
P 0.7255424535724065 8.224256276963843 3.330625231889127 -0.4668868801682217 1.2700462859184964 -0.3201172559784293
P 8.337835756377796 8.039517440510906 10.492022713060651 1.533654551066604 -0.8815626255505268 2.3987050378947203
P 1.3967998943454643 1.7801552348540195 10.198049484612639 -0.6075020547208441 0.15434537965452128 0.227343369278802
