# total energy = -340888.7375043207 ev
CRYSTAL
PRIMVEC
9.10852122157058 0.00000000000000 0.00000000000000
0.00000000000000 9.10852122157058 0.00000000000000
0.00000000000000 0.00000000000000 13.33124151120277
PRIMCOORD
 96 1
Ni 6.50833914826936 2.037503377387286 11.382240655540993 -0.28271773228404856 0.11205921729180056 0.32099040261200207
Ni 4.802058044433704 0.6508821899905545 5.749697684560845 -0.5276747008795558 -0.4558195666104666 0.4552271844421063
Ni 2.8627627451850626 1.8544220964944311 4.488322310337701 0.4071084745580085 -0.7681867463298317 1.005029570458637
Ni 4.106613324162542 4.124429592094205 4.624448252368329 -1.8054512655627744 -1.0375000322825165 0.8409168270047066
Ni 3.9256452202431773 2.542634650744253 2.199042094228415 -0.2391989830658074 0.7783693432897885 1.359167149246569
Ni 4.887869424895972 4.716246663971436 2.320289266490959 2.413579898124024 -0.7949552726729276 0.6493614139587913
Ni 5.217178908945736 4.368984284168447 11.44525796110603 0.6145682175390061 1.8965449363465017 -0.011923233800147207
Ni 5.407783828545929 8.161617765860463 12.499785189449566 0.8407211660541328 -1.4914938585381539 -0.038536465512301374
Ni 1.9228817436183463 6.918969511712727 0.21302099085777076 0.41900445466464614 -1.0143655031475822 -0.9572944691662031
Ni 2.7810501993696497 1.7571613045852819 0.31032732537410745 0.5506567635970259 -0.06525356979217149 -1.7214733798882225
Ni 8.12718755482688 8.913170978186349 7.1718885590229835 0.7190213403487746 0.19588206544572714 -1.0085956905433404
Ni 8.773009050306785 2.5531367759616392 1.278758076534384 0.3873392623508813 0.23082798539329277 -0.3305425650768114
Ni 7.409144592869392 0.960857926437176 5.0102005112095735 -0.19241698971526217 -0.7870000223815931 -0.7851449714507253
Ni 0.8713539513841638 7.386546351183065 2.370668498561525 -0.13097636591127768 0.2780954030206888 0.5065780281102567
Ni 8.101282919858757 3.805248783882891 3.5802118315448292 -1.6123038254393909 0.7813613360385768 0.34909487415770196
Ni 7.6327770112017985 3.933241727122015 12.594091177004405 0.18383284759067695 0.047958787267465795 -0.273880850718709
Ni 8.049500975486822 7.568352439074676 9.236484322573837 1.1240652190682707 -0.3731663132846089 0.41682801583861756
Ni 6.849717423223753 0.8065040113059121 0.3803044521695027 -0.4546923949845589 0.05656375532765742 -1.3493427069569794
Ni 2.195472464677076 6.66927761354776 9.244883290191314 -0.7259239810058788 1.2056571210091493 -0.2929419811152181
Ni 0.35362103861847693 5.164340376087058 1.1878513891800035 -0.26410371672728705 -1.3965795284567561 -0.34257172832720356
Ni 6.434113807075535 2.531923029533806 7.059439307616877 1.1968372087246741 -0.6986618028558161 -0.6599181064287151
Ni 3.613569058753079 4.5835446151491475 0.5729824712488604 -2.0596261532121236 -0.1803610869919926 -1.9831540889963135
Ni 6.154873865367463 5.5555969144329564 4.388578535484701 1.1222111965786674 0.33755036385321224 0.8942507625411567
Ni 5.614064513539983 3.0441862751763002 9.154670672170468 -0.996242054073994 1.0474175485065444 0.9875920917084798
P 0.17981678680967064 5.547891105296869 12.356968127570982 0.11645297548412202 1.0100527347048411 -0.47786240534311897
P 4.025265119204628 6.134561862561938 12.462071356437782 0.8466465303996323 1.2898851750212945 0.3359989602056923
P 2.4722622141184725 8.630032589303045 1.3459889841163863 0.736899506180776 0.12730225949380009 -0.1794979676607489
P 6.376529734547941 8.219748349674303 5.478767446960163 1.6742478712423552 -1.128422981816334 1.1220862409650287
P 4.782802630114923 1.1313239051391548 12.63519064743449 0.07360091331560228 1.0257295220101497 0.2908334194126475
P 3.9776184435652984 6.091360145384086 7.8933217126594934 0.13084164010562627 1.6327476951160396 -0.21421480231664397
P 4.964590500963659 1.1896822019889322 3.6438148150382927 -0.03459059349067591 0.5425986691792397 -0.9804336262868276
P 0.2814332736702112 5.706925889594841 3.6531464952509665 0.4304597476894393 -0.034436584411314884 0.4667328710888607
Ni 0.7515468363608809 -0.20021349886456466 4.505572939088098 0.04064425588392355 1.3491755852514957 -0.6778582358469036
Ni 2.3526491106018073 5.739834977548368 4.818964371073765 -0.856537307150783 0.7507492675796748 0.8309807988379173
Ni 5.974853047677593 6.038694674432719 8.973525862935217 1.2925640074050386 -1.3993388363694481 0.8301480185239768
Ni 8.62242697390277 2.6787888291913373 10.097455470371445 0.972664780974686 -0.4744497801171442 0.9203960534779569
Ni 2.0757318418602866 5.173048122581264 7.322424181967666 1.761087651845735 1.878374950305694 -0.02550071537426576
Ni 0.4510576249913692 0.3619699093680486 9.300221201332432 0.17149052397524014 -0.15837121298446274 0.47453951161747315
Ni 1.8291732750698046 1.3613778310849676 11.226331915800355 -1.5336044145549588 0.6111944159707667 0.4819522591417765
Ni 4.079724968879174 6.908185022330779 1.5548756170936964 0.464138113778491 0.9336529184878631 -0.06635528749678249
Ni 6.050408233001287 7.954298709422538 7.697045827612341 -1.8675248949650676 1.6280153226373768 -0.23022943257734546
Ni 5.882246710222984 2.87913075820817 4.740189323421932 0.39104113668250073 -1.0242351968528103 -0.9018504292652855
Ni 1.0162559538197802 7.491622254485551 6.406768204016005 0.16979359588879148 -0.10518357321788982 0.37042191777025235
Ni 5.580217247878398 4.914484524536217 7.031896960494299 -0.42096620637670723 -1.1343154360413692 -0.9199993322601704
Ni 0.9040161984067353 7.800537759036853 11.303932875038901 -0.3419785748278949 -0.4372243201067825 -0.2182046402023274
Ni 4.644234693486914 0.5838553132887511 10.397035651301499 -0.08466488443924773 -0.738144948552103 -0.44144041507065906
Ni 7.961394247622316 7.440778487821675 4.130418444939332 0.2760575466550536 0.47387128190585487 1.0818057961784273
Ni 7.55280419298094 6.565230973167706 6.764685732196531 0.3229557538684889 -1.6368339493702713 -1.0803132707933008
Ni 2.283734037406019 5.406126077644313 2.4880764290381823 0.9355262242511758 -0.2179200190823731 -0.004556251912114734
Ni 2.317371807074542 5.16279192744269 11.620243588145273 0.2986236048810276 0.2297913165986623 -0.4054046044930244
Ni 1.2718866079619677 3.4518381521096195 3.7586905765553373 0.7017252722724883 0.4148061003125824 -0.368085813437908
Ni 1.6279751450378512 1.253059294150747 2.306251213251553 -1.0714365371289611 0.4634544574479051 1.3934317268563936
Ni 1.3656588361605715 3.1985483879768584 7.967097092894307 -1.6853720061799748 -1.1379638314272336 0.9153584910540494
Ni 3.779052676228769 2.8256455203274315 6.930326016240946 0.7034800501800659 0.3573488866363781 0.20633385690667044
Ni 4.498452807880438 6.9843231530264696 5.765255950028163 -0.44082257898100213 0.5602672901035964 0.4167395698898693
Ni 0.7883643908632196 0.24171829849861792 0.08639159327783377 -0.6598810825431927 -0.19172459163392785 -0.6332987040689738
P 0.18039062366023031 6.225300953121869 8.057095660661373 0.5263644667085644 -0.5765516290859167 -0.013409331427370455
P 8.388228670702917 1.7220388459224538 8.036552301411335 1.3613299612258427 1.7951550258430888 -1.1219623137926549
P 1.827597500861125 3.45172884985237 10.241753577835759 0.09703703285135547 -1.0467272073077392 0.25492076467643837
P 4.219221974693804 6.005740043872005 3.78557984269085 -1.4977956323864656 2.5670765566250044 -1.1163336547519678
P 7.086192856782971 4.2368560721967174 10.365160380531124 -0.3054953923001964 0.40148984281965044 -0.4089450135461151
P 6.1668606795791545 8.111420704218645 9.993898868444727 -0.7200366689871663 -1.497898733623233 1.846065953760343
P 2.6952297103859446 8.755438712453932 5.593815359532376 -0.6245952627577049 0.08970373241473584 1.2158232629088739
P 7.045186293271547 4.114628823027504 1.4205240150390843 0.006597964932491863 -1.4127144863454058 0.6234475223065069
Ni 5.390404769643265 3.1340236221139235 0.3029102563675874 0.4940179320570589 -1.1682858794495428 -0.4312511332424831
Ni 1.28669706381927 0.9773079161532207 6.968773085228445 0.6394624096775245 -0.7676421866802715 -0.46684497118669277
Ni 6.749132020989932 0.8792146053846879 9.143298683155804 0.33657797263761385 0.054544668015099614 -0.024367115990454807
Ni 2.8738022731672586 1.7070735452007144 9.055072633660467 0.7317914955302495 -0.4952795723783019 -0.5465224297136781
Ni 6.731962458080329 1.9409348331073832 2.383652695870618 -0.8877034483409422 0.4985713557556961 1.2886703287775871
Ni 4.3136226908715924 6.744295396106644 10.318780700223744 -0.3991843346149254 1.223395418829177 1.649909808717623
Ni 8.493532287041338 7.200723405337536 0.22331179837780793 -0.6866825190067529 0.3385754626836169 -0.5713122350638483
Ni 7.964846377247111 4.200840978433019 8.350890108774355 -0.06762386979656096 0.5924834698248247 -1.4313696395527478
Ni 3.158543761823554 8.702235838737757 12.157159047058242 -0.8196126662102917 -0.6880498316679247 0.6242448213968217
Ni 0.4522927404982881 5.268086435259675 10.124464968989932 -1.3026669001669953 -0.4373688161044467 -0.2656594912501812
Ni 8.92287155351724 2.5722555624588583 5.788558280421605 0.24705653143701323 0.8124428879347299 0.49446607533807097
Ni 3.8625687092887984 2.694218664506387 11.315718390926826 -1.3385810975651011 -0.44243928864881865 0.18619517717526643
Ni 0.888936130314884 3.367274639084283 12.545138339390943 0.6115543704133468 -0.24800861093763737 -0.03530356039730049
Ni 3.576324314595323 8.365894576138276 7.830145007969302 -0.6123480699592357 0.5378773524441705 0.0004599703555540466
Ni 5.5439835496002 8.090225174833686 3.49054572481023 0.48145706467291277 -0.689757815497967 -0.5843850090874064
Ni 3.190970098140895 8.750529219399144 3.4847062517166774 -0.08092855732526708 -0.7252668070378542 0.008740465196791398
Ni 3.5080923805073443 4.562139589771127 9.291822233714955 0.5739535293414374 -1.6046434806806558 0.4452307353510268
Ni 6.996701633659971 6.214689525647233 11.364270453597037 0.7155716912372774 0.38516128086295603 -0.14353183397878508
Ni 8.265682623283391 8.913362257136535 2.0411331231801118 -0.2703316999148699 0.7329176387148927 0.9658590709067625
Ni 4.611034132847388 0.36654329798179497 1.5777926570303342 0.5006269527331442 -0.8926111700552047 -1.1336783166780025
Ni 6.039751262919464 5.638785040721237 0.23362082294072004 -0.392705154648485 1.5436417441863028 -0.03685522115513653
Ni 7.673455667941474 8.833717345687425 11.509941215241975 0.6779924474319227 0.02777357056884249 -0.1597909761501248
Ni 0.32266755021757204 5.1122669590291245 5.949093238200326 -2.4172691740501535 -0.860386505693544 -1.1641962827612014
Ni 7.4924693469792345 5.910155219907347 2.4410172530315686 -0.43605935326440387 1.0727624550292365 -1.0688695477327335
P 8.800234420883339 1.7479708064548893 3.4375140912970767 0.2262226254107975 -1.4505102170369406 0.40619393316353913
P 1.9022964851696973 3.437291843374003 1.4561046323302167 -0.2000241126385587 -0.24762294546344454 -0.20496885823834377
P 4.906323289328257 1.2092473060365863 7.9595379309533625 -1.0386752835375401 -0.38978386723663194 0.68125414890233
P 8.45189723555073 1.6951413821176478 12.445461056744438 0.5172987569618703 0.022140283542465097 -0.5399694590865088
P 6.51846782410781 7.807715273929567 1.0817544206243788 -0.3618776277446671 -0.3169265169552735 1.0651303924052753
P 2.093265745627388 3.52732957778325 5.846296286961491 -0.5317720108773809 -0.03003974089519988 -0.8363065819262049
P 7.176758885435591 4.223266158212034 5.763496183686446 1.996343333993078 0.5675350274096032 0.6747145480115994
P 2.497948244572097 8.776861954874828 10.015322110865622 0.04953075974027599 -0.6401306393891426 -0.46786261381792976
