# total energy = -381174.4463743628 ev
CRYSTAL
PRIMVEC
9.21195271516130 0.00000000000000 0.00000000000000

0.00000000000000 9.21195271516130 0.00000000000000

0.00000000000000 0.00000000000000 13.48262395708688

PRIMCOORD
 96 1
Ni 3.3846372838158962 4.335752989305076 1.569053501128943 0.6979802034077592 -0.11880270666322122 0.8383017579793628
Ni 5.706602113406811 3.5826850576450444 2.714362699384426 0.5979673757575314 1.1281314187178442 -0.6841723509903894
Ni 1.08036861560578 3.765477837592567 1.2466130434947564 -0.751819360715402 -0.6358584943763501 -0.5775841841154892
Ni 6.366656957371932 0.09080498260226345 8.424253479950501 0.13172044316615378 -1.0121929209762957 -2.570320003262967
Ni 2.031558016717577 3.921049296936102 10.454575252598685 0.12588429610035096 0.6413357154408373 -0.861143952684859
Ni 4.279182386994049 2.310956545962568 6.6987874681849116 -0.7485257775657947 0.5498499514250144 1.11088368738099
Ni 6.298976739951459 7.541180942823179 6.205471733975582 0.5870566423822986 0.08257946266512875 1.1814699822399846
Ni 5.41161695997842 1.2245264653965766 3.610444356294133 1.5855790078500371 0.17174326341599455 -0.6119688322429461
Ni 6.651656353935781 4.313248188548548 9.658965601587969 -0.1963510346623457 0.8969820454293908 -1.0312815621766305
Ni 4.3509158636584315 3.3852176368440015 9.171231389596556 0.6661813137296075 0.47263046752021826 -0.724930506744358
Ni 4.223625099493997 8.783302238119457 7.00315775915352 0.3481569357244649 0.8978204821702859 -0.8605906512845501
Ni 3.1863499992132445 1.4034594371095575 8.58054439280983 0.08278823624182517 -1.015961129769476 -0.5041637622418091
Ni 3.082135176880617 1.8959396471974728 10.794755167791957 1.0837729472071271 -0.8924872428828305 0.859030762996598
Ni 9.013610270749 6.744337811328918 0.02932440943440752 1.3658972688815507 0.501496242711975 -1.4568796108983941
Ni 1.1818751238072491 6.59672547922797 8.856330915351327 1.1353839865151996 -0.43539446598689524 0.5584760025311285
Ni 7.924462664099024 1.7775015696998515 4.527249222283613 0.3267666429741469 0.40989555038484243 -0.09267695611044685
Ni 1.2386576010333001 6.287268347908254 11.359878995483571 0.08556194233222038 1.0271356583290567 -0.9154006571458944
Ni 8.597773508182296 7.852250165887633 7.821768735178146 -2.5182579924604047 -2.9975111075034633 0.17965454784327126
Ni 6.1291728134901025 1.0789960346345469 6.177536487027496 0.536010988659393 -0.21433333017237924 -0.7766050523005141
Ni 4.119585304265084 8.531779078129176 9.273955717961766 -0.9065897437224838 -0.4777163666835579 1.176436276470819
Ni 2.4982539708425273 2.3158296690080875 2.901420613490881 1.0934768047584522 -0.9514817191391678 0.37432408103813597
Ni 8.408827143746292 0.6996220237479456 7.043269365348426 0.18888609374386822 0.2350389381508468 -0.43929148704845633
Ni 2.5667632640174363 7.973617644384262 4.560335793252596 1.0804886200289003 -0.43099350870572223 0.7811438207111322
Ni 1.045317135098784 1.856503277144792 11.76830842678203 -1.016718833871107 -0.08197268231906527 -1.0496124992753344
P 8.072535593841325 4.251408349220436 0.34531742128492865 0.4733763445473073 0.05929580954683982 0.08757177367339757
Ni 5.6951977158069 0.14254207326492893 12.952932397312875 -0.33515486703784214 0.074834014391755 -0.7875021588289922
P 6.464441836631265 6.88794294395009 8.539907705303783 1.6599548516584508 1.0078379864417095 1.1931628451968805
Ni 6.972241524270595 4.07381111066738 4.929908286331196 -0.32798586009322866 -0.24058763588321794 -0.3764634959786419
P 9.037975885976596 2.937654908740873 10.364538546862198 -2.599370383661704 1.2154519956123842 1.6393289478779833
P 1.1994975895654314 3.4435385101921727 7.186292302550927 -1.4949031413300191 0.1647092393873486 -1.2839711235297049
P 7.651595409408425 7.835244900968864 12.135211295931345 -0.23551767755947828 -0.17666178376353447 -0.41327680815224954
Ni 4.55034543041164 1.8427406196211515 1.391595363063576 -0.3703195878644332 -0.1907779114499424 0.934412679472023
Ni 0.4460538102300548 1.335309410094904 2.1030602733660007 -0.548771373648855 -0.8138120003681145 1.062770376813531
Ni 7.14072814147768 1.4431721657470504 1.8377486623841632 -0.4924161347875777 1.005845638602029 0.646969516687847
Ni 0.48514749563756854 8.831867653423764 12.501412214275238 2.446604689789477 -0.5153226070721061 -0.9316052919302148
Ni 5.7390558232165745 6.7356877876243 12.437424147547853 -0.6022446629766467 0.9670428068022184 -0.09025729092536068
Ni 7.354896832754198 5.406928075989442 7.1354902251002095 -1.6158542617948106 -0.18391717977436714 -0.06948354871311906
Ni 1.3728112700539001 8.766840478417485 8.112508099548542 1.1499891380228837 1.5046679340262668 0.6268089825795721
Ni 7.015445583029547 6.15859579081976 0.738402502759339 -1.0206989015647776 -1.0510949973581318 2.1125188874460976
Ni 5.233384096680296 1.393998761556158 9.947237083795992 0.40436639303649713 0.22216336773975934 1.3825616169111092
Ni 5.9514189717389865 3.3511518352895022 0.27475938980127934 0.15064581931574703 0.7127213662726758 -0.22729966052506018
Ni 8.091042407070905 9.013886629333813 0.5989657787924149 -0.5518440990369077 0.508374457889047 -1.019793873252005
Ni 2.8413255180282166 3.5524053687024697 12.722271546890056 -0.36430320646702424 0.4196433738002257 0.5504937556566003
Ni 5.600747563470966 8.899050425391575 1.7253582319175125 -0.4875138123899539 -0.6924399903158204 0.06493012501448173
Ni 1.9383791138717779 5.8038987591663105 0.19866128988743093 0.4040105523589752 0.37389290703798833 0.3851869918945689
Ni 8.672261358741972 2.1633626377672748 0.030847145236721964 -0.1832702902189876 0.5491418696143963 0.5643026365152345
Ni 8.072443474313054 2.9254490712450067 6.936419003311974 0.4609604873814578 0.5972564657334358 -1.2354248391898852
Ni 7.6649158931963655 7.968228651980427 2.413700219428712 -0.65972784479478 -1.66628336497964 1.7415536955778654
Ni 1.1363772887943573 5.872997617322151 4.435796639397608 1.9011955477446354 0.49817077788316777 -0.19511741936556073
Ni 9.17812653628762 5.872444900152527 2.1182148569618113 -0.3059813307976795 -0.3914329728042807 1.3188795053711158
Ni 1.8166615811677203 1.2459995274364737 6.6041668947216765 -0.2390863687473431 0.8322668646391925 -1.0358349858752678
Ni 3.4748775737098603 6.536847785852025 11.949420946533895 -0.6187100076215215 -0.8174588530920824 -0.4727816483861019
Ni 0.48337143113250974 8.187178346774193 5.810849177574333 0.7036767395719042 -0.15044141661442478 0.16430351930849768
Ni 4.8527646297714755 6.47397620780728 2.329797753079771 1.041440504987503 -0.5533307108847633 -0.6505988859103182
Ni 3.7972222270346454 7.7125969610292735 0.4943216794580462 0.14184107653992345 -0.07311806014191279 0.8665131874165724
Ni 6.188810996092545 8.437098626972565 10.432368919113754 0.9039934437502172 -1.5259713234897334 1.9517946008484255
P 4.1073702548163915 1.7172185503995145 12.852863874947712 -0.004030461315631769 -0.3344557840882885 -1.7563424238512657
Ni 1.0090957365827502 2.235510652308876 8.892532047571141 0.42612898152456935 -1.6763083533158096 -1.0391239410391846
P 1.9352194140520935 8.731844269627453 10.192648113085513 -0.0073389568635744565 0.01877290973212896 0.6372623167024122
Ni 8.220580887725145 6.122650750888538 4.8958507755342415 -1.9169692656391244 1.1548791191253338 -0.5798963771884336
P 6.037992904407778 3.353694334269773 7.497242691423911 -0.39888814353074525 0.7528933105058712 0.04762917184218894
P 1.3099765398204652 0.8578188896471948 4.429473554977107 0.07152654728507682 -0.6110568619516379 -0.6776620606756975
P 4.447355797805013 5.138464134750182 13.384483830207277 0.3367831466698845 0.18956229387528645 -0.21397697527422505
Ni 4.972326565514 6.044183336707568 10.259427401519499 0.8089716415566777 0.13612371444017202 0.09465644843432085
Ni 4.82515640714875 4.950660052464734 6.033946093530846 0.7878124909805593 -1.172986627359322 0.6361585421152721
Ni 3.3107574221428058 9.314297622977346 2.692210716421174 -0.17198417578220704 -0.9080760984600232 -1.2672262999711983
Ni 3.2263482983883764 8.848946613965149 12.001058548106027 -0.23786149520130648 1.1708960633788803 -0.6161193640762098
Ni 0.507049834679207 8.10916231828175 3.5019091280856105 -0.09975725999599594 0.4822042272515824 -1.2865244860791778
Ni 0.5036119338841449 4.288348280056981 12.135898507612245 -1.128994795159404 -0.9843604721450595 1.3370590044936197
Ni 3.6304213971949135 0.8276488229432624 4.950859951841082 -0.607561961424502 0.41409210496469334 0.33194304496876376
Ni 7.273490805621393 2.128615151703572 8.935690046565957 0.7763960216135016 0.335068735081939 1.2314501708128534
Ni 8.93850521934991 4.515994058319501 8.641606743319336 0.6386527692920355 -1.5942289702155512 1.2889467223674254
Ni 4.555946297730498 6.294693181886871 8.011604053061962 -0.9470229120368658 0.14080954995161557 -1.2571861421263768
Ni 4.675222662935382 3.126039344054426 4.583607028484336 -0.27422537854232126 -0.3999155563539951 0.614440176601574
Ni 8.194916387148933 3.4736892317951686 2.7076886395612143 0.29791500884977723 0.562259895053593 -0.2298537944054816
Ni 3.021299440410656 4.302507051552186 7.633794231765397 -0.14757386525864263 1.4449777172544858 0.5490894191099059
Ni 7.690156643942534 8.716837998472158 4.711866890086178 -0.18560742299259647 -0.0677573100506317 0.017722099870111415
Ni 7.817180261474983 0.8044098295464164 11.835249845585771 -0.8638397543494671 0.5111219387271971 -1.373419802510841
Ni 2.4746805835580585 6.749247782185746 2.5477442662106706 -0.8868228455082018 0.42129967845672606 -1.466614064577339
Ni 8.385069517405281 6.359232123393315 9.930545946468625 -1.3416296545834379 1.5580178104023166 -0.6862955679809793
Ni 0.4090788739727668 5.6821443786509445 6.789445059541942 1.4880722344511146 0.5086966171151562 -0.5102549627412116
Ni 3.650438970688134 5.236276649867996 3.923106326002386 0.025554451430336637 0.11509543301496306 0.11084077150366717
Ni 6.918296328515281 3.148415177471376 11.61553647990264 1.8870169422514085 -1.3610957337278493 -0.11578294600029093
Ni 9.44870001472428 3.82146808687549 5.23338870265671 -1.1337685623989635 -0.5273731104787369 -1.1789644422093115
Ni 2.0788982422958826 1.4470596098400734 0.30770225430615944 0.3931077894035423 -0.822752240280538 1.0871873722053147
Ni 7.645948482325432 5.373838741434612 11.743001349975506 -0.6197014250005134 0.2588437538799284 1.4492966563448137
Ni 4.746873232024321 3.7886919587167798 11.356832602683658 -0.005493161904087314 0.23578764339141328 1.0757140814583925
Ni 2.575035597656144 3.7876878558586293 5.431529517209412 0.08034645956955194 -0.761930738117791 -0.5012324475276271
P 4.401259185858361 6.921907414023492 5.490192154007467 -1.5812130175718575 0.41282635087839226 -0.08711283175910803
Ni 5.360094507816625 8.120373264872292 3.977198913002933 -0.13903523166001217 0.0031308323194978336 0.34591879042256557
P 1.7167579527581611 8.389058292979403 0.8768047244237832 -0.07359345711643456 -0.2199365352917696 0.4234871730263481
Ni 2.6001197452042515 7.126993119812521 6.859581183586111 -0.7356826030545395 -1.0063130651567507 -0.4220118740324022
P 1.5867588744625687 4.074750729855741 3.331947677230912 -0.8296322552298229 1.9006502167641268 0.36122019666632627
P 6.814302593050504 5.7860552065402775 3.11685871186697 0.7250976284498416 -0.3988179524144422 0.043681757158666706
P 2.977146550510516 5.562692986342345 9.492845535062157 0.5703737824099789 0.5902802915259189 0.3033356656447163
Ni 8.59449405297586 0.18774788937320272 9.555351398579665 0.6547936407179562 0.10847535659528416 0.8708084723578164
