# total energy = -340870.80789410335 ev
CRYSTAL
PRIMVEC
9.19282119988201 0.00000000000000 0.00000000000000

0.00000000000000 9.19282119988201 0.00000000000000

0.00000000000000 0.00000000000000 13.45462305063061

PRIMCOORD
 96 1
Ni 3.37915228329916 2.7258276908995906 3.3136856088732705 0.905528392337505 -0.023902260538894316 0.5864861145908092
Ni 3.1240055377131792 6.720209516563792 6.7131439143783345 0.6251403366278976 -0.6732125095447761 -0.6982604536523394
Ni 9.166161773510396 0.8008849965113499 0.1000785646008407 -1.697441278639683 0.6105184729496647 0.8873640627236523
Ni 4.969859635585482 2.757046510860318 8.36740307648577 -0.5634693419806619 -0.5729549128735939 -0.8963534107064564
Ni 5.9293327442253645 0.8875337689800863 6.352990332877925 0.3003210471881086 0.009338246681790369 1.2256495049706762
Ni 8.69525032730656 8.72823416889051 4.98293274626456 0.2898833967945524 -0.8580894821292512 2.024504626918642
Ni 1.089404440007645 2.5522120743571004 10.981057208254976 0.17268223029049615 -0.1714578709650918 0.5780981476374302
Ni 3.5360001944210473 4.956346188782693 2.883513987292509 1.0021087972674163 0.3729788798641512 -1.7233826810957933
Ni 8.388347999747996 5.252502108645707 7.628825181838324 0.11143495344424036 -0.2576962705390465 -0.4927771176714223
Ni 7.42128162099988 4.032486068519683 0.7958243485760201 -1.143151032055128 1.3244310313169643 0.6380089650604496
Ni 4.1644490133183405 0.09586917188587692 4.259343746183064 -0.7134412751578358 -1.6104878552765747 2.180455660497387
Ni 6.601401498550706 7.975590338900924 1.1035604649951374 -1.7502229412170889 -0.8894633684548424 -1.3014610527843522
Ni 2.998909630167367 8.65822164450273 2.3407137619441265 3.1392840498096124 -0.6060408967942853 -1.1030353949811649
Ni 1.0920427796215229 7.270225187079188 11.77828438130862 0.8820591055709712 -0.8048005408981236 0.7240241928800047
Ni 7.360195325758704 5.464883851152387 5.341848054782429 1.006277326822809 0.21093304624157866 0.6575159247451257
Ni 5.015998403955002 6.826441755511427 8.297869498069709 -1.0822205151183426 0.6335221329336896 -0.3141744081314331
Ni 8.239589771065873 1.537159170227654 4.201529175919516 -0.8900657779255315 1.0061701118209831 -0.7978562483698066
Ni 5.483232721777126 3.4748403566122374 1.8182976977797594 -1.373461454382054 -0.5401877457449019 0.8666751669157331
Ni 3.711160204883857 5.888075363782566 11.973846938597354 -1.1048901888017164 0.07575035555843727 0.30723191537532896
Ni 2.7341655795051207 4.761697397896815 4.997356282341823 0.4269033977967487 -3.2364388391857557 1.7164494443110696
Ni 7.18152365769136 6.7304043550020864 8.925231725530205 -0.5420620799494793 0.7831981321369995 -1.153800541349174
Ni 6.345592869856018 3.563174173161893 6.085903032154434 -0.6508002032878469 -1.0132678992080293 1.2519758015700309
Ni 0.7054111159265071 5.666914477264551 5.267081003397096 -2.188825886838953 0.519253566695396 0.6513930996768393
Ni 3.3008478344106216 1.3922986976301444 6.919967677336058 0.5187524586892615 -1.0802075984533719 0.24278207243137542
P 9.06396518296169 7.515719470663176 0.6667387567360512 0.4508205707339784 1.4972575004948085 -0.6802897281065315
P 1.7232770232679622 6.019422389577287 3.4401990494102326 -0.5646376512571502 0.7820516772373822 -1.242064198883274
P 0.8253792679440232 8.127005292838833 9.225121769264847 -0.598448429159008 0.45225267519481466 2.787842015575973
P 3.83249624865937 7.407299340328423 10.195899289832205 -1.5242263157741684 0.4614932199564762 -0.3218010714387555
P 1.3061987365723784 5.10691540319281 7.269653393615831 1.9876164956430413 -0.8776334656994498 0.12647796382029186
P 7.2123288007091455 1.188052601668 12.028930321755386 -0.11637224284485766 -2.4502492285205992 -0.6339761897519727
P 3.108846575959575 3.304736397674281 9.853802247250188 -1.9877090553568477 -1.91933185233403 -1.5057534537809614
P 7.704972075648893 7.324848929189506 6.629630813137102 0.4915062213787987 -0.9062531863186714 0.13973277194766903
Ni 6.770981466694268 1.4973542554956312 0.7862693304761438 1.0356760916999004 0.19912936873843123 -1.0083460364263794
Ni 1.0325376495844827 7.388518407118834 7.311928419338269 -2.322745137428638 -0.6189360075893986 -0.7897418467927884
Ni 8.497246156772372 1.4166504803380262 9.606681753639387 0.2528587399410871 0.19052208668539444 0.2373999821838556
Ni 4.203196753640622 1.0584522118545918 10.137170033883704 1.0594911918416268 -0.8408530636463067 -2.7245859358298046
Ni 8.198994273731783 6.850683224367858 3.8446316916011116 0.0820349030155684 0.5284234061201222 -1.5301987313075196
Ni 8.780789526286116 5.553594573361168 12.7317058559143 -0.5401813179869988 0.6768560198346343 0.16025274627789177
Ni 5.485521734194741 1.942130511726454 4.311654574541286 1.2360915262396066 1.8946898854156333 -0.6971337962470638
Ni 5.225640685817307 3.9985645591983983 12.382962403782342 0.3765930795779708 -0.06439302156408909 0.19157083966488297
Ni 1.9523805070904736 0.9522843226536374 9.061728569623513 -2.123174824498047 2.3309595549186306 0.2811439600390255
Ni 7.4351443949989315 3.197446984316905 8.619932625946067 -0.12444627810224375 1.886604023083706 -0.0469920524788223
Ni 3.3474462438278554 3.7846476155923536 0.7225281485433723 -0.8061472847340052 0.08849968480430566 -0.6266732283326563
Ni 8.33527784437895 1.9487401499925796 6.723301981532812 0.010641795984562318 0.4652028075975795 -0.34872720640563815
Ni 7.599934903425315 3.1995337546735256 12.099634146278925 0.7749592891669751 0.3281722650724219 -0.4877927770829534
Ni 2.6948019201789033 8.971163655428255 11.07086739184989 -0.33012604636468307 -0.6915323908998865 1.364295985832702
Ni 0.3081019906930976 3.402391734671574 13.519742965859953 1.4580692603311212 -1.811248846081158 -1.1170227103991925
Ni 4.989642586279088 7.013120370629946 2.699441536914527 -1.0877075063748427 2.4969522890040934 -0.2840207673661883
Ni 1.3077247448507885 4.448764579792245 1.8784398903089312 1.6258206289789032 -0.40715989662123425 0.14444123316693186
Ni 4.961999773669575 0.9906643501377472 2.074178030477891 -1.312471802072559 0.060342762754115424 -0.32918193728385886
Ni 6.031483370669299 7.578138724942723 5.24054868355886 -0.45177496422744773 0.6950815417037255 -0.12822451419775338
Ni 8.813856103258653 6.245078565541944 10.326543984106019 0.9783913990458183 0.3726382086952808 -0.3236772054155458
Ni 0.9439188555852446 8.597613375951177 2.6154577632404363 -2.181015389655599 -0.7035001047847239 0.9744946350945735
Ni 5.614175263449858 6.990625537754828 10.91584333640533 2.2321147794345753 -0.9972010755531536 0.40133840484345074
Ni 3.764634844374891 4.543919469489975 7.224163638405683 -0.24045625251167618 0.06621464815386016 0.8792895132456341
Ni 1.9264751376413187 8.72021802901838 0.17289030296919802 0.4609700004631545 -1.3295742660808005 0.1037938919592148
P 4.14160485324696 7.907802477184078 0.4846271350676171 1.1970691222298222 1.186815305712298 -0.36204732055331196
P 6.440003141056451 5.648960897940846 2.8571563310524035 1.9308249405752942 -1.696257028523595 -0.2857071539296757
P 2.2331936087807978 0.9832089723438279 3.816511771584071 -1.2513268551321226 -0.4574833274661347 -0.38880967624882073
P 1.7157664885483173 4.900904285607444 12.914527163360404 1.5117538943387707 1.4824165788272339 0.6954615507509636
P 6.552707125955896 1.2236104331191466 8.56906047406719 -0.2740425731075538 -1.1738178650113655 -0.1779553057639774
P 4.1457140442135225 3.041996381980067 5.808414054521176 0.055696779341671825 -0.44421000739599625 -1.5595267908476753
P 1.9045962237701377 1.4452769247896473 12.699778269458 -1.2241803766243176 -0.40100570409438036 1.0188387084275872
P 6.154887799159525 9.100865166272161 3.5285825071930406 0.5000379129988938 -0.08678707298857312 0.5601888714571772
Ni 3.4623013488306023 2.4331742358201565 11.734516441463207 0.4597767514860017 0.8660077085350634 1.0758968868931598
Ni 3.5740768588136667 6.692961995255313 4.5328761336776004 -0.5491249003335318 3.3837483950394174 -1.1623330043002176
Ni 5.188464917878208 -0.08513563413966214 12.186336237109197 0.18438100678466313 0.11848260431964111 0.6101320361445234
Ni 6.925908078236712 8.693016471814671 10.282480035425879 0.5012776989432657 2.224002434740086 -1.0411404572485812
Ni 2.587613627852024 6.153858203212645 9.009726620049355 -0.9560747378264889 -0.4191250394029104 -0.42340515483550306
Ni 7.787367329862086 8.13475484090329 12.4260574291339 0.04164955721998633 -0.4907937686928064 0.10043397434804639
Ni 2.0086589569725626 8.353406087300787 5.321706584071606 -0.3547255900809181 1.6712787613117024 -0.7618281511016558
Ni 1.9630993363231615 1.8160969364433053 1.665830165842585 -0.8721050796820528 -0.3975735384843798 -1.2050053463577635
Ni 0.9656047202163859 3.2493864227085743 8.669902962089331 0.10160896849275404 0.8481583390584684 -0.5984592277922854
Ni 5.814790195135063 2.57716139042701 10.553631482293257 0.991857551853053 -0.3671687009402773 0.5869941645754794
Ni 4.500483390481011 4.730524542040859 9.681489253436919 0.9890172541907805 1.8620481881212128 1.2379152097119068
Ni 0.9589858891293058 2.951814808418602 3.683969679065294 -0.42873402324758425 -0.12806330602954075 0.31160819006615365
Ni 5.205609528957936 5.2281503259378255 4.689339784883599 0.1977617989669433 -1.652503537586728 -0.3655000549886028
Ni 2.980128696957778 8.439818604270998 8.319746573376698 1.848872827081519 -0.8462580367119619 0.026141177171742077
Ni 8.364253616026835 9.051389403896238 7.771712875059045 0.059073409123388584 -0.9581581027180789 0.5531080533509958
Ni 7.248226766535601 3.620344326676546 3.410611955168889 0.2679989380166352 0.7240748436122821 -0.24377966045795435
Ni 1.462550235362735 2.7731339475303045 6.108224120713515 -0.20754227539247483 1.6378089116890309 -0.12161292241850669
Ni 5.03683852905835 5.606692307193076 0.7424370408840518 1.7321290598298555 0.36432248974073383 -0.22457737649789067
Ni 0.4324358133818003 0.2752735077832762 11.23518814712551 -0.6310533596782228 -0.6535772518123517 -0.10370827422394398
Ni 7.917785880740424 -0.2599830886900259 2.495670709795719 1.1893694395927195 1.1892691665694293 0.11850497291714429
Ni 8.787794455853275 5.808244906615617 1.8462705326615312 -1.6155483005186175 0.7443089112709698 0.3309241167859462
Ni 2.882519324065256 6.368676043272209 0.9876417506079807 -2.3168223441863005 -0.5669511298816752 0.2979648882511062
Ni 1.7241043771538473 4.8807812005385305 10.771030666476783 -0.08352922817290775 -0.2301520423721907 0.10267083409836512
Ni 6.824189514377628 4.813232352166497 10.528013848139972 0.021800640814859232 0.6166220147442413 -0.6481313982064322
P 5.932945522860396 4.836646467137042 8.006926826969865 1.0546991697696222 -0.16947323643489523 -0.19721646798643455
P 8.617129734837107 2.606449717987339 1.8543298787921467 0.4052436534351279 -1.303618208336671 1.2262596277508495
P 6.559142100623891 5.799759932874819 12.48399242535195 -0.00821518882094069 0.18851276956484955 1.2444802645239341
P 8.850204517311868 4.014900202034149 10.373581810364868 -0.5770704777038642 0.20382291755935866 -0.8573670021409298
P 8.451052231477124 3.5504880802449894 5.237629043623781 1.1682141456713429 -0.14472765405909915 0.4271116571528128
P 4.4575621094454885 8.497209385488555 6.636465675516608 -0.5460904843825821 -0.18834024854272724 -0.3290664947519171
P 4.58998469529186 2.163153505930155 13.51759000719246 1.7025832278519388 -0.6261322682275217 1.2634064120044757
P 1.0869775352757158 0.7828900494933512 6.735680114947747 -0.09885094613164266 -0.9728851245156083 0.24575195369297673
