# total energy = -340891.65996204905 ev
CRYSTAL
PRIMVEC
9.06054311200231 0.00000000000000 0.00000000000000

0.00000000000000 9.06054311200231 0.00000000000000

0.00000000000000 0.00000000000000 13.26102069815164

PRIMCOORD
 96 1
Ni 6.44208235547375 2.054269745612538 11.19631963552472 0.9431330900641564 0.41446465781276365 1.634325838236437
Ni 4.340924299542878 0.5727386719162606 6.1157705215045395 0.9814893212448514 -0.5183850480475136 0.3411097990696964
Ni 2.682201621612888 1.5566828420256278 4.70749031420432 -0.44274062193932145 -0.2448641517713847 0.2526054862797005
Ni 3.3371973397235495 4.538081716456298 4.853653182686117 0.9267219956959847 -0.8888015665011274 -0.15013365556601885
Ni 4.845469700197321 4.450710899760705 2.7496464920182238 0.8114944079785315 -0.2924352166821286 -0.6618988843041698
Ni 7.240497409628645 6.434652710167271 2.8328857010799693 -0.07365130693756347 -1.5779405174681727 -0.45633995789031084
Ni 5.108569749477279 4.631033827674808 11.343344161651206 0.2098382705155031 0.10086489123787791 0.6856787603325869
Ni 5.619992102311743 7.918026698321277 12.39191990354681 -0.2083632286318734 -0.120031951084632 0.30490095324930716
Ni 1.8211510333071446 6.677611172232221 0.1486164635415465 0.49382458509933014 -0.5729564555354907 1.2852193941145091
Ni 2.6277205762130538 1.7538583800251606 0.27640183254147344 0.3517353971043426 -1.2828848324440616 0.5222244763982619
Ni 0.5962698082887717 8.948754076449521 4.900039538919111 -0.38270330624076676 0.6561802366528378 -0.7926338236286026
Ni 8.772001002499751 2.183645239918913 1.4081479233715917 -1.0053494156919007 1.6067427864118458 -0.7613694662976822
Ni 6.863442910324787 0.4333693986183646 4.910304228148027 0.7384820201765475 1.3749434382442192 0.04001896359509882
Ni 0.8617681833158328 7.499782970281739 2.329868814039189 0.6273987936447711 -0.18741130897055466 0.4496736016137288
Ni 7.7690532493832976 3.7790619035118604 3.6936182643244235 -0.3342079297435406 0.656666689370953 0.10755078789848573
Ni 7.7134215150152645 4.196082458238746 12.576035574784441 -0.11057003434078376 -2.3881295763717194 -0.07852586142104541
Ni 7.750760012951855 8.34245877726853 7.219312953907815 0.5874505353866077 1.0243884346012229 0.15766158851194784
Ni 6.822842616887792 0.6552983402487549 0.24424687128761158 0.576082402758982 0.521090877014451 0.17692866427167592
Ni 1.6626277719874207 6.619061942999937 9.403336924526497 0.933473198376889 -0.5356965427427678 -1.5499520026750468
Ni 0.02699770014599796 5.0419385158384324 1.586442195695303 -0.3669149330582584 -0.9094850629924079 -0.6036418004344895
Ni 6.4513241093915665 1.6715342858121403 6.947262900196467 0.11140692841978232 0.8005373947463954 0.6365002417254071
Ni 3.3469464840525407 4.333884257587836 0.35170763010278744 -0.3379820520739921 0.6799937941326676 0.6065384052559942
Ni 5.995044221600073 5.411980154816417 4.9542777617650255 0.18433369848649545 0.889996358140177 -1.2765249516643047
Ni 5.104021356862824 2.9399468899463455 9.407977734680129 1.240487341314457 -0.6210725943164273 -0.7232659745577414
P 0.31047672286904643 5.53647201641524 12.387609803214747 0.5776602887690632 0.08869817396835693 0.8665322135799657
P 3.9115361035436207 6.258425147714788 12.63939685843413 1.6582018735230861 -0.44574829841739366 -0.3040676587147344
P 2.492356062946212 8.543186048146282 1.1154362072737833 -0.788573794626616 1.737714524337433 0.5079283714905639
P 6.27071124409965 7.648548026729415 5.908408214946379 -0.9681062150697262 -1.0858606829740913 0.8826085503165381
P 4.761378800088247 1.1988366940019377 12.52035310137529 0.27911664519635154 -0.952309871467418 0.5312485342737432
P 3.951375311363855 6.3282456925095865 8.182156025292475 0.07677416883726133 0.027546285049384816 -0.116442948181793
P 4.732158548730445 0.9492096722472679 3.697146439790696 0.444803418005621 -0.5697243217514383 0.4272934341463157
P 0.11625582796029796 5.862633445369711 3.590367939867688 0.976049638286519 -0.9592281958538061 1.1482091633043259
Ni 1.2642175726989613 0.9962429512545088 2.555199989587364 0.8319971559175735 -0.6332331409383611 0.35020687627495817
Ni 1.8931189268063764 6.538595260113536 4.823430835266246 -0.501036529466737 0.5427403369634266 -0.5015800606750329
Ni 5.859616284531835 5.543946964437004 9.12152685383449 0.9370598872868829 -0.5367262695588628 -0.4260868154327242
Ni 8.88115336470361 2.1450292054113307 10.135955221058065 -0.17013735238145536 1.247364785160581 -0.21391398324677352
Ni 2.4722144757312057 5.21378077545148 6.984539786440271 -0.965376474843389 0.8905380895762598 0.3889390027378334
Ni 0.36742857836043796 8.783308560234492 9.025662684077563 -0.32823062911418316 0.701860769409088 -0.03644153065648563
Ni 1.5544267668045137 1.253091225825355 11.401839027625153 -0.46715221801446644 0.7810255499657129 1.4588562750087908
Ni 3.978575061620017 6.989103581977923 1.53607735500612 1.1491555863779952 -0.5823201561385777 -0.3521128350484194
Ni 5.627285839472372 8.075390210129745 8.352772393429952 -1.0237281753094047 -0.6945169274495072 -0.9086111450278868
Ni 5.015083066218424 2.7889076371914423 4.708073813177171 0.8414102217013574 0.39091206730380423 0.9101980298990324
Ni 0.8849894491158055 7.474748689816124 6.897931867470051 0.1568375499487557 -0.8060372415187022 0.8745471134646422
Ni 5.0291359684993395 4.669378045890689 6.921563575870491 -0.8399007270353663 -0.7223704593266657 0.7885131165920097
Ni 8.020546743007644 6.7570177715809905 9.339020659638635 1.0124083794212113 0.2765995352014527 -0.7285583333049322
Ni 4.855934627427789 0.41537516010779235 10.456315184293343 -0.49165148870741127 -0.984013373218286 0.013365622673628594
Ni 8.173343741115545 7.109771894406824 5.068746850634546 0.21956192556117024 -0.3876315967803195 -0.034786768661882024
Ni 7.348417537976794 5.714094902498451 7.078851885171589 -0.25940965368572744 0.9590495041840966 -0.40501945323946376
Ni 2.326067916226911 5.277893178120568 2.757204797036109 -0.5069901759470108 0.5269005417176926 -1.0991874819899845
Ni 2.428551718741051 5.268443031712447 11.443956055969837 -0.44606171589275434 1.013131887850797 0.1280008282227215
Ni 1.1287080907432125 3.255933329048161 3.7094388785556975 -0.2902060702412938 -0.046445435946732914 0.5050405084198075
Ni 3.4755246505699273 2.2658062443569134 2.454177652668267 -0.0582830520116093 1.2151367783648104 0.32937374157969085
Ni 1.1884804932881494 3.493120225186005 8.138699848684011 -0.6523670335543346 -0.768276992050793 0.4702537397579256
Ni 3.382645023695871 2.8011665519471345 7.411796942712598 1.2708512983182954 -0.33813091894703057 -1.335675493882532
Ni 4.105803207221958 6.895263537539857 5.8280991855091635 0.6713697999090825 0.6901563364879663 0.8141483006616107
Ni 0.7714400053665387 7.445555620087492 11.42222071923116 -0.4872515598675028 -0.367583934100825 0.5754373129758155
P 0.25612977350645116 5.483223204871115 7.998583080583939 0.40579926882828177 0.3204029055396482 -0.35529148988671716
P 8.56799381503548 1.6550894001642606 7.9570767328412755 0.759457336876634 -1.6601978209071924 -0.47711472854381703
P 1.8804885297853606 3.5426995167921738 10.496906417187281 -0.575148320980487 -2.6359834068990473 -1.413988725072139
P 4.06201360262901 6.233517714851967 3.7044927281010542 0.24431085037107603 0.7691051443790432 -0.22540784281898602
P 6.920614937012457 3.9797891743896128 10.284425809856401 0.3109551298631871 0.21909784144055813 0.4812269509399777
P 6.470568702843962 7.71089362350245 10.324314850663448 -0.8654983729988127 0.97486410261885 0.6181474502498321
P 2.501398484916781 8.502286756788417 5.770572891587978 -0.22670239326069344 -0.0013943092443653407 0.07679525188318387
P 6.905193892729983 4.043502913164207 1.6398051700819425 -0.4523038401477243 -0.40558303905241766 -0.10561526143866971
Ni 5.184025952053334 3.0103473094967717 0.4795555168498055 1.3374482695122387 -0.5175080447591991 0.23423881084705464
Ni 1.5741153268666859 0.9404571876545124 7.158431540892741 -0.6890836722490777 1.1833725985793364 -0.3258880970239355
Ni 7.091152478425342 0.702144972069028 9.263221062480731 -0.5890466762291339 -0.09400904465830907 -0.15254380766940825
Ni 2.849540791326764 1.7725955830663809 9.446023861029447 -1.0037116229781615 -1.0572144799923082 -0.2212015180471223
Ni 6.550790751067832 1.8606912432065084 2.7575228220973984 -0.9157886366129325 0.35754866135201 -1.0928175739078987
Ni 4.356608099573997 6.788167918609866 10.34713654651462 -0.9716412248061782 1.2071347339959404 0.7399652895902934
Ni 8.259319234180408 7.09932508826247 0.5158774218554358 0.2721762093227764 0.6545676407500791 0.9261162437911856
Ni 7.751285524449142 3.62596590748309 8.248765513627983 -0.6260931874594701 0.3540923273722934 -0.14847092315161528
Ni 3.2151065220347483 8.317623828750161 12.172065826276402 -0.4148734632154081 0.9271487988207581 0.2770957581115809
Ni 9.076489612462636 4.756069321857031 10.331343113912515 -0.06159540421429392 -0.21733894976792248 -0.41323824160483025
Ni 8.828448185742886 2.3359982714170355 5.745257734287606 -0.3238183589791004 -0.9946777949106677 0.4247081899176427
Ni 3.6798580175842392 2.7323789090607975 11.520167001782514 -0.16232736941873335 0.6618250936434409 0.1648989868006515
Ni 1.1309460448782132 3.48073446282752 12.834002826422788 -1.0431428323905905 -0.1279892582584957 -0.9514498374599679
Ni 3.1308706532367676 8.422282161597906 8.088347692755107 0.019280445496166795 -0.4320864846595849 0.732818651243183
Ni 5.665874692350785 7.893626655869631 3.8447408740754487 -1.849030949925938 -0.4824996470048142 -1.4217760823270418
Ni 3.0627534905366254 8.493878572831814 3.290496582646489 0.36964750149807307 -0.23980010698491608 0.7256190481709502
Ni 3.490990997567685 4.454172027208358 9.239443479337076 -1.1115100081110794 1.0683357867164505 0.11753489569439113
Ni 7.534104307380454 6.449493879694117 11.785878299571406 -0.9356686633663112 -0.09166188458237118 -2.4339690033033374
Ni 0.5166276348205292 0.07751928823006167 0.1930901391352744 0.3614749929896097 0.073402424151551 0.31022879322012376
Ni 4.760889530763186 0.5406634434412975 1.3966510002869665 -0.5561980051302292 -1.1225318131428796 0.26044118027403534
Ni 6.111336291732599 5.598446130922952 0.1922592873369766 -1.8746419656258233 0.8277044420794907 1.830181678429919
Ni 8.153926997345073 8.954190402283531 11.440680669654846 -1.2009244914201704 0.2502786379187367 -0.6327837121057682
Ni 0.09418978140005249 4.642015205859507 5.679748195879179 0.301069752428675 1.6144005600674194 0.24244577213787924
Ni 8.035650668283134 8.821000419350293 2.3736566065235265 -0.7348084279797022 0.32095954937406657 0.34581723184769475
P 8.445332183134107 1.4976715250974524 3.6983795797007106 0.8566244675479505 0.2127970960335109 0.08759311382963625
P 1.7163839739427202 3.4972699539059664 1.6728507827182761 0.7192897635188129 -1.120800946494702 -0.8534193303470915
P 4.6451682748432335 1.0731035380043497 8.38681285369391 0.726420203916007 0.07261155281913946 -1.591427496211014
P 8.390135354832795 1.825654123206316 12.385475139270591 0.7370997951170402 0.36943332860473793 0.6290268161664974
P 6.294187111159516 7.677532703967744 1.3565363519578089 -0.36141971427164205 0.9379420327815202 -0.3560183407504127
P 1.9311097838430478 3.3113929130981172 5.882562109822884 -0.8404131478954107 -0.8458222347261241 0.25462148826846465
P 6.838544538005023 3.6911383936898097 6.005863416064059 0.37703453799076353 -0.0280929015814742 -0.3740952528567815
P 2.0417571356512587 8.651631687991719 10.298906369769592 2.2736386097099746 -0.09682465973023324 -1.587870374987375
