# total energy = -340873.20785502956 ev
CRYSTAL
PRIMVEC
9.24837916182449 0.00000000000000 0.00000000000000
0.00000000000000 9.24837916182449 0.00000000000000
0.00000000000000 0.00000000000000 13.53593774382099
PRIMCOORD
 96 1
Ni 8.538223970424738 4.682981581706886 0.6689158509579951 -0.6233948146917005 -1.3394303329392736 -0.12022015583603812
Ni 3.1028959835328283 5.127051760705573 11.826578628284429 0.2877095290716852 -2.0847478879804164 -1.1273454324814391
Ni 3.065153347734477 2.9110845974858286 10.292375164503706 -1.477048115426469 0.010035272748814975 -0.26035376276655164
Ni 5.322146321393204 3.457414106066081 11.795297835081596 0.2962972707406962 0.9447855380659147 0.8719469568376338
Ni 1.2243004476809003 5.047904130918195 10.504876099814242 0.022549346055425683 0.24587356687250558 0.6385540389306422
Ni 2.178169037145777 7.365936407754848 11.606863957143773 -0.802809992830656 0.10367484988284725 -0.9399629198662908
Ni 5.670717736056243 5.289444052296666 3.953833811081182 0.44787794316588675 0.3913301286778293 -1.7317652487325335
Ni 2.356477789459478 5.621349887516278 4.0454991222096695 -0.08675647686095381 -0.03845958952777893 -0.20060081107763517
Ni 5.94410907563847 8.820003590004296 9.851658447828097 -0.2067305781244569 0.5089912655374395 0.44132240143555607
Ni 6.6425651748208 1.4641109221359974 1.6700233120550254 1.0776112984811053 -1.0909596947635534 0.013509090230028347
Ni 6.8482398813926055 7.894037360795147 12.058071110424644 0.16047848913545265 -0.4965712946065319 -0.6575511488584354
Ni 0.2182571265678003 6.623208317009982 1.2504890832580116 2.2304397057249976 0.6964575961156457 0.042899884687319666
Ni 2.620084343774697 2.142535031820845 1.2416911000590478 -0.9023209411438008 -0.7452867018032068 -1.5494460095729057
Ni 6.640955956827928 6.778729062803923 8.71227106957111 -0.6517008607252454 -1.647968368720536 -0.676597366856609
Ni 5.12978928096931 6.652423947121963 1.2606234572614015 -1.4870635906809422 -0.373278413382441 -0.5590298181520695
Ni 8.461545657902287 4.950814645348214 9.454839163354615 0.6320517190357502 -0.9532125857873455 -1.3619745367883769
Ni 3.041643967631706 6.497744803841535 6.472615107690767 0.5308320155616149 -0.9700322284478454 0.3824695929634058
Ni 6.489550739808861 1.550009868790025 8.147254285839141 0.61397223582622 -0.6724460636923967 -0.308337746844998
Ni 3.2572514335388276 0.32625969967565316 9.883860379606162 -0.35499889834696285 -0.38253309921148954 0.5138599064836504
Ni 8.299310588758772 2.370479835673324 13.183584070101704 0.4756985649225808 0.10088751694569721 0.21665040834133015
Ni 0.26526756323200024 3.1082600435090706 5.325457241171643 0.497925237531265 -0.5992179603351809 -0.9033262424798636
Ni 8.865107935701076 2.309801219286903 7.798066929116762 1.629548985673084 -1.1671142277389448 1.2698817353161742
Ni 0.7669468215375992 0.6798927523128256 9.40640725079671 -1.5370142115674563 0.7618453774928363 1.520916791784961
Ni 4.6192140066444916 8.864016626947288 11.934230687817971 0.2526671927555713 -0.31934386814751453 0.4974282432901884
P 5.2542539691766645 7.130158226661202 5.311556002291833 -0.5306993466384925 -0.26820796870364777 1.7117690081162649
P 4.806586170642189 5.423323590600252 7.6799253578158835 0.0393497054422161 0.053608786464391545 -0.2111770439315847
P 3.6954581400807256 6.680039607620339 12.936769798025903 1.8075569990518676 1.5675329489816037 1.9680861389195976
P 6.654023916735565 5.3727349559967275 10.472470703692252 -2.2502911932332856 0.29434863165475755 -0.05034245700829394
P 7.747903719959629 0.565292385434195 9.836390298492272 1.5937941966709777 0.6924273919103301 0.4248154049194684
P 7.66755380086723 0.5823195765070559 3.6169375504078114 -0.28910820919142466 0.9264504872021528 0.08967982115533586
P 0.8439349547655768 3.082420071830415 9.485511413201522 0.14630733984139319 -0.0061189684135443 0.533895484978287
P 1.0867770479451775 0.5476742229260207 6.355840446845904 -0.4038246616004142 0.16141848445121879 0.40766666105432364
Ni 2.577384576687957 9.090703651219131 13.167341141590887 0.22278866002858405 1.1310956435524906 -0.17844587224715075
Ni 6.932104184607368 3.7172195765015834 2.304561087592871 -0.13271468875862305 1.2860375191404303 -0.12858446864033338
Ni 8.8825596273824 8.334426684844619 2.6658758440511923 0.5108622573079072 0.24143738547802288 0.5073053931945843
Ni 4.51104496270979 3.0210848205158674 7.910808371762246 -0.9699242421150714 -0.2997176092761548 -0.6908109393528296
Ni 8.963103762439456 2.2328916972827155 2.297291861487136 0.21477376014390756 0.363480967676045 0.09871390633314613
Ni 2.666742417188734 7.142403080813865 1.3590484087978814 0.9936344412478176 -2.018707303510575 0.13176929412621824
Ni 7.894407295965922 8.621163435712566 7.897868039488525 0.96739401949405 -0.5680669886536732 0.7444855460581501
Ni 4.221635430232993 3.5359975847180265 4.606374481704807 -0.20801047327814498 0.46545811814149507 -0.43232354037105547
Ni 0.5081651466872172 6.559967899565942 8.265300598833544 -0.05831879034555117 -0.02843357275034458 -0.7526518839190264
Ni 4.67513895608645 6.735391157547595 10.727650134817209 0.6480120990197485 -0.14240363391161281 1.1777516528481329
Ni 0.6949657608460658 0.9292956457461264 4.192147897770493 -0.08294584486561199 -0.9865896185858944 0.14489426154395044
Ni 7.34177964110322 7.121612724216293 0.6890911903341538 0.0715262901747607 -2.012373133762431 -0.8393908772784835
Ni 5.4365117794383915 1.9529155116606884 5.802491418400191 -0.514558732322888 -0.3816974906840717 1.1081284932333562
Ni 4.531927803100056 4.555862608649219 9.738105922320688 0.9711660849419727 1.227054355738003 0.1707436185068866
Ni 0.8032411611423653 7.45987219599397 5.508761043128738 0.38815224517047986 0.7858509963788144 0.5751480638701708
Ni 4.919462639625006 1.759041737036616 -0.008846074771164687 -0.4833188004719999 -0.706199505993758 -0.40707967820260216
Ni 6.562187510590594 4.045990211148874 8.518801449121108 0.021225227927363446 0.014097615743646687 -0.864001476738312
Ni 4.176244384778862 0.1486038829383704 1.8101473560412988 0.18097918019196574 -0.8974209327390221 0.380496528397435
Ni 5.334733365578834 2.1193308482339632 10.108110455940523 -0.15744741561861272 -1.643319299984299 -1.3557648084332392
Ni 1.808603801541239 8.44605462262607 8.027569160038205 0.9390352658456989 0.4862652846948335 -1.0626181675063828
Ni 2.2220988386753455 2.085259819005557 7.941156003496799 -0.2813627609180509 -0.9440697429458129 1.4036143238163503
Ni 2.6461555249350877 2.112459302436812 5.7825260172334465 0.013165590847680552 0.2751039244925327 -2.04327033756192
Ni 8.48110598005703 7.224639669277217 10.124651182263813 0.3466412704108869 1.197620366747602 1.613913593128672
Ni 8.138527515160552 9.16491264647666 0.2880010043140702 0.5900383507184419 1.2548528660075098 -0.10848358412540027
P 1.8645195026039274 4.410986747394337 6.216298125915676 0.6891875448167938 -0.06530447763476496 -0.21003881656208342
P 7.414527392436185 2.7944810316574493 6.517784192042432 -1.611047841545103 1.405513340611276 -0.7208259976576812
P 1.618632842968846 7.876234230701585 3.570455196199893 0.44951419321772906 -0.929486188704683 -0.3966304578448201
P 6.440247629923781 3.4707595173517998 0.19577524140185756 -0.10870675587979989 -0.2756752236149704 -0.09266692880811782
P 5.741939504809761 8.856026027258542 0.39454140865943355 1.1600773754968214 -0.16565206291659215 -0.7426094120813598
P 0.5210851325265451 4.24790082735804 3.1933303353805615 -0.7761486814893859 -0.05450918679147387 -0.21850854459599142
P 2.3269292176937997 6.887859938182641 9.479406558045802 0.45002789962935397 -0.5388679984922139 0.053264515751095365
P 8.961226341447771 7.014516492276839 12.608130490364237 -0.09874244557823639 0.3763549954252357 -0.46688302351347977
Ni 4.438380446790249 7.264648157996567 3.4857067479269768 -2.2221422416028958 0.3566153509044633 -1.4364856206230745
Ni 6.20919537063679 5.506919690816203 12.802384373376281 -2.081096664381074 0.40864676557940594 0.3648169128786491
Ni 7.163082456860205 2.755166171383303 4.4318011497780105 0.1885626489661785 -0.4977334332354332 -1.1146035594347385
Ni 6.532611193687107 8.194378477568355 2.4226887863248434 -1.4445815102573314 1.2335057677903014 0.23279976440768296
Ni 2.3740589584505747 4.5012601774427825 8.441999208316446 0.0156850148354246 0.9372601762231472 -1.1346005713819556
Ni 1.6599823466822565 4.515558171793249 1.2316297882518863 1.1753731253136273 0.24673745753469764 2.2238152584299447
Ni 3.8791771942670157 3.9418534605756235 0.11336108405653321 0.12250098145041484 0.6297125293796123 1.9419971551420294
Ni 4.682084488917757 2.478343683092136 2.300689716030707 -0.064950693839772 1.5161466240898278 1.2215449958839995
Ni 7.243404630814795 7.680473786706558 4.5481022936042805 0.9301140520966692 -1.0109968437856651 1.4757088277897552
Ni 3.2551243063068696 8.901990472227375 6.029082259527631 0.21614955744551162 0.5845842695824062 -0.4584960850013652
Ni 5.458689392926372 0.08922373900137094 4.3136188856083475 0.09587926509782842 0.3230262020951082 -0.09724117844236156
Ni 6.752306443231296 1.0625647910179332 11.876161039223444 0.0027359108739243207 -0.06261844616216958 -0.5163525909985172
Ni 8.127115015142133 4.891181095819233 11.870137569805294 2.82386702752033 -0.2587375673193673 0.10258187392898462
Ni 0.4843283739583099 8.978234110924166 11.897886406965151 -0.9001216194996369 0.6014954435154479 -0.19645413589911329
Ni 7.9346192490292 2.783253499224419 10.493776195015128 0.2955048567463878 -0.8519437742428295 -0.40778390335847836
Ni 2.1220868652562395 2.8385958007724055 3.3690134728196846 0.3249660994302984 0.2443645864271469 0.4358156126847139
Ni 8.692292720673388 5.554114170227865 4.618205008466202 -0.4676345569675237 -0.3077685046050893 -1.7754230946318006
Ni 7.903276491685261 0.44508102685282996 5.8670173605626745 0.4968782843239894 1.4684853134581226 -0.7942371635599805
Ni 5.683831937860228 8.750455777898537 6.7621078755809885 0.05865611908031188 -0.18651630796011104 0.07626071953595254
Ni 8.962761572406489 4.767567258504663 6.848967728841106 -0.008487982866353123 -0.5370479145643395 1.6259329861870515
Ni 4.400545327199204 7.70758078634512 8.664367239469486 -2.129796186469306 -0.954271623179479 -2.2180269338829413
Ni 1.798634048688844 9.07994778612884 1.7822773651130135 -0.6543025600141505 0.9227961782790172 2.5394179143674718
Ni 1.0847424045059133 2.407223646510582 11.749262177592389 0.11530677769482078 -1.065373618764333 -0.5431712538532582
Ni 6.560624534494068 4.870122536222848 5.982505571851166 -0.16412302786657543 -0.11688003571921161 1.6000743732527345
P 1.2332158852965853 4.217889836628893 12.789349707634013 -0.6534985760556165 0.6019965515215826 -1.06257651563517
P 3.705622108897777 4.474541609733536 2.469347784576807 0.21902070834571957 0.5175247569297474 0.07510398022369001
P 7.501795099222082 5.904137580436196 2.5217315295965186 -0.2431003750027426 0.315115946109096 0.5363434322981473
P 8.11471293854189 6.693348025388982 6.444297495205844 -0.27629537369747253 0.906160112384233 1.1499212608994258
P 3.633891679284444 1.1174261768439122 3.7289076782222295 -0.41740574271895853 0.5871587151778017 1.214617929746863
P 4.3230809024388535 0.7380317637518738 8.07430861918981 0.21540805129379675 0.3459686698238945 -0.7474137754485386
P 0.7419780471861196 1.117444673602451 0.6107472447052847 -0.9022147545832397 0.9219597984206509 -2.1784396585086223
P 3.624856012738257 1.5339916758954542 11.748842301173559 -0.1507167817629985 0.02415885663439065 0.5785912852237648
