# total energy = -381173.81754785357 ev
CRYSTAL
PRIMVEC
9.19785147983198 0.00000000000000 0.00000000000000
0.00000000000000 9.19785147983198 0.00000000000000
0.00000000000000 0.00000000000000 13.46198537380914
PRIMCOORD
 96 1
Ni 8.77712319806938 3.7754788197786446 0.5449791287805282 1.0486228816685554 -0.9389884717681635 1.8402398339968693
Ni 5.660799194772696 6.8371215970206105 8.36970621373826 -0.1647424066181292 -1.2517474876093089 -0.3741754712754136
Ni 7.295413736533201 0.7337889413895804 7.374125268927791 0.34770879244345276 -0.5427444507284847 -0.8707071708932617
Ni 7.0797517168015 8.402844232448091 3.9678932703171914 0.7556683021478471 1.1643186672716785 0.8507422977355605
Ni 0.23565170998985271 4.574634131093046 12.010109988062482 0.8573780578845235 0.917970988976232 -1.5765945449632395
Ni 7.213267726458401 3.034380345950766 2.3262846824184176 1.3813624543966854 -0.6115232600650952 -0.01902076407687692
Ni 4.078235293591441 1.6393422373352944 12.644627440017922 0.19953637436886282 -0.1737870333189007 -0.11921716849282049
Ni 7.921309122668004 2.877501793959301 7.799766875850133 -0.4622000162155137 1.0696200527455129 0.7932200351493758
Ni 2.8218547935167373 1.7752588861848417 1.3856691772682326 -1.223876986451286 0.10226125736477228 -0.2449430846384362
Ni 1.7427904710505857 0.8111934591126206 5.824960605433652 1.381743234774872 -1.1908835622444005 1.0308539877209084
Ni 6.477292455811764 1.1318599890017411 11.087815682942303 -0.7481077161917696 -0.8122981348267495 1.846843455356316
Ni 0.6474165186365405 7.133292409293428 10.912998561535446 -2.184775628028979 -1.5744512733679916 0.8248232638769537
Ni 4.375758190007243 5.496102469165334 4.3280277801896245 0.2423457562249052 -0.9969028275864443 -1.8412320227068095
Ni 5.029661033389585 2.626897137090196 4.3065829898537835 -1.0678400780269546 0.7431889387339137 -0.35751369434901653
Ni 2.266736873234087 6.10018974983744 5.964278619698679 0.847012141269167 -0.8463917340763488 -1.6492300090417789
Ni 0.21005408978627355 9.641555660150866 11.388301207265965 1.1539630350689674 -2.576736962532904 0.3316725649161965
Ni 7.970398055124527 6.614036911279464 8.986413866196687 0.29525571685005925 0.42156450208233853 0.5066785582438629
Ni 0.605916733298226 2.8838299156625213 9.984175621553428 -0.8671536492140485 0.18589255833318308 0.5931799816712171
Ni 0.2615850517663499 4.634015459168615 5.424385902694142 0.2228819910733387 -0.212693223465795 -0.6415889691022241
Ni 5.706236580258029 1.8145429091418976 8.972816682600946 0.15492516341739124 -0.11561376741227833 -0.5088205442875302
Ni 0.35877874658892317 0.7791150328740282 3.835602414455158 -1.204150968777268 -1.9586884997547815 0.23486667423904067
Ni 6.941213680327799 0.5349139200889088 1.74510373065576 -1.8235459182809564 1.666001572073163 -0.05632644250587073
Ni 5.024859755004292 2.2364759424149083 1.8835203554921316 0.6292767273937743 0.18071204257350815 -0.5289018884184375
Ni 0.838617772586926 1.4657787830623734 8.07381225678996 -0.06880297770632667 0.023582415305630353 -0.10749782317336325
P 8.7152952415446 6.424551976384051 13.179350964584655 -0.23881614580509192 -0.4600014659022981 -0.6261096425197025
Ni 9.362216915780511 2.374544888471655 5.951934183451743 -1.2130333588685625 1.216111226462938 -0.1841038418638765
P 1.069277808669311 2.3156326508130407 2.7556550982629755 1.5673822823363524 1.3925315836396275 -1.1934119850932092
Ni 5.626380835160121 3.9853645888858935 8.531385124329887 -0.2638401786532553 1.7247782758917392 -0.2420984161007895
P 3.0506973341797092 7.700441119093248 7.104697209347 -0.2192888744054417 1.097527320678742 0.12612186603245376
P 2.0304808644129824 1.3256587161628672 10.829897814494375 1.8216214475647339 -0.1607937063830263 -0.6826985946583404
P 2.5181693367213462 2.688485949480842 6.49500383829973 -0.03816674087770846 0.2515842441040377 1.455145916036739
Ni 1.0330658680507372 5.903558084471965 1.416873807632107 -1.0883572241436998 0.4488757883027818 -1.4289327479764808
Ni 2.0645956949322333 8.530740354952858 2.2587053094677327 -0.24013537883714775 -0.46174030297027574 -0.8713635735303381
Ni 3.4628438536558788 3.945022813027863 2.561721162687551 0.9348780491442157 0.37750916363433695 -0.7242234533750044
Ni 1.3446430812725283 6.429298067661466 8.026399172842632 -0.2983726652124861 0.32612489562508995 1.0518740416160013
Ni 7.44568823128206 7.811983461963821 11.258002605998287 0.5549829017762056 -0.6322622923846595 -0.9823133598080438
Ni 6.74649516803539 7.662058485564847 6.399854825823997 2.3645276206820633 -0.11802186263313869 -0.002548991674098836
Ni 2.0951141655881713 5.37236377545396 10.231351319453113 0.5720074613586601 0.01594752446819189 -0.07011732564237602
Ni 8.442027079040706 8.14537797849962 1.9972333912725304 1.5969090881508754 -1.902402680678859 0.0634396565118843
Ni 2.934335317221218 2.722895111242103 9.402564210349327 0.8561143606807514 0.06852298457206263 -1.0410232149444265
Ni 7.2003815367691395 1.6756921457235607 4.60025658549517 1.3281151650367709 -1.1393249734408186 0.6043676228569205
Ni 5.756392463466838 2.522391150473931 6.594635883505332 0.6307139740609331 -1.064627484626928 0.20736101261960418
Ni 7.760935387177667 5.635477510108501 1.7540293255697208 -0.01192657623425688 -0.1319112190207212 -0.8253629384305076
Ni 0.7496635129703773 8.234965050286492 0.1325355187069544 0.6484643560658188 -0.18126020176749427 -1.2208675102010007
Ni 2.7200805687403795 3.4946776170495504 11.576405544679323 0.06137917443842977 0.5945526936490276 0.9459309645242678
Ni 0.006532314002365055 6.852923505576036 5.6844579079195325 -0.2623677078727869 2.0987452307007723 -0.6007379965241331
Ni 4.294210040267777 0.5323559976388135 10.37721176535695 -1.4108509507741056 -0.1431767646322115 -0.11974013087582602
Ni 5.231921783758505 7.302992766014964 10.714797742736003 -0.23791677391927413 0.07453396665283293 1.074997257897026
Ni 4.410351308794761 9.153287723209795 1.593374135829212 0.18438820587351468 -0.3328763554163106 0.3294914981044777
Ni 4.881253702457228 3.7735656667055784 -0.19425402080111062 -0.030547790879869967 -0.5663361220054957 1.5228561748995193
Ni 4.370055522193295 5.875063141104847 12.560058715907326 -0.4596623373953245 -0.00761560756372882 -1.4686910017110253
Ni 4.671809430212994 7.384678883524122 5.707491167177097 -1.1508134336963922 -0.42228235408496945 1.7959708368761649
Ni 5.0703983168540665 3.3672137935564854 10.93408003674443 -0.6758802861849263 -0.028178262206428887 -0.3166588651161837
Ni 5.141442520394291 9.125298661664882 7.738703260769449 0.7715752031860905 -1.3254918684813106 -0.8207691484122381
Ni 7.6852738622784065 0.06732551225445155 12.926144235579155 -0.13004356968436312 0.35056323117311233 1.8614637763726525
Ni 0.03805610980679444 1.0205659881166143 1.266102628912355 0.35738616763221676 1.4088668304645413 0.30977550773278906
P 5.930379018900149 5.449331395239642 5.973459914879138 1.380249680948481 1.1639330017974856 0.4736193137960488
Ni 4.286796572109644 4.227341661223573 6.161765685236246 -1.098857095233759 -1.8599565956995063 -0.010053013360627848
P 3.078171316051104 8.222189234812983 0.14522487437812145 -0.06885028600449432 -0.8388254916933167 -0.20831951987813155
Ni 7.279078352601632 3.0848121646989606 10.423655395775905 1.6584026766799829 1.073975758611047 -1.541400770670926
P 6.35218328225478 8.736284738240457 9.4765912770703 0.6281400426861697 -0.15891191597928117 -0.12151573471901007
P 5.580639920581465 0.657814689545684 3.623508241247701 -1.6075004905134769 -0.2895668939953981 -0.7438671957478609
P 5.9493449883071845 4.641815237081886 2.5970188368856304 -1.817095277559606 0.6619989002171437 0.7493927535517804
Ni 4.615886494231045 7.593773637418469 3.5388328220618765 -0.8241390933257354 2.1174505204197596 -1.1961208993839398
Ni 6.118456682544701 7.44089615074808 1.8112427200908576 0.7864490349741294 0.38062945443087354 0.4572437006515028
Ni 7.036163099430044 6.1836142612447205 3.9466499129251016 -0.09678403630028493 -0.535726881760071 0.597008868499004
Ni 2.152793891170868 5.957402306057215 3.2838490681827373 1.6519088414255227 0.14157136781830457 1.8596393215694036
Ni 2.064503716419105 8.164031220962022 4.572995993774232 0.5233015115125246 -1.223105398392584 0.0193722338790247
Ni 2.375207133766178 3.7226003725812404 4.607728000116574 -0.34148929389630217 -0.12084956188992091 -0.2011919076944148
Ni 9.207784992238256 8.211574914397989 7.963935644792139 -2.2087493652357573 1.590871623707544 -3.1993506760842063
Ni 8.207638234036104 0.7835897875377152 9.58259099473977 -0.20599241440685168 -0.10348587380049275 -1.2586928085788904
Ni 6.427044594089826 6.71697926317255 13.205843535720971 1.2784075133989983 -0.38003450115935195 -0.7215032262303638
Ni 0.815040000531642 4.153372540965871 7.815772976704702 0.7187171788447945 -1.1272994097348519 -0.7030033676539635
Ni 0.24809640281609874 4.238103147259573 3.0452899173929024 -0.2545412698498326 -0.07609411205110121 -0.007436915894019451
Ni 1.3578603936090514 8.638116071178723 9.498884109297183 1.8961710979468505 2.0229776487511546 0.615088094598218
Ni 3.4936106662972635 7.531209852788664 9.21487653560044 -0.49942059112986886 -0.5359739647738705 -1.456900951054633
Ni 7.866287576114711 5.373596287529878 6.945172435532838 -0.803893455702822 -0.402652495669184 0.5645669459202147
Ni 4.0909375262544465 6.411251883385713 1.4044346335166489 -1.2889158691294897 -0.3544275992245251 0.1016400788410056
Ni 2.2297063238486725 3.9556187377402328 0.4632093108244235 0.13687576211484814 0.28957383597393355 -0.08143043666235009
Ni 4.199637733069358 0.5753090434845535 5.585606760290388 0.35459806336411837 0.19959885217568205 -0.17637999085705752
Ni 3.156978506099349 0.6748426716811082 8.063701978626908 -1.7190825110585426 0.33106552745981693 -0.6359736797979757
Ni 5.244780379893828 8.710024872742354 12.702823165059268 -0.7806835932452619 -0.1405472974291644 0.2383528330154282
Ni 7.052544472618178 3.963988782434899 4.707938590169752 0.3090964793878935 0.1820950389639638 0.33449280797381103
Ni 3.310490644510322 5.064548483419112 7.899169894558044 -0.07464323853718759 0.26457628548833145 2.519896299394776
Ni 2.0153044097468285 6.135905006485121 12.774831303417077 0.40552776033445 0.19504748535957375 -0.2484593253218108
Ni 7.101017149036741 4.507250672375323 12.587400248719817 -0.5435103823602317 -0.3903122289362762 -0.16057824793811054
Ni 1.5641498028529877 1.820512314643918 12.866063870803812 0.018888609374386824 0.13285404254996475 0.5613589805058785
Ni 6.6137701735913925 5.2650432463359715 10.341214134673965 -0.22820108929340702 0.856257571126835 0.4220838649209182
P 4.2916530376028135 5.357076946572053 10.216260404804167 0.29564703875120696 -0.4611031836069091 -0.7661085236445645
Ni 2.735257023406533 7.968227362214701 11.301673084246428 0.9204256211643117 0.7290126472335315 2.156614077993099
P 6.495366233641455 1.986248397449629 13.147688281225403 -0.47774516303896436 0.42344680670671586 1.0840516547898105
Ni 2.9102553424842545 1.2036032292417402 3.6625218473761603 0.009542649383112597 0.3071807504224193 0.03368607939853553
P 8.77464897606623 0.16509131342868225 5.881554984561435 -0.6326189043931298 -0.92775635049777 -0.13926277428978598
P 0.12175195782780376 6.629314542310059 3.3391511492010704 -0.8196478903236013 0.27112591368139116 1.1514747214294747
P 9.196342865205107 4.9950495188994415 9.631633018154595 -0.6136732165285624 0.16884563015322535 0.6776157808187943
Ni 8.574972821916212 2.2571435143148157 12.171909390506306 -1.9492245261284045 1.3824073507214318 1.075976848201476
