# total energy = -340889.77685061056 ev
CRYSTAL
PRIMVEC
9.09683739694207 0.00000000000000 0.00000000000000
0.00000000000000 9.09683739694207 0.00000000000000
0.00000000000000 0.00000000000000 13.31414105283979
PRIMCOORD
 96 1
Ni 6.455434069753744 1.9774977620682153 11.611288518342434 1.1306909519149044 0.2825081873764038 -1.2805379294784398
Ni 4.575390724659425 0.5314317713959597 6.320316017701247 -0.5327513440715148 -1.3302599792939154 0.008712183062017254
Ni 2.5019031364072686 1.7570450092496364 4.876051200795521 1.0841750677415523 -0.4244662491101658 -0.9642174215382814
Ni 3.7179865276053072 4.499705039116363 4.833206007245128 -0.8574222808588975 -0.5151516287118805 0.5306612943117054
Ni 5.100878622625838 4.352536406818807 2.7980070067875324 0.16379444088256306 0.8864860309940733 0.21240963078710515
Ni 7.069261353814949 6.199858428487837 2.464314095393749 0.5513982697487407 0.45060408384779815 0.22118557720752227
Ni 4.988277971706123 4.508219678739958 11.288687380552336 0.1814293803555069 0.23518729080325304 0.8301557318334605
Ni 5.641358108305586 7.58986425020244 12.647914053584854 -0.9379325196998235 0.6591043522781682 0.7709180292180658
Ni 1.940346278924241 6.389236385415178 0.19388362039482615 -0.32460871609087966 0.4880676280108949 0.8772424009086182
Ni 2.6576409893516475 1.6631565524599792 0.3806462366258171 0.7250927433538351 -0.24687578288477482 -0.5937199133350871
Ni 0.6095990741284629 -0.30458667107364157 4.436857719920287 0.3200738043350036 0.649228745035669 0.660633644438501
Ni 8.886809427313011 2.3156544914783432 1.3926721046992985 -0.7949750701672696 0.09160326343029386 0.05017430686154585
Ni 6.872442184054168 0.8395689380305937 5.101739183425402 -0.08654333240888322 -0.3161726695083845 -1.1531374538438786
Ni 0.8560651426175877 7.473997834726239 2.112195540241855 -0.7994976406279715 -0.09202646701064152 0.8497333968550721
Ni 7.488316256486429 3.593878377621653 3.900577334294225 0.10708850355008653 -0.5455420680782799 -0.9864579781040367
Ni 7.6762660099726325 3.698573877010488 12.664876925920447 0.531486104205846 0.5042612070516219 1.1770008907250376
Ni 8.065346834054642 9.07684235651909 6.88719179589786 0.5589280024668826 -0.3652133769861194 0.18573057883402205
Ni 7.235897217730551 0.8198997566266022 0.4712843934822367 -1.2378928411144035 -0.4244364243134948 0.13100336249447117
Ni 1.5775462175265944 6.661677562858589 9.128188544437272 0.629091865076478 -0.38973501627656754 -0.23883105820342737
Ni -0.11677791856411078 4.722140902445566 1.441654934311699 -0.11872865889217618 0.5496429776205309 -0.3238263293989004
Ni 6.548967749892418 1.825480515540557 7.40011969073575 0.4416702716932781 0.011285857326464435 -0.696234424361246
Ni 3.5816431315813384 4.358958773885322 0.7560927211054305 -0.38225387740817396 -1.3816979833592333 -0.006425701020685707
Ni 6.215914346154125 5.478897692666939 4.699958264921917 -1.0072720866359104 0.8187405480179836 0.9692092183259179
Ni 5.508798996558772 3.261434461976074 9.007508992396067 -1.0905586026703928 -1.221332365652561 1.8564203004114739
P 0.11283534931959596 5.5592318620216 12.592207751594461 -0.0737747198893052 -0.1203808497836185 -0.22139126546042517
P 3.864636640182195 5.899262539895895 12.718479129465392 1.211482726551991 1.0835960553096307 -1.9454509180185848
P 2.4201498604486744 8.677263782302862 1.2544374762204735 0.9205400352549887 -0.31569598698228213 -0.1646051097093165
P 6.347509193157242 7.768526132902649 6.117940499775838 -0.34780649436358163 0.3813164531955691 -0.1658127568641725
P 4.968128477297723 0.7660210092306347 12.523693102819859 0.17545285105709782 0.3253587068830267 2.883597096391111
P 4.133648309999436 6.2743069441710615 8.28926457216449 -0.0399837394817892 0.1731044054295793 -0.15741887637352242
P 4.452510647698405 1.148985119976208 4.027727466639129 0.6419990600564491 -1.4161456235141416 -1.7718939984326194
P 0.09904818285216022 5.711576594688627 3.384254499811543 0.24197628870062846 0.6409433650984252 0.6900105549387213
Ni 1.577236925061635 1.2336584806775093 2.658194986737413 -0.029234214274769008 -1.0134206227358094 -0.44686904228539814
Ni 1.8729841994234744 6.28866175328007 5.0963866044141595 -0.2581025048385297 -0.2668918209953855 -2.5694859373974457
Ni 6.151344995675199 5.681138577401718 9.256110088577133 -0.33245443738754354 0.07218886345942406 0.23837802982640882
Ni 8.89823505484211 2.8530228588340867 10.401659333141128 -0.0018026004263775408 -1.4421276494002002 0.1836883515930127
Ni 2.505532774451942 5.351287260359477 7.139601737816532 -0.8278939323824773 -0.7902236715252133 0.2373578160920106
Ni 0.7152451930051885 -0.1916749083215262 8.690285904761383 0.0023461316346733785 0.3824937613331219 0.41034780743091265
Ni 1.530943120526942 1.2140729901758007 11.426235197822205 -0.11306760395165688 -0.8640606121110217 -0.31093738925137415
Ni 4.074209575703959 6.74232102467821 1.4777366294004015 0.8950717157805553 1.7008932417440255 0.45120443643595837
Ni 5.382471218297172 8.138358049459525 8.217873503465764 1.9080665638328558 -0.23827801391343478 0.2699470628819416
Ni 5.103580383275632 2.5532274919161577 5.373986598236353 0.9983128205600935 2.265667675689356 0.11273310343037359
Ni 0.5699841674694571 7.251398228327353 6.736729198848484 -0.02027494819895218 0.013982944542653338 1.0341084901024642
Ni 5.124321172102337 4.569550555174011 7.139681789983934 0.054958358513750506 0.9250268673817489 -0.9248661734341685
Ni 7.936926783235963 7.413958709175252 8.797624945041903 -0.0187166025728968 -0.09122839658937835 0.7290298736247122
Ni 5.0727148146401015 0.258551216715562 10.524242853209273 0.18604373919906667 -0.6744774923001288 -2.1971241222920033
Ni 8.069886155819786 7.175284991435669 4.92040010153585 -0.4907323193272516 0.278363826190727 -0.7082880130916706
Ni 7.316477001689741 5.84422667480749 7.105877033247567 -0.861699825188329 1.0939172347299806 -1.0706315247291627
Ni 2.3040105398563333 5.462077640675457 2.536796784557038 -0.5436440797246185 -0.46350613662144685 0.9635098539482954
Ni 2.068275100533867 5.516631373392014 11.232541701324958 0.9294573923492766 -1.3869708017223985 0.2755870347765383
Ni 1.0840064118230714 3.442679846442417 3.764506843386397 -0.34982146791108143 0.9386729974102737 -0.5165253691309556
Ni 3.499535078971761 2.6933642690544843 2.604991224662034 1.0245802388970549 -0.25308165458517057 0.9487478651477727
Ni 1.2796429927472424 3.567069998379417 8.503155776307322 -0.3002367150044184 -0.4032294512185765 -0.5105005030931143
Ni 3.524660543331129 2.852085884602003 7.297254474992499 -0.43134909227292806 -0.3336325168560448 0.016200006798630165
Ni 4.04226148344107 6.8784915807952896 6.012945714442969 1.5587503176929671 0.6555487737164258 -0.38198494001750344
Ni 0.8180385437345216 7.513068750520405 11.65237620294488 -0.8017149599942645 0.7638891473957424 -0.3323179118096793
P 0.13663722386568047 5.409134048144132 7.988910659442193 0.5780372124925076 0.9089528446380216 -0.037538106154774056
P 8.866377930951266 1.7405888307463433 8.02395349572212 -0.29444170558919613 0.401107005558935 0.4642496996556908
P 2.097912596146763 3.1400007821306004 10.595179989731488 0.2036092588866558 1.3222815890741293 -0.4220285862029506
P 4.136568394742143 6.320118616333906 3.7690470748352602 -0.020321742276487583 -0.5031214370202238 -0.5029293756140758
P 6.99912473896675 3.9304249668465494 10.5783508409028 -0.633843006608218 0.8921195751307669 -0.6827829268420306
P 6.354932212316273 7.494565783646054 10.456579668397033 0.6452885294409983 1.232075205991362 -1.2168257360314592
P 2.387055566697994 8.425063067639897 5.622268395431535 -0.33523559967710653 0.5095839048161159 1.9340267353420435
P 6.7864770724698 3.660658259541319 1.7257919153491863 1.328471777045241 0.8205783725576706 -1.2332800249327407
Ni 5.3411169963646286 2.666837891765594 0.36965361854766365 -0.29302091398226954 0.35175545170900063 0.3074648573217415
Ni 1.6315905273596876 1.2067318425516118 6.873904045792963 -0.4346277630241998 -0.5954119563255295 1.0946870230164694
Ni 7.578229395417634 0.7306970806810834 9.557928592089386 -0.33951751488191206 0.20549644860703964 -0.6628939012275873
Ni 2.693073170263934 1.4251560006735438 9.221973297282796 -0.06371193633666447 -0.49251075138391315 0.12250098145041484
Ni 6.452068239988007 1.7858546926769054 2.7419140892159417 -0.7449488588478138 -0.6088146028846806 -0.1011381995039226
Ni 4.217120888189718 6.97883879200028 10.537956335295354 -0.9645262110279519 -0.5822710480681972 -0.4729194595155468
Ni 8.343437147402168 7.488971228765167 0.19040408016403032 -1.1760359557086069 -1.9161591110330032 1.6799408078620748
Ni 7.637686323387521 3.8271394772244425 8.312697115120065 1.9749754098402632 -0.6700755065776912 0.140966387244454
Ni 3.26212582160363 8.62064506754084 12.162441323114454 -0.845890111849582 -0.4480394084444155 1.2200918083772407
Ni 8.962713436948986 5.213370111499096 10.201880052553939 -0.5294737017615074 0.4562965062468851 -0.037918372312328245
Ni 8.891194102845674 2.430392899141161 5.659788300482299 -0.30230439616672455 -0.4781786510319571 0.8783708580861066
Ni 3.964192426550378 2.3519963561110995 11.487946322051416 -0.8292013383399914 0.3924922673067305 -0.5044339851840604
Ni 1.1631579923411228 3.3804483831250987 12.617744392995482 -0.1500989456733415 0.8903642830025569 0.364434846948882
Ni 3.0869480275528187 8.26897953488174 7.830499246043355 -1.3775649350274664 0.18637309751402742 0.439322854507024
Ni 5.635699875564267 8.020335683565811 3.8429006573652966 -0.5514291229866761 0.17343684906833357 -0.06637405654985988
Ni 2.9624941977553862 8.388211780123678 3.553543911139756 1.0542422847378619 -0.22962496622412712 -0.5884944032700896
Ni 3.4958053757178362 4.545189225139838 9.3942710326746 -0.6238694403352739 -0.30179377507889316 0.16942927057083723
Ni 7.16869888129947 5.993624032220197 11.727162211288398 0.71474533868124 -0.9030585906407738 -0.08023127414792634
Ni 0.6136435279496704 9.332445288296611 0.17230774191273054 0.5988279239856139 -0.5050533639356141 0.6645620329586297
Ni 4.542150881513471 0.6082336388640381 1.608641026459683 0.00999619198076343 -1.2423099963454927 0.02275194898453501
Ni 5.957545975866377 5.366278848072815 0.4715945956309168 -0.2648570499535438 -0.5712001349660163 -0.11455164469635111
Ni 7.751633306213531 8.68105716341722 11.65991202288525 -0.03491532381994632 0.8421738393402594 -0.5726630926647879
Ni -0.4007338725412246 4.902012664493999 5.408110653958604 1.9147187790420506 0.5508501105547545 0.4635501024855049
Ni 7.9000754957197445 -0.27797569319874726 2.871953377057057 -0.18727941137838067 -0.6208257684129437 -0.7456736528289803
P 8.719145620793277 1.5956489235639377 3.558324299090823 -0.9896854839023987 0.0534401220970112 0.9088242894799573
P 1.763294536409262 3.2635995092307915 1.5686058459218204 -0.35550206323562644 1.1834587305352393 -0.47684553404283037
P 4.726944032489644 1.2277000523084338 8.48499576019559 -0.04088131159539411 -0.12173942069404196 -0.19622813593123625
P 8.66594731682022 1.671334609107 12.30941619277955 -0.7075261952249815 0.11076826639451891 -0.17585677136373584
P 6.274971013287004 8.182941648599735 1.4836877802997128 0.30490995211037164 -1.1737016511484752 0.41914792222104585
P 1.8094791788974987 3.5666333501935914 5.906659178227033 0.20358277652409457 0.0657618768871577 0.4219609661898088
P 6.925258420864627 3.7721854836708797 6.1155844189398225 -0.37355609252385985 -0.21992059445216963 -0.25955003591833364
P 2.177264307083318 8.422288532292466 10.27566722817238 0.7716518220602969 0.6390201799337833 -0.7012712154542052
