# total energy = -340861.65803702635 ev
CRYSTAL
PRIMVEC
9.35141100163360 0.00000000000000 0.00000000000000
0.00000000000000 9.35141100163360 0.00000000000000
0.00000000000000 0.00000000000000 13.68673525600366
PRIMCOORD
 96 1
Ni 2.4385861832454774 7.014166189376232 12.723887207660317 -2.8359370713109873 2.376116868181559 -2.413428203037508
Ni 0.7006881440105803 5.043412402152586 13.170621885031295 0.15709903114025847 -1.5583731368592066 1.3447725710877938
Ni 3.8834914197955097 8.365332880757103 3.3865910974165545 0.5454381955105639 0.35297235483523726 -1.1633303352164803
Ni 7.972947669733757 1.1861703933995573 10.42222999702996 0.06858983325425606 0.6762821496090353 -0.7295800897012275
Ni 1.8801947218387542 5.035248620235918 6.476494649610702 1.353207075008392 0.8828941998777569 0.4957811946050687
Ni 5.7233722082519565 1.692446440577655 1.432152717191774 -1.0304600947165994 0.31719159769120214 -0.7473186446315709
Ni 5.158257082242617 8.380192273042997 1.1729269249569627 0.6842520551883893 0.8034512259590808 0.6186323603060507
Ni 6.650639433100694 3.993024498363586 0.4398959904114598 0.13803070165489778 -2.1233527448368075 -1.2241508089379627
Ni 1.7639286272569317 3.6984456963510395 1.41869884199875 -0.3735794895626276 1.199954157087101 -1.2100195117429033
Ni 4.2496085169541145 8.203039140592418 10.505513664555554 -0.5389878118995297 -0.482535385338756 -0.7986139524714375
Ni 8.278533082646552 5.944327350436409 2.6407730432916114 -2.056595079695284 -1.0810627473648156 0.06409888736243799
Ni 0.41037919632008485 8.687320668792276 1.8619575998526312 -0.808086410738247 -1.8047596388123885 1.0129945909419844
Ni 1.5829040105984487 9.520952213994285 12.478196647895363 -1.2726693253636405 -1.5150683034239842 -0.5092800004224519
Ni 5.429195516918008 3.932988438907678 6.253989978601974 -0.213401048166097 0.5700356823442699 0.6218066442689743
Ni 1.5568790334230918 8.885177825485126 3.858510060102284 -0.49403567266887183 -0.379468858463869 0.7346973563231346
Ni 8.764048997115598 1.8917250117622955 5.774720806767904 3.471882726084505 -0.7863433626342006 1.5719555035293313
Ni 0.36352862655776436 3.6821181325177035 11.19472295140381 3.080503489336295 -0.15836298545434663 -0.4901995867522332
Ni 4.668804223687755 1.6110985151560129 6.507741454761164 -0.6867172288994302 1.0386230901433662 -0.5650094327742722
Ni 7.6146483522800015 1.0071469787229377 2.3500806877447777 1.0136725908456155 0.0935642438114066 0.274848613948617
Ni 5.141490002086162 2.8370872171479773 11.658388358626022 -1.0046151086290376 1.0606232485635412 0.49947407007562367
Ni 2.961666716224551 5.057280544858677 13.386119543680161 0.9808768844718333 -2.388570006343248 0.2212943348712447
Ni 4.537323383197092 2.5800169251786778 4.179929282340741 2.9760755633375067 -2.019031005398581 0.4755795228462132
Ni 6.594717994542076 6.1114838243888 4.69070429341358 0.22177615960366967 2.0389244018883983 -0.5665045292625599
Ni 1.733134430405171 2.5281352962283075 7.273801573418546 -0.29050226132547385 -1.7881629107959722 -1.439849651999301
P 8.936619938112377 9.081267565474368 6.642665484829969 -0.8723143674793815 -0.2194379983887963 -1.1633866423757124
P 4.378283934105717 6.354180997450976 4.074459391908738 2.8046647435602665 0.19609366723590102 -2.04507473776051
P 6.548101210058011 0.06504374011613177 13.592625820527337 0.20023031511209388 0.7527922661516325 -0.7670269216937757
P 1.9597565277345275 8.609797470522889 10.054165936074048 3.1090373351099294 0.5674990319653452 1.6746155389944193
P 5.843276001763428 0.7278465122149178 3.9194298279099957 0.870811814791926 -0.5759816155150597 0.0177336698343372
P 6.146084045570554 7.697698234527341 8.92210935346164 -0.9078619255666882 -1.3281678726515769 1.2195932714742672
P 9.02765592546491 2.5363458352006267 8.21847364466282 0.7160974818337603 -0.8156997043091305 0.398895599729913
P 2.9038469412065013 3.4186327725130847 10.879996534111239 -0.416367017041799 -0.8323835927227148 0.36457342940927534
Ni 9.150477359249004 4.115172630546306 6.52662943496195 -1.1231000269415239 -0.7316621690412367 0.8628843324147333
Ni 1.2168617247288855 1.2892697011100527 9.669788338401494 -1.1302255822427116 0.8824257448817706 -0.09962793350698326
Ni 0.2954297804253951 2.3056184683851106 3.5875538577457453 0.04641612537069425 -0.688952288877536 -0.3802363327575129
Ni 9.021960916086616 6.138696430777692 5.344601716693073 0.17682967679996645 0.6201799072988287 -0.8650617996820265
Ni 1.1113029958911462 4.876807661456876 3.4161406214468855 -0.013639445160305543 -0.5742499775359337 1.54090840441554
Ni 7.624299008566372 3.6337619855634204 11.54146298955952 -1.2945866942620219 1.8619617990549933 -1.2469824621204977
Ni 6.8517882865113755 7.892506831191745 3.081965139285717 -1.295362138975466 0.29414114362964183 -0.1823243813659505
Ni 7.40426030467268 8.131865550480438 11.88255009968702 -1.5342950128640802 0.40133763351250235 0.4079065449792717
Ni 6.152770304528649 4.307605968783638 3.5949031317529716 -1.4298776283882535 -0.05687563014112141 -0.9597845825779082
Ni 2.738298909968506 8.171066665938252 1.1405962912565093 -0.3330535044241232 1.3837039580456685 0.2678729539617322
Ni 6.938260785232369 0.7155671742598474 6.3719009864016 -0.8072765132424419 0.11919094324057536 -0.033997954211999505
Ni 8.677959906250944 6.10503135070896 11.902970776172047 -0.7662933859618609 0.3312149085534876 0.26713581868539155
Ni 6.846467333578289 3.1690155552145574 8.068631308418 1.0172911614348092 -0.7663844030137704 -2.084987771905364
Ni -0.07218728307849438 8.40509508088273 10.634483651157758 1.3845264539469642 1.47473026592657 0.4648778201579929
Ni 7.064046616344739 7.70909760469506 6.618179749926643 -0.001017642631236957 -1.1980903644054852 -0.2655075390533492
Ni 7.7440157738552395 7.821005941690207 0.7793456684500626 0.00042628890414120134 -0.517194113063206 -0.20796573608313862
Ni 8.598089503787874 4.403102579245278 9.201482760976475 0.006224383643157022 0.4460231493453351 0.19386632056727904
Ni 1.6543487916332051 3.8360236568985964 8.837881193411896 0.7923034368723775 2.730642683546846 3.537087959137244
Ni 3.8434206231025874 2.9779381715911053 0.3530784246197617 0.3393107981877447 -0.6028357595934263 -0.15697998906389093
Ni 2.99146966349651 7.130292012791102 5.273499197305682 -3.5863541523622238 0.6279472099490733 1.2529584771982742
Ni 2.499379707002931 5.585747490648748 10.804090194826262 0.2958082469194196 -0.8272961508974785 0.387866595609261
Ni 8.84769736967527 0.7838998056704718 0.34250197863150134 -0.8152351059678863 -0.5867226560816476 -1.555301439912418
Ni 5.7654629097490036 0.5725513681400773 11.177505133230879 -0.3223183773948062 -0.20667915606123116 -0.35649348061461833
Ni 3.562990506130039 5.733135081471889 1.9815378345389978 -0.4346935832651288 0.0076269204176384765 1.0038826013383872
P 4.994354899363536 4.034180058747612 1.8010378320449192 -0.8179226801023785 -0.9616969691092728 -0.03489758320813345
P 0.8328507023726361 6.037168160137071 9.65552650128682 -0.7517504551506796 -0.2659721373945936 -1.0415356358044707
P 4.161957740430716 6.905904902721864 0.05967883555073392 1.8806449772867935 -0.8864520924323444 0.6143167636498323
P 8.03701418738678 5.5814832471733755 0.529842538367324 0.7890491916011378 -0.03738718239920658 -1.484947315668888
P 3.741836243995184 4.610853528913883 7.816179678405908 0.23125813095217596 0.187392025696845 -1.3957261793175253
P 1.4683959813091045 3.3584564418902234 5.172655449959791 -0.3203450557185193 -0.07896449162036077 0.14853288673780224
P 7.99146346377156 3.538078346879176 3.071617802870147 1.2834571600077638 -0.7841774653311333 -0.8296528240551132
P 9.32830379330096 1.6037389545965426 12.036991459925673 -1.2101966607507157 0.610598948478613 -0.6756792259177137
Ni 6.441158472373001 5.51282518665542 8.521922260132365 -0.4240656712376374 0.9430289603861243 -0.5136423911562057
Ni 8.926539116914018 3.0483262431681486 0.9762050295753196 -0.5743841891209527 0.5600559454237386 0.708376973261051
Ni 2.6548749712759583 3.06813253194192 3.326848672270135 -1.547986908528876 1.0057836750158422 -0.7721519016251669
Ni 2.3576590713246945 1.320073249372944 5.50774737041172 0.3816530105993814 -1.0447736831257943 -0.649168581221695
Ni 6.893495580152083 2.5111531336158577 4.918629042313373 -1.3603547417967667 0.331357604778939 -1.191201607705452
Ni 5.840872689102966 5.970221407855943 1.300008861651979 0.9910365986136546 1.7858476323992343 0.38014145905086144
Ni 7.658534524714048 9.042505966339673 8.479137683929457 2.06548466887543 0.8300870833790543 1.013587487330977
Ni 1.2191715232780458 6.172941298336499 1.5102491569634442 -0.5034289409583136 0.9448971239431146 -0.7747710844155689
Ni 3.287479231411978 1.0893178283240375 11.200718141079383 0.3315342395661193 0.7529671011666 2.4878091890522445
Ni 8.156571978686436 -0.06422829706557802 4.330031587814979 1.218593112344527 -0.17755987009777163 1.4047687491357679
Ni 3.2211216180320523 6.622173737620353 8.575533900141822 -0.37985452393806196 0.5331920311533591 -0.5176345430347343
Ni 8.14151620676681 6.726077266688047 9.757095918136415 -2.1039522288230086 0.593875465076345 -0.23538757973951716
Ni 4.988734701274284 8.693071786637352 5.5597299946022956 -0.010022931453640803 0.4489092126438785 -0.11956118209580054
Ni 5.372301531601849 9.36646690212332 7.940331817993832 -1.3361632321522277 -0.6096990623721629 0.76853487369787
Ni 0.9389938944060131 8.525363579428278 8.245040068542615 0.29066732614842844 -0.35253526729781864 -1.2917122009277044
Ni 3.702803453937714 4.55559604054551 4.796844680023617 -1.266450083926806 0.5862259189508873 0.7949161919048762
Ni 3.6092519369911567 1.077722078522585 9.140781816189211 0.6419553513027073 0.19193053699714688 -3.0222548901070465
Ni 7.072360020839489 1.9757474407671756 12.627737868701788 0.17438815723800935 -2.679241189146418 2.888204770366452
Ni 4.712269582620942 4.433401151307138 9.775148817323272 -0.7444282104576534 0.10993317208773326 0.42074483439452054
Ni 1.509916246727209 1.2719789419303063 1.4630301416025937 1.7272383073964577 0.7382825025712317 0.48608967834891764
Ni 4.781909541307569 6.010067770681741 11.807409640973608 0.05500155304686011 0.1527171000224789 0.06750971281619986
Ni 1.6866859713214493 2.5188119393314947 12.901034729264218 0.8557541491278553 1.3880185262606224 0.27546542159700943
Ni 4.915354178135575 6.381964039918811 6.290437103481943 -0.03921523674688085 -0.9679293231722297 2.0227272233032454
Ni 8.931345742234942 6.389454520234104 7.617831572628723 0.8878697987154774 -0.1410646033852151 0.5586171560946831
P 3.262641883450157 0.9507953752523302 13.516924277146112 0.8762134454234717 -0.16480874107969035 1.082501536693871
P 6.718521326494843 5.406621210449697 10.91608830536826 -0.5438371695720312 1.0608613327162764 -0.4720098032170839
P 5.908474040163209 2.502568538198331 9.706496367651996 -0.5980535077134345 -1.9442522697247933 1.509540945847852
P 0.42792337874145997 6.955186839378038 3.5777264597890137 2.142704667000858 2.255090671504458 -0.36084018761908826
P 3.001438267761307 8.499282493786142 6.978592486295824 0.7253645089579831 0.6387725826993516 0.21419114816756016
P 0.5115334105154982 7.931726649471818 13.431888155174716 -0.668331527303391 -0.7895564702548595 0.48976404187671135
P 7.27020782612121 5.289513488866156 6.488648678656628 -0.1420570492054715 -0.3790484830969988 0.6803560625680929
P 3.0048608842349616 1.0756273624294193 3.469299653157641 0.031008532566372402 -1.8791444814818667 -1.204492668387403
