# total energy = -340878.5671011628 ev
CRYSTAL
PRIMVEC
9.14107538573905 0.00000000000000 0.00000000000000
0.00000000000000 9.14107538573905 0.00000000000000
0.00000000000000 0.00000000000000 13.37888782108764
PRIMCOORD
 96 1
Ni 7.194711889726764 2.43562124777679 12.981441309648208 0.12317923846436206 -0.43769148955118814 1.7018885157777592
Ni 0.6482850645992086 7.735360791950681 0.6747521341993292 0.3338194360558703 -0.5108781981475071 -0.22563769944160494
Ni 6.612297414178626 8.84043453341237 3.52172451554188 -0.09384706515914805 -0.607851724750779 -0.15852959293919794
Ni 0.43250083962841174 5.189233084135259 4.052799969540265 -0.8545017647779929 0.10878466030558684 0.4696035077684364
Ni 2.262580691193837 1.1411078605345883 4.06278019561936 0.33491806843668775 0.18684926581949757 -1.6209381040756212
Ni 4.245992940863988 4.277940999250539 11.070708836065505 -0.14834133955228646 1.002840019006486 -1.2040337264731136
Ni 5.822426233313524 7.797840042042836 5.783104069433287 -0.44768716731131925 -0.651716287344213 -0.9064889564785614
Ni 9.018539245745295 3.6061725120490276 9.229974147059348 -1.4751809803107434 -1.2131791404178074 -0.006431614557956665
Ni 8.407787436578182 6.369583581194444 2.4706928116141813 -0.7452774458318261 -0.05849311113988636 -1.4312135735908578
Ni 7.186603755881594 6.96160532694695 7.626568283542229 1.0694179640370356 -0.33302059430365877 -0.36758984763809593
Ni 1.1106406563565123 5.514435981176734 8.533014684378104 0.9803665204943182 0.3057280771362928 -0.4098847517515651
Ni 5.223694938246074 5.070719042080427 2.3010481645278245 0.1662588432626556 0.7365632058872799 0.819929169009446
Ni 2.304245712689088 2.4319556765570454 11.457144140519901 0.36409674688317295 -0.37842473347007083 0.845798323466724
Ni 5.908955652680362 1.4490067019177686 9.390520681838941 0.7042328691856904 -1.8171502991672577 -0.2675150564016812
Ni 3.249844253403486 8.236474543238451 0.2732048039581967 -1.0189415525540386 -1.302114370097635 0.01675716485368082
Ni 4.7598493512049345 1.9689327862983919 7.217347934643107 0.2588571236163671 0.3672489193589094 0.3375282523660252
Ni 7.419783447264296 4.446648686112398 0.9396595840523835 -0.6571690829286682 1.346086919023843 -0.3346509308182301
Ni 8.11481597125945 5.523275401050782 10.438543143757812 1.5507295042710194 -0.35591883905807087 -0.6452245089722823
Ni 5.9657125895965555 6.1072987058624495 9.480573985757427 -0.8431685991533608 -0.12114986673915909 1.3443144005044525
Ni 0.5747688801162325 1.050135878542325 7.760089229017148 -0.5614839361195169 0.2366070539689151 0.4842145728133919
Ni 8.120913068525208 2.7293697045012055 4.914212862610376 1.243735930158742 0.43009747925401415 -0.6522425921613283
Ni 0.5854383432775436 7.543974097118284 7.294771928842893 -0.4116927514945813 0.024665106846847848 3.1801782169208135
Ni 1.6590503315618834 3.553492494743821 5.175582716298739 -0.4450242757671755 0.1280144550694763 0.7445719351243693
Ni 3.316638091066013 3.8685762213607147 13.188171299473975 -0.5112301821702873 0.7032831036779114 1.0545572448751193
P 5.609530588156791 3.91933661284012 13.037458733567702 -0.3931101033963875 1.1266743745563434 -2.022242827467659
P 2.3274549030305627 6.144731409465576 13.101623597956415 1.5057794219228906 0.13470497971577447 0.3699514058917371
P 7.70913504674009 6.711898571311635 0.029681985804569804 -0.7561064181265301 0.2465597943062528 1.8769783270684837
P 6.32169348737838 0.12739002623032392 7.476630880826564 0.9347242971751708 1.5918005632797165 -1.3984705748318818
P 1.8442393772995507 0.46104110512039775 12.691507423671922 -0.5649729231093819 0.5512231776234571 -0.16359080951218924
P 0.41162902225673415 7.210690489457721 9.914251281784797 -0.40797082255830386 -0.1546737095282175 -1.6594941099719485
P 7.924288537510981 4.038453965868776 2.947797528466392 1.2144150697074376 -0.19992435383590085 0.43220835494942983
P 0.35736942712915404 3.565485585617399 11.719169409311643 -0.5319167639853614 1.1045160932917495 -0.706045754024713
Ni 1.5886640512824997 7.708824250177818 11.598211043705291 -0.2612497922182597 0.49782856405240067 0.8663553216824692
Ni 2.2265831364223807 3.2397982115817925 9.284372686532413 0.16202449346633385 1.0441033965316469 -0.6198736889123195
Ni 5.293221957441528 3.745162562912408 8.834200320016196 -0.7406525454653051 0.5994778988647869 -0.2454493348508934
Ni 4.957406271905978 8.148427705361694 8.462909035112302 0.7146504649745886 -1.8743306050329913 1.3266282960785991
Ni 4.839522964051052 5.980877633620387 0.20104149862864237 -1.792457167295952 -0.2492561101914933 -0.5498815759938982
Ni 6.8531464677891725 0.6238299456860352 11.626293341321693 -0.37302644527263495 0.5128643753396006 -0.8111408812938545
Ni 7.061718384300173 3.0634394446428117 10.80660945727436 0.9577729514645181 1.0910494262638821 -0.9925496928240711
Ni 6.255164740901321 7.26806901949846 1.6497374039841386 0.18736760021681279 0.19688916655400288 0.13073236822127163
Ni 0.7877102306497711 2.848441352153057 2.893438295617378 -0.8256123354371524 0.5309484865348211 1.4485214687416859
Ni 9.266582325664915 1.3911711181089814 11.612714273872989 -1.645729452087688 0.27248859835687267 1.2110978324087465
Ni 7.5449704743326285 1.8450986383834809 2.295991321638142 0.03848555766970792 -0.23030502301028727 -0.3548621156587824
Ni 1.0872669266585402 0.8967541186306504 1.461991599468011 0.5843387292305033 -0.30591885299086025 -0.03728330983149063
Ni 5.1289111278282915 2.8378834101111496 1.3444977014234611 -0.39260539584582704 0.5874981007950915 1.4163615961796898
Ni 3.3750952679993462 6.645854301828707 1.9784970934485633 0.9013218104553251 0.20108263581006017 1.2315995519065241
Ni 3.8831013901092786 6.638157516374779 11.302631629586076 0.33064566631357895 0.49406883989965233 -0.10683704966091277
Ni 1.506814862500473 0.5879713352600654 9.990081986549166 -0.4795336223979548 -0.27597321447136347 -0.9463341134999572
Ni 5.025946054962449 5.817023857775197 7.21679947012145 0.17283778203175396 0.8936447535260417 0.8869550002106918
Ni 7.101280958462404 5.466865824998304 4.45911619879721 -0.2564477428439261 0.5177451004706697 0.04144181208455444
Ni 3.756095289044115 1.3302732740542729 0.08249180637990185 -0.7060041021535003 0.701129033449386 0.2887950488263801
Ni 1.6133632369078106 5.432495381641099 10.900288111681004 0.5045424857374666 -1.3719948971388565 0.33184380038673816
Ni 8.012755864854341 7.730516022009374 11.5842169714352 1.6422612910334298 -1.4610005750453032 3.3983062382489346
Ni 3.481341986919772 9.142263700755873 11.096503122519058 1.8091559681078713 0.6935252529601991 -0.06356666900805182
Ni 8.039968846203916 8.822901950870051 6.223791656154973 0.6712880388285536 0.6145522766994062 -0.5563214180819709
Ni 4.748733803566008 5.348406629395637 5.008239791988272 -1.0740500634924084 -0.4246392843529203 -1.0345147244019475
P 2.5746661450923365 5.375308814182939 4.039715434268588 -0.1764473537598832 -0.019943018780830168 -0.5485782838014424
P 8.460165798396478 6.74359067958808 5.586166913641716 0.7598352890413429 -0.484026882282618 0.6753503818233852
P 3.5842796365595304 5.5443547208331525 9.188097966723259 -0.010706073563594464 -0.3461093091668168 0.045549920715657034
P 0.3312725710811523 1.104927484255913 5.190566767030423 -0.21656273372353024 1.4223180708734406 0.22325788635551871
P 2.408819614818458 2.8880679138428142 1.5562452275148586 0.4169452581427722 -0.12700786818183288 -0.5767470329261745
P 5.2644641343559515 7.03032793151064 3.638067552198485 1.0134231938389708 -0.50811657624197 -0.21763514085210262
P 5.668728192194361 8.051614576213778 10.839776021006527 -0.519679341378905 -0.47433562313678307 -0.3539339474175582
P 8.164269188962237 1.4258432169530988 9.60214845984311 0.834427362625621 0.4103187539651901 -0.3014181369070293
Ni 6.219688227425439 3.65738995729648 6.05520463148788 0.05153699153702737 1.5804936229073296 1.4539025305479412
Ni 1.4401855641944432 8.542727991056658 5.485758599554335 0.436193564849423 -1.0696416500120676 -0.2687818389292468
Ni 2.3131948254674666 1.6338940921685245 6.282845745309377 -0.4267409040769554 1.2670967163718696 1.4427524274683927
Ni 8.029474891689537 0.15925490083109073 0.3431093495660581 -0.9098828126514588 0.1167378537143925 0.6522716456270508
Ni 4.029614545994729 0.30018194556345873 5.7620594857372875 0.770142327394306 -0.6565705301127209 -1.078928217520316
Ni 2.6054807101341293 7.712261294513539 9.180030967717212 -1.4245333333572048 -4.075574148810007 1.2999387026025546
Ni 3.4477393938928866 3.413131282576296 3.563627204996516 -0.3916718282879642 0.4684038310333804 -1.5605570318844026
Ni 8.654824998208099 4.564504570741241 6.6724658004195305 0.0741074206383756 0.5224440486082357 -0.5381468040554732
Ni 3.2885932718585917 7.388530110605178 4.435396022343057 0.9898459207396629 0.4803394061287018 0.9921861388370655
Ni 1.6500006669545342 5.958527704362842 6.0546963876978115 1.061302791129069 -0.12138769378157803 -0.30468369503217846
Ni 0.2693070494242838 5.487433244560462 13.069019210358947 -0.7452134253631101 -0.777294622168371 -1.421388617080636
Ni 3.2095321110616575 0.3016838242452643 8.185952733825967 -0.9541476960071053 4.87869318824065 -0.6647983173391518
Ni 7.580181896623042 8.456363111046318 9.707747990627979 -0.6094923456779956 0.5532754321667955 -4.604157734657077
Ni 1.461904759252082 5.376140652040787 1.692696801750501 0.41495239608245954 -1.5508775998131097 0.3964710494488204
Ni 7.452206841569617 2.1309400649206673 7.444681908332475 0.2705594996549599 -0.1096133268544693 0.6133050345558664
Ni 1.3555392063519636 7.496193696206552 3.110283799437582 -1.2861321357367657 0.4768802439355077 0.10191030178325673
Ni 5.999644261336435 3.349308294406081 3.6536667973019616 0.6255144321378646 -0.34687704057077684 -0.5470253374920256
Ni 4.917743145914778 2.2065093349297147 11.657988191920747 0.432334596114649 -1.0658207336040804 0.2293053781011793
Ni 0.2361011790680643 3.1505173285313064 0.5391799314134109 0.5614831647885684 -0.5281202730574066 -0.5678870114323832
Ni 3.331455774226128 4.276588120097117 7.260869508544169 -1.0544418023431774 -0.9055885561514792 -0.177728534465152
Ni 5.483173503442255 8.320554154408551 13.050797390734411 0.4303790150501749 0.8307105758956661 -0.2961646018175738
Ni 6.401559062807078 5.716965646874142 11.946998829285578 -0.16875641287352872 -0.1175724338005459 -0.19053777041467831
Ni 6.43340656936466 1.1829191392356146 5.288700781567997 -0.7133960237421971 0.20272017141348314 0.5540387926953813
Ni 4.808187357713685 1.1824438033168447 3.4049536765583825 -1.4289764567302228 -0.2418600748377383 0.05313184682797302
P 1.1375519822191753 3.2979902973296573 7.368690320641752 0.8031691759422876 -0.053944829647571614 -0.280053298078008
P 3.2892971346613855 7.737024467666376 6.90032172951201 -0.6883516791790597 -1.6653770511152868 -0.9292720158113479
P 7.06159955032048 4.6797643899675725 8.103632779662851 0.42802774120917897 0.4081865381135357 0.3867723341038178
P 3.9449590470768876 2.1427046289102214 9.667383744156593 -0.41780246393674497 -0.9574060550434028 0.5183922471363653
P 2.923325041510033 8.90029943595129 2.48246560257156 0.45085836595044926 -0.14547404530682043 -0.21599529125583444
P 5.537983391306565 0.7995131871558413 1.4108436263933013 1.53271506997147 -2.0381114190687994 -0.6335524719509927
P 8.470303250971781 8.545863379905468 2.5519962781971586 1.0458597171011215 0.6246978497738402 -1.230047634038372
P 4.63283410906441 2.6622376470503237 5.099964998590278 -1.3069099917140654 -1.3022028160463832 2.1112047966203638
