# total energy = -340868.958157019 ev
CRYSTAL
PRIMVEC
9.20276358343987 0.00000000000000 0.00000000000000
0.00000000000000 9.20276358343987 0.00000000000000
0.00000000000000 0.00000000000000 13.46917473396114
PRIMCOORD
 96 1
Ni 0.96917064983588 6.5588280694627565 2.5852192023719844 1.193915664202505 0.743029530337914 -0.17332063520544344
Ni 1.8696702772046825 3.496875340131679 11.534866374274163 0.4266455161496717 -1.2657124344298332 0.3374372353141157
Ni 0.7297791586222525 0.35708655599970374 13.195265805740256 -1.9748316851735472 0.16175812717882465 0.45962351373758914
Ni 0.7965176007197126 7.603976736115602 11.835283231902114 0.1616221158215926 0.8090819418822969 0.5693674526326518
Ni 2.967265493983482 1.3924425618367864 4.888435356933006 -2.432905337925513 -0.15722398675389698 1.1302433228545243
Ni 5.873930789233957 8.01312240589097 5.084708219271366 0.8255210612749267 -1.9477955069913615 2.4784742848045638
Ni 4.869752826417004 5.556545875960762 0.6418127015790934 0.3603984720959793 0.1278560751147411 1.6226201197637342
Ni 1.7571848969292752 3.01295721557944 3.203710260271626 -0.9704346060925867 -0.7324574112490224 0.22946530071781127
Ni 5.881532272021119 8.061639375932035 2.772090521350338 -0.699257527458286 0.4427262237616182 -1.6796692993682427
Ni 2.8226348602267692 1.676623903807217 9.629934787811257 -0.9854971568526641 -0.004059771891670428 0.41252141804346376
Ni 8.278750976313074 3.964872683543735 6.598535233847466 0.7244193714358943 2.3694826506944935 -0.012362635330410966
Ni 0.8578043256221181 5.089478011678857 8.056250237529902 0.111178357348744 -0.5925325778952053 0.25280371833343557
Ni 6.571831574521185 2.5385087348383273 13.390582500933839 -0.06329541762453615 0.12699706954855547 1.0103008461599052
Ni 3.834129020157274 8.794795948819287 9.140828145104779 0.3925094936979111 -1.254991191357587 0.515618283935654
Ni 0.038871553443941144 3.8778237420379607 9.992471220453282 -0.9256246488667479 2.3104107842330013 0.6367059299783099
Ni 1.6438160513420428 0.08138003908822924 7.775472077562732 0.5663214667174763 0.512632976055085 0.5535788223398272
Ni 0.36154161388985545 2.334934399808279 8.320919879978128 1.3622717563138216 0.41522133347313006 -0.7160501735355926
Ni 6.165023406716686 8.932137993753443 7.48172262220996 0.02428175536550012 -0.3818296453865618 0.9253063462953804
Ni 8.451256781210603 0.31302556412515614 8.33306844829209 -0.6731945118226471 1.1766152252508446 0.40259387451710665
Ni 8.145982704920346 8.108058115857517 10.42438728836458 -0.6867452539238883 0.5462460361238399 -1.5232086731429315
Ni 7.00792293630722 0.640440569516665 12.070737780819918 -0.47295725473201766 0.956857124518468 -1.225063550560219
Ni 2.744181299983961 1.4068540897359347 0.11104238693275943 0.25564915820203066 0.6360392429285885 1.7577030516442183
Ni 7.641422781467858 9.049648082989854 3.941767304810407 0.32084513528338937 1.6164052492022745 2.6441325183687434
Ni 2.36289239582208 6.717787406245635 10.314115172750567 0.9055109088360084 0.965376474843389 -1.3124507190266363
P 3.5979308879353478 2.0858708039828993 11.780921586657502 0.9894913656137216 -1.337400961214071 0.21222965356581516
P 8.056264961951767 8.726907161263721 6.3215688585902745 -0.1462975696493803 -0.48435212683252066 -0.01097475384394884
P 0.7528688926573501 3.613189070091662 5.370968465553686 1.742346880903122 0.3656108695348542 -0.7399336650214096
P 1.3522172818577467 5.519283885881803 11.68524965559777 -0.29195699149412946 -0.7166875500092754 1.1830054450479046
P 3.7087873790420773 1.1869448492007852 7.5696623912384915 -1.5406386956939206 -1.3924649920677503 0.01372172046146669
P 3.978097054930118 1.2747208090360822 2.8928151359348817 -0.07551509961917963 -1.4918106184476243 -0.6070968488626254
P 5.075480608144627 7.6503954760410835 0.8083495939636045 2.3258178628166912 1.4126959744026444 1.3815838263788722
P 0.7984796299330577 0.24265571148554815 4.095841814639984 -0.8444518367411585 0.7447596256551432 -0.11353168807226899
Ni 5.173370405247589 0.8266502097875164 5.365890380563425 -0.3690227234298806 2.658996065744137 2.3974151154387036
Ni 2.0055306771887973 0.18403410694048197 2.305612554219348 0.8060033029569732 0.5509262152083286 0.318700835246877
Ni 8.82857009146927 8.201917102475276 2.447456591138346 0.8955167737377739 0.1784687550652862 -1.5478843215127407
Ni 2.511185729517401 6.784249765433149 7.760143954402565 0.12635480797886625 0.14456413189804135 0.3176916772560722
Ni 0.265814466248132 1.6934649613138844 10.63224366932788 -0.1372909952753958 -2.2224011516912374 1.40654846674401
Ni 4.15341890550909 3.1283138581182794 3.9405691049812446 0.4533659628636515 0.15586181629904772 0.6838080256724353
Ni 6.823619188391358 4.642647024695946 2.310367622204974 0.3333239844766905 0.17384488314002963 0.42926521316070587
Ni 4.239004607592155 3.6237630455425696 10.405032035824675 0.7517460842753053 -0.6322761763417305 -0.9865762488494558
Ni 6.1963588169954855 1.4947128744442153 3.49046929634458 -1.1804986194656506 -0.4978424480094717 0.08423268199783557
Ni 1.0054019303843769 3.2867670428995903 0.7753438820796359 0.40578847019500436 1.3628057744404205 -0.499026955235876
Ni 7.363223235879578 6.46717774612456 6.8129513447510694 0.47651848972071487 0.7442207224325377 0.03384343091200623
Ni 8.909747669756873 7.298905120625972 4.739479424253817 -0.6289360562249039 -0.6524493088554958 0.434546001943671
Ni 7.311402473682833 2.185674775928149 7.245230921827127 -1.2949016543992795 -2.6271650372764688 -0.41299784345925006
Ni 5.442229145716052 1.668350619272521 9.277999018634768 0.8062323882486437 -1.3535418326399915 1.4572786461090257
Ni 7.583703047761947 9.158443155035659 0.880950196515571 -1.3713744899460383 0.4173314378375974 -0.33097013953253324
Ni 7.174235281258309 2.900260171739742 11.105119397758669 -0.1561531222872214 0.34035543740217516 1.7908438000622449
Ni 0.31987426084453424 1.5667245001216317 6.050676307351881 0.7051744071633533 -1.5548895491859804 0.5376043012884418
Ni 7.86211425691452 4.570570979672874 13.385867925108338 -0.2560708191204816 -1.5911130502943889 0.03312300780621392
Ni 9.074845249904202 7.4486156799256795 8.357905787147143 2.3204812810951263 -1.0829653637041672 -1.220550236070898
Ni 6.198521466456723 4.807063600332076 5.6383584449412405 -0.9013027842919316 -0.22824608359872953 -0.3467297163596351
Ni 1.2968994694683598 5.801201347990682 5.857178078258471 -0.6614473985890479 -0.5706190656515656 0.034405988283695586
Ni 4.274996616285366 3.4155321120981093 0.06305457580242228 -1.6514303591272075 -0.414243542940893 -2.251971923369818
Ni 0.3632892187098096 6.2028927791975255 0.25304839249225825 -1.4836769335968965 0.5309212328413114 0.374954001312651
Ni 3.9064075259809714 8.438234870624846 6.778982103511391 -0.5123105597186597 0.21877722487634582 -1.6366025500857557
P 3.3546282221641612 6.546293905351237 5.380948862748212 0.19433066179820727 0.025955543523497233 0.48162367215776414
P 7.938193504131799 8.098478038882414 12.471418748576363 0.8338164685144995 -2.5840322106427367 2.7750667181881754
P 9.027405003211923 4.95697662043241 2.14278437559177 -0.6643357758804365 -1.7039487407408977 -1.731235344370993
P 2.20588404493615 3.7036706424444232 9.2945115374786 -1.1864450668570727 0.8602191268777443 -0.9240027969926087
P 8.049372091966797 5.7310118695189045 8.79436065809794 0.29872362079400167 -1.3414558480097347 -0.21847897690963664
P 7.650818803169666 2.3059456942640155 9.25868425825499 0.04362107912406036 -0.34775738629320113 0.46820097099395497
P 5.7723874949560505 4.9322764027559645 12.314327572817449 1.924978509096846 -1.4498299031404644 -0.42323803313001956
P 8.732594469208596 2.3005804830474106 12.827718468282722 0.3269206520535079 0.22892742593647022 -0.5714878414097643
Ni 5.097254346975651 0.6609792974638672 0.47451105953403355 -0.08704855418007588 -0.10765260358367265 0.290790481989854
Ni 4.943577396536395 2.7181926953944373 7.361415813095801 1.2039113419626362 2.5568286536447515 -2.6635677442752193
Ni 3.5684636386805124 4.247121445144548 5.788108576124706 0.5467877675599229 2.177868359386185 0.09700540828247164
Ni 8.442845455220935 5.83323616830801 11.495159209889453 -0.03293043217943361 0.3918870296225638 0.0774925350605246
Ni 2.306083735718988 3.003561193877633 7.094443639178633 -0.449276109064994 -1.0255222910953499 0.5905821390370538
Ni 3.751589432847274 5.288358937239833 11.764583000046937 -0.6816228450956583 1.5455579873724092 0.42790869913281143
Ni 8.373272561914701 4.948758552479703 4.258468452743302 0.30333309454155505 0.3458825378679914 0.0059238216836027015
Ni 8.386901854902337 2.3765216888097167 4.243921644218282 -0.08453170129549313 0.4022979405432426 -1.6927675273130973
Ni 3.2956201015451714 7.201806761198187 2.1811442553759455 1.3288242752886534 -0.5419168126208667 0.060561563633140865
Ni 2.3088813758731015 5.310408758980804 3.7447536199970273 1.2845835603027234 -0.8925643759776692 0.8269693636856791
Ni 1.62848424707641 8.238019544332467 5.626168464190785 0.9247476455784331 0.006347539484582616 0.4137912858948229
Ni 5.962562606090084 7.10301509325607 11.538368946125003 0.3272258419987526 -0.07776481488530478 1.4039341690496145
Ni 4.66618769415062 9.193514887362385 11.545183592618821 0.8796962617657494 1.0395165484919129 -0.5906597863525247
Ni 4.91375123949863 6.394899240300863 7.253447149227101 0.08701692961119208 -0.6091290488013058 -0.9058392387097044
Ni 5.291432660303892 2.934788941010242 1.9740286968876646 -0.618814908630502 -0.08455792654773824 -1.0168152502396552
Ni 6.74427296007306 5.038549917557601 10.290705182539932 -2.2172913412684974 -0.2901911578429583 -0.9682103447477584
Ni 3.6171370557038807 7.505369123446782 12.928657140987848 -1.2776408104363028 0.42645062653004623 -1.7507171072446879
Ni 7.171281194121893 6.549073139978021 0.9191462671065125 -0.35221927871929665 1.8122880859789496 -0.3408457467750323
Ni 2.4883260645739247 5.577518974352945 0.32657663362164124 0.46523623193867614 -1.458109112430121 0.7009508560003088
Ni 4.617044936180345 6.3656160463193245 9.624264044840979 0.20988660725493533 0.46603250258772644 0.07326718412526737
Ni 0.06873636208909795 1.4484597842647013 1.7485545451643831 -0.08784688171165515 0.008238328749392265 0.8515545092242109
Ni 4.766755495480052 5.334078267126787 3.7393525180021294 -0.5503338330399683 1.2240245677727437 -0.6420633376354814
Ni 3.7652923479442295 8.507853777749403 4.20045607115285 -0.6239424596650546 -1.0119648641258896 -0.6553757384736713
Ni 2.4149432271104465 0.09807845375809152 11.687203402323815 -0.19028348831202713 0.1971010254544928 -1.808931510801891
P 4.81130607438157 4.5521010329975296 8.507332901325974 0.4749282624154595 0.5105095019541789 -0.40649063846835154
P 1.272871053539448 8.64738608043579 9.873174874789523 -0.1544757345847985 0.44359319974760375 -0.4526933622766591
P 6.514802048090137 2.7191773911065757 5.316660196338333 -0.6807514982342986 0.09989507112544087 -0.13562440620625027
P 3.3015006675270078 4.1593454853092515 2.0948738676762177 0.1978546157910657 0.6831151133704687 -0.9123397588323836
P 6.026346961051129 8.483724131420178 9.88656305536914 -0.9232906014169324 0.885495642056346 -1.2324403026402646
P 1.8652529506455566 7.859160169778105 0.7270615825120237 -1.0677094659863613 -0.08150474154371125 -0.35630219053941864
P 7.37080631313941 2.3280415298233095 2.0395155631267055 0.9235438550783193 0.6375335680859278 -0.7528182342935614
P 6.606056652590744 6.449683292397689 3.910006726850292 1.7695910613310555 -2.0974697064224586 -0.10900294696398001
