# total energy = -340869.8724174753 ev
CRYSTAL
PRIMVEC
9.21491151212692 0.00000000000000 0.00000000000000
0.00000000000000 9.21491151212692 0.00000000000000
0.00000000000000 0.00000000000000 13.48695445552904
PRIMCOORD
 96 1
Ni 8.757050151284485 9.053899308955145 9.147081415097862 0.18809650796303734 -0.283178473970551 -0.18929181382271917
Ni 1.1839502537977837 3.9004140021598004 6.517328140562424 -0.9768752195116078 0.41464643480626656 -0.15257080425260175
Ni 5.3022508373545785 1.6944839932411189 8.544107369884086 2.2287769733105938 0.7210851648563388 -1.6431604058089315
Ni 6.505662984149209 3.6147425320862876 13.527954450179308 -0.5994059079762709 0.017433622095415137 -1.931870608230989
Ni 4.13004038075281 4.644886698757946 9.864992129421664 0.03999865188012466 0.38314322199166273 0.08380330776990083
Ni 3.775856043997687 7.135861563771075 12.614995391013144 -0.4064117056013 -2.147334709573702 1.8187934911976356
Ni 4.361104285533085 8.76674423813708 8.782218838946553 0.4769059549671206 -0.6874142549664548 1.1613618986361998
Ni 2.492301812262914 1.787692822627061 7.3311845129748505 0.9521664039110181 0.32732302969824917 -0.7666363711235764
Ni 8.432381175925624 1.1942985993638155 6.751272626664107 0.4881874414182108 0.18842380939546904 0.4530962541420326
Ni 7.709277858995891 5.704960897841423 7.146899184714079 -0.5601343640701579 -0.7017324713613399 0.901627514621202
Ni 6.803396773319727 1.0696761368215044 0.9368468741357311 0.5351010752506139 0.39740333145510265 -1.3123409329216496
Ni 3.112013822646896 4.544093997243024 4.908564018166272 0.7089336170954694 0.7484476160296917 0.8311831446567105
Ni 3.2084755157771028 5.684872390865511 7.646226670334751 -0.8994839859156379 -0.49360372733777574 0.16898446972393474
Ni 1.168893088477306 3.576242632019608 4.345847156633995 0.2298453097650493 0.21205070478578963 -2.3572891939520946
Ni 3.899004120706904 2.3155874552550837 5.184614199187698 0.9053928952009052 1.3633698744740068 1.4775736489126359
Ni 1.6209582147269885 7.57208625722645 4.2433598329021605 1.4420086073238327 0.2510049745618 -0.9727221165751827
Ni 3.9285655566604483 4.364992978167872 0.5657780551182399 0.7753351844491551 -0.9265893267728623 -0.1945432920296456
Ni 6.585123165641545 2.438947474927808 5.91815616781574 -1.8983297961610663 -0.7414071642431425 -0.539608219092348
Ni 3.6204189175437014 2.1903660234680777 9.717310272449756 -2.238303167633474 0.17196386406723288 2.4517620656207
Ni 1.7193734690860452 1.617281465055709 1.1522122557581336 0.15543861271870005 0.13384417437737595 -0.039743084225892844
Ni 6.034707289413005 3.277043671927453 10.360840064476236 -1.4180222717115643 -2.090822119198954 0.8407520192920682
Ni 9.08596720082495 5.529260181093844 11.38936885716951 -2.2328519147109156 -0.428833524939926 1.0298229753532326
Ni 1.1537898485995446 8.347880437866396 1.8996641332302757 -1.064098094486019 0.5680759875147378 -0.01556854386221835
Ni 7.55857719703072 2.158012469343111 9.048410907691451 1.5399126161611736 -1.3703841010083109 -0.3700516789150272
P 5.531563908958055 7.628619739014166 6.7241503777731895 -0.5398283055229541 -0.17483630051902146 0.7897511027641689
P 5.385682645684812 0.8549336832135843 10.445376740690143 -0.010852626443787762 -0.1967071324501838 1.7874663989495794
P 8.19247095614678 8.472032939924407 12.078956619639566 1.277893035656425 0.6311441196198162 -0.1283219590075661
P 7.71082596412064 3.6388856001032095 11.698260982623113 1.720696649623198 0.07491963212702582 0.18586864707378312
P 8.202856161358639 3.510881265056238 6.719497768978631 1.1202538157419804 0.541931467908886 0.8790478295484732
P 2.0906698964165202 6.219420189565373 5.729217309269265 -0.48368621111374765 -0.6343238028993785 1.7719238232292904
P 5.502463218577352 1.1795178813870435 4.229023273657607 -0.7810939413098031 -0.40356163774701465 0.27643395615786587
P 8.153049564934417 6.841205555027143 9.043663385308887 0.07893466682368985 -0.365822471325028 -0.13633274512718455
Ni 6.215936953034687 3.8324816748999724 7.991115004412212 1.260399506857352 0.7681893174329931 0.7249929845511771
Ni 2.7443849300762433 8.77727688193225 13.677389904801455 -0.018929489914651272 1.291187438772486 0.4676610393300849
Ni 4.126833591565829 7.182332362247923 4.99865636449751 -0.42540598731561574 -0.5333578673072621 1.196534589882591
Ni 4.817445130698742 0.47741719064974186 1.945264122574451 -1.632303922710402 -2.3273201583938303 1.8000066975084354
Ni 7.479282883944608 0.6514343430741554 3.171699725643998 -3.5692771422752787 -1.7963680723145838 0.3870502703555528
Ni 5.230577256043273 4.97687231381354 6.271312120452278 -1.3055149111387516 -0.3586318671138598 -0.3348422208934298
Ni 4.360413167173823 5.106461613631088 3.071599985470631 1.52290194053579 0.058744050808427865 -0.6630430252109419
Ni 6.85113001466616 8.250939569340433 10.314984822084705 -0.40436536459523265 0.20412425084986136 -0.08255863672952234
Ni 8.885487587169928 2.5331975893083722 0.1312212606365547 -0.9017121039152084 0.13653766204913906 -0.36557281720806717
Ni 3.2971506087262794 2.4952505839291037 2.984109930134804 -0.9941864570965459 0.022965607657237867 -0.16225049343421089
Ni 7.194643483954262 1.4220635658425427 11.794637898567917 0.13678577350420315 -0.41919111675415544 -0.18338676119219385
Ni 7.935937036099797 7.347085764184774 1.0792190991262085 -1.0890069419125568 2.5815613805047413 0.5513201082126377
Ni 4.6169747319551755 2.2825243529479398 12.482635167320526 -0.05943104957312346 -0.36367097219966404 0.43680343051927994
Ni 8.706404997917689 4.331883801303444 9.19629549271541 -0.5645278651521632 -0.4253568792452352 -0.14523004761681438
Ni 8.857428181783849 2.1705816085702416 2.935179671790127 1.4488125176195434 3.839084337145246 -0.8660390759936312
Ni 6.580552569558952 3.403407752735107 2.2252933023629407 -0.5626959541497472 -0.6965511842707165 2.319673697592166
Ni 4.581266950059919 0.655769037423453 6.693211312556847 0.3205116632033706 -1.5895145954590173 -1.8952609274277554
Ni 6.844016103021479 5.807301704481093 2.6919686707274435 1.9533542320260617 -1.7459189145250962 1.0414173650590517
Ni 0.7396192027338276 3.025918904905635 11.104712870338538 -1.6499828280474036 1.3974102518881675 0.007059992170574938
Ni 9.115731364830546 6.1406787711666695 4.957008650677174 -0.06700243416247816 -0.1550622032158878 1.0209755522649322
Ni 8.07029044514053 3.8644666325666654 4.468956530715093 -0.7252578081767896 0.958307998032382 0.09600242093925403
Ni 1.1283659078901216 7.452614930188512 11.050023292333336 0.44901899874886536 1.2659793149379746 -0.5509748090580768
Ni 2.873356830826183 3.6250079434492077 11.668251701972768 1.2834666730894604 -0.022672501896851275 0.37969203021826864
Ni 1.5488054580199273 4.080058701010906 0.40968759144196404 -0.27861887962432663 0.17265600503825104 0.2673494773580944
P 2.413726262270435 4.439173015395438 2.5025856534487483 -0.8943695475072081 0.5332164566333915 -0.3210245982840471
P 2.032680458618623 5.487700930423494 12.203481404120435 -0.593985508291648 1.9373457724129473 1.4298547455701183
P 7.684148795453087 7.7864896020927565 3.6687621860285784 0.5642080199188992 -2.0934024783316203 -0.18018445220481227
P 4.14616647580228 3.2983946217729527 7.775040074607634 -1.2602668379342294 1.778679139675253 -0.812295306613272
P 5.910444208417509 4.088674643223052 4.397178820904325 -0.6916781724491313 0.6048692450836873 -0.32728497737146217
P 5.544999249862128 7.932850040761756 0.8483007899469505 0.5484831529844748 1.1698357404351658 -0.16371036580918902
P 1.241589524960321 0.3105415946043798 6.655502051893165 -1.5947964126832468 -1.182506908144931 -0.8663679200879596
P 2.086357317854719 1.6144248425040886 12.312564761473077 2.1086020688901943 0.6363670585816524 2.2573966939298153
Ni 0.8134546022729081 7.073587192145747 13.407165390803042 0.716856728597288 0.06392302390620605 -0.6815670521570585
Ni 8.528474272597556 5.3443998423581665 13.697081249093577 -0.7538171078717211 -1.9428667022311765 0.15024395589163803
Ni 1.6048229047660607 5.17811676511948 10.126692850322499 2.35717066609636 1.305753252401803 -1.1858390578419578
Ni 1.9371679013684708 0.36845639161947685 9.109426522411775 0.8557220103383391 -1.4070184644018928 0.17195820764027803
Ni 5.337737461374871 6.132486714881538 8.475957570713877 1.4164582696585541 1.3347367841183464 -0.6985368472421777
Ni 6.709819347475511 8.93407781528185 5.35254029513914 -0.017225876959983236 0.3467232886017319 0.5385188426829113
Ni 6.709662693980745 6.428607894547109 5.225210491610809 -0.36054373942459195 0.5614728803759234 -1.407924264045614
Ni 6.743075962923248 5.335065137052387 10.621745538518342 0.1507671753849597 2.2529363441656165 -0.7479416229275506
Ni 8.76409034363751 7.9574814990858895 6.891469211059626 0.29954071737865834 -0.22388317864434348 0.018815332934290177
Ni 3.0947542934882337 0.24472224654160504 4.55177923339803 -0.015092632667064329 -0.2550593471368317 -0.612396663808984
Ni 2.6881647552780596 8.040028675916266 7.166333432976556 -0.03623815639642791 -0.5378598689426738 -0.5196652003115179
Ni 2.0283125905880803 3.6596652254383852 8.556393611329492 -0.19620011090677822 -0.40240438421411995 1.3905886009806439
Ni 5.8161111598338335 5.9301825487580615 0.5990623153003479 -1.041660334307793 -2.275981656020855 1.5552811281974441
Ni 0.7018150284821395 5.843958622256405 7.888398229385102 1.204904044893209 1.16762459171646 -0.39611906542604036
Ni 4.789127707791871 7.041159918729126 10.707171453687836 0.125236635214023 -0.3415615418951344 -1.5813356591926506
Ni 3.3612771775544323 9.14626036648706 11.3464126259223 -1.0357431974924098 0.7157899778956704 -1.3664390003176339
Ni 5.295441017787972 9.189045200381168 12.612433645628142 0.6624316168791883 -0.7775278212250997 0.016114131953043214
Ni 0.5561521586104243 0.7648920188953584 11.32150287727217 -1.634769353531759 -2.5018654100349944 -0.7198173538875087
Ni 0.18422635282744707 6.305625686244116 2.6224440067678727 0.4155362936103876 -0.8296070584188422 -0.13147336015235422
Ni 6.644522484892339 9.278402196778151 7.949709642763191 0.7727928776432755 -1.9033213358383867 -0.6423615856021906
Ni 9.244583471731547 9.144150151763442 4.591727717545725 -0.2575414901287371 0.3197025370385139 1.0512821736682734
Ni 5.41190828369098 7.34738985626285 3.0768331336869705 -1.3308436197115274 2.492525363580991 -0.7006202121337676
Ni 6.862151048768541 6.913478105583144 12.479330700072103 0.3535706505408685 0.906370428622826 -1.716875990325527
Ni 2.7704999891449296 6.411035058398914 1.4084291828510014 -0.5381429474007312 -1.0271711395526828 -0.29875498825256935
P 8.908985611384871 0.6936782616657493 1.4476220442592356 -0.06079373424860497 -0.8754374864893956 -1.506843858631663
P 5.015040477067773 5.156489367930275 12.138029731024789 -0.259622798137798 -0.35595817693643855 -1.0477988431053633
P 4.743937782007525 2.405294618287426 1.4278238069942137 0.8204459607448644 2.444727270261106 -2.8128807037121555
P 1.3040021202575018 1.5237040392114936 3.965029882786312 2.082491744956388 -0.42420913879403715 0.137653263710821
P 8.514559756297727 4.357141873606644 2.1395430223101655 0.9975278627649529 -0.7770184856888489 -0.09550285559501617
P 3.1405339736058178 8.097704806724632 2.554685841334579 1.4495601944188456 1.1692503002453412 1.557848374703988
P 2.780488953164145 7.481936778444179 9.590842984633786 0.053574847902662565 -0.8730224492899997 -0.24782580550287
P 0.48263190904316794 1.846566891924815 9.292929504689859 -0.2640831479019968 1.5030424826077018 -0.09274920410927898
