# total energy = -340892.1716151148 ev
CRYSTAL
PRIMVEC
9.07923672456683 0.00000000000000 0.00000000000000
0.00000000000000 9.07923672456683 0.00000000000000
0.00000000000000 0.00000000000000 13.28838068971511
PRIMCOORD
 96 1
Ni 6.084995276121122 2.0046954789805342 11.47676267916186 1.5724674101687435 -0.050853335206441454 0.02829781850342868
Ni 4.776668178219972 0.35748314484028915 6.028978201092978 -0.5295616334896235 -0.6718788783350171 -0.781119652341416
Ni 2.885953437659373 1.6153687270142103 4.907213076204454 0.04374500629643434 -1.1115817418892793 -0.5096294133420707
Ni 3.4976760943250995 4.248365549003852 4.769864198183976 -0.8681206411130081 0.5497764178746015 0.3571102882630108
Ni 5.220424954626913 4.198220924319026 2.959295512293452 -0.07078426980241358 0.5682824470985891 -0.5331074418593529
Ni 6.944526621207568 5.869490512130715 2.3758165453741595 1.4326035119598488 0.4426205514216893 2.387973510409829
Ni 4.758918270333165 4.54282335595266 11.199353863021157 0.8732710749656961 0.16223686658745606 0.4377480538207364
Ni 5.593971993085682 7.927217813089171 12.560895275559322 -0.6264881089050436 0.3652663417112419 -0.6031784876448257
Ni 1.746173291170336 6.44452397300586 0.5370323153711916 1.0862437773451228 0.5768213378075356 -1.7532511865204514
Ni 2.6703669605380287 1.4210458224099514 0.5259247771058619 -0.2889156335646444 2.0426483877072044 0.9108402914687217
Ni 0.4812186152467127 0.024857134430946132 5.128543986430649 0.4185609393693243 0.4322960295672297 -0.7950000098679341
Ni 8.563300062010807 2.269564053293483 1.3812206582387547 1.2338595515852941 0.5949057061130721 -0.16343937153598947
Ni 6.994889147574891 0.8487216057871964 4.965256636879829 -0.34899305847251505 0.07995565188903649 -0.8017118746704709
Ni 1.0236113120073522 7.3302398369391355 2.5532293714929053 -1.2973948531347785 0.8877139898639035 0.5876125148857686
Ni 7.7607681653711005 3.8796214267968074 3.980534419732609 0.03309472567143978 -0.3169247171830606 -0.6480205836601807
Ni 7.6508276873141465 3.693261012840492 12.578209380081134 0.3527869782973085 0.45605405121877585 -0.31380288372462734
Ni 7.847565668899424 8.802174781449112 6.945650630719786 1.3524969363152448 0.11928555983691068 1.2040159858613007
Ni 6.834622460097697 0.6582065330845879 0.5267164865522709 0.14798421332318384 0.9898338365548048 -1.616931039798757
Ni 1.8579840920020627 6.473731877697348 9.259264417053894 -0.21397337572979924 0.5416296203977511 -0.6558796746932833
Ni 0.05337683297521086 4.7987579612831945 1.2186732664847497 -0.4094373798015013 -0.5878799096145423 0.8052551119370389
Ni 6.676934275863395 1.9260420508355687 7.3003972935973716 -0.8420437415202983 0.8096892364489927 -3.531383966773931
Ni 3.6545017510661806 4.488702025562247 0.6512000860686038 -0.09041207133567009 0.2187689973462297 -0.22034945445947213
Ni 5.9590571828741155 5.737632756509183 4.713654643336292 0.37062246381683267 0.48398060242571483 0.5953584773797747
Ni 4.857391672348667 2.536711516035889 9.589586117170821 1.4902131920535173 1.6309075565835074 -0.6439440995979618
P 0.13973580936750774 5.624142296874868 12.514438636850775 0.4915062213787987 0.18170963060008705 -0.23661656705061188
P 4.099402511306236 6.199902096691672 12.554808555228215 -0.1349651753556966 0.18677907470319444 0.4674599790628724
P 2.6258605418878354 8.514190470317846 1.5478836680209385 -0.8954715223221352 -0.4837679721942765 -1.1074612919630025
P 6.350444921587399 7.866023757254349 5.790079875639068 -0.5385859484754209 -1.0998071178518543 -0.6852380732507425
P 4.685294739359192 1.0366309375366007 12.800524479573278 0.5788106003234225 -1.6797803710248103 -0.46658348999519
P 4.075896367306776 6.293672454059929 8.119944587869133 -0.4838445910684828 -0.3096063291447765 0.33764292356701847
P 4.829019057440089 1.1586831174457282 3.702155941104791 0.1440547963617906 0.08672613784365063 0.7984195770724443
P 0.04521913873669633 5.520321224401397 3.504996682933351 0.33606452333630515 0.8170755016107347 0.30332255301859373
Ni 1.5187656477734819 0.7086934449956706 2.8100809797372865 -0.7985702437176957 1.406170771689617 0.5185352004721329
Ni 1.8152118075750823 6.607114945096364 4.779684300675214 0.04677299448948074 -0.25117878113550285 -0.5619127961268194
Ni 5.977161180994981 5.812672648419391 9.089690603963007 0.153081168230117 -0.9969465363401864 1.3693805994444608
Ni 8.358799332986543 2.430248385662131 10.356365795254687 0.353835474166481 0.6555320615458775 -0.7087937490834955
Ni 2.375845598931826 5.2560700381888585 7.0579371835583 -0.3461761578490103 -0.5185498557601521 -0.5847565334942122
Ni 0.6671323307539074 -0.08420174973556781 9.332589241138109 -0.1320009505210501 -0.15734328594058064 -0.8440697708113915
Ni 1.2433833172800097 1.03089285989749 11.362229923146264 0.7065982840940734 0.6947511549475003 0.4030759563598477
Ni 4.114374172741194 6.882261215433797 1.675212700341223 0.748882389574265 -0.30436899200523704 -1.204604511374919
Ni 5.790537469172314 7.8895662182008905 7.996083823995273 -1.111883075179782 1.06786296084509 0.012797923095616668
Ni 5.248597826326535 2.7585899042393596 5.20804904698471 0.7940618143243808 -0.156534159775724 -0.23060481363889318
Ni 0.9461745015896666 7.679654264061263 6.978817990566995 -0.22618868684906854 -1.1091343087900511 1.113998578860888
Ni 4.995550418289096 4.787018508138621 6.828221598174322 0.46382752451660764 -1.015302927360187 0.5700994457026697
Ni 8.29917598511306 6.988633553439848 9.168052588607631 0.942582616877325 0.3701450099597819 0.17670189297285052
Ni 4.679129937591856 0.2725859255680823 10.388962071109017 0.1265872357046465 -0.9378247904773656 0.49191039879575277
Ni 8.244328315780988 7.094370344871946 5.019273556047376 0.3366355653484267 -0.1407892382366414 -1.3744605850705296
Ni 7.285669863631546 6.2542050118175 7.114652451894114 0.4531954987240582 -1.384936030680557 -1.126191521382654
Ni 2.099727850259924 5.172468426003837 2.6040177140647773 1.1709865662101575 0.2684522235039699 0.07676157043177102
Ni 2.4805382781352887 5.220570222415245 11.41526356097154 -0.7673282549842785 0.5978707022786671 0.5663114394151473
Ni 1.311177978247164 3.260045230324386 3.6941834632963997 -1.1831296293305946 -0.9165697377533313 0.3245025295303185
Ni 3.536417197625869 2.6666717111723353 2.5485118000668265 -0.021149123273789382 -0.3444329499056584 0.4330622183092929
Ni 0.7376398676681604 3.3760234008338847 8.09764689028386 0.9065563193813871 0.5646520494348534 0.4440868515545706
Ni 3.5922817414762642 2.6507739675867605 7.249196753676109 0.22881121207358013 0.8559649795870807 -0.8499691670149618
Ni 3.917835934364874 6.8219569248025085 5.956450533997235 1.5125131411022983 0.31417003725605896 -0.5845513594619417
Ni 0.7888222491158821 7.383099153418414 11.382362222761715 0.16143468240113487 0.46389694430196243 -0.07375646505686007
P 0.28501630863090954 5.60906168459866 7.8079865520447145 -0.18378348240998024 0.16336352399273157 1.1315597276731029
P 8.604910204131132 1.5274635565998556 8.180340578791807 0.5308878085002147 -0.01631570644088803 0.3843868645907767
P 1.8719116412083858 3.340178574062983 10.370451323180822 -0.004525398674179303 -0.6653891568456154 -0.4242201945376307
P 3.9908874734222897 6.099612847322022 3.664935609963121 -0.040980041956787484 -0.6286437217954657 0.6129121699928218
P 6.696699774313307 4.112104363548508 10.470353797064039 0.8691097444991548 -0.5496589184601308 -0.536187109225941
P 6.5736851953064805 7.730770367080558 10.174301676138288 -1.6996094899355954 0.6977650020731596 0.39927458033588653
P 2.556495172959343 8.434701752389973 5.769615275957809 -0.6350694228161514 2.2468772824557304 -0.19692310511573186
P 6.937590084314718 3.973446259585688 1.4210058737681601 0.17769099635899718 -0.62295387049954 0.4244315392174884
Ni 5.438589934991149 2.8895306569470462 0.3136149965350798 -0.48566287522414425 0.576740090947639 0.9041094005027913
Ni 1.5030585681600925 1.1287761115228936 7.179898571099719 0.10237181480070756 -0.15580988001518972 -0.47862268054791113
Ni 6.7529547253448445 0.7852650041491042 9.186363593326872 0.5585755042234702 -1.124812124536624 1.6338293582159926
Ni 2.7839936087239043 1.6525391223536412 9.245364105557883 -1.4022084446077592 -1.0029068676886792 0.7825306737563298
Ni 6.5701170552555785 2.1637001525465944 2.6954020480096816 -0.45818755262201083 -0.9637731349120111 0.22112515628323207
Ni 3.9833244691922585 6.911795972649031 10.313284816777502 0.8393823926380511 0.26507996459762734 0.5546915957880318
Ni 8.05403659230294 7.664310353918703 -0.04495220917563642 0.7195592151301156 -1.3484317651069357 -0.11755032231335884
Ni 7.3297586373902845 3.8235026643168313 8.275153232541344 0.6661843990534011 1.3057049156623706 0.6455834349735979
Ni 2.9284715034567723 8.645848482730422 12.6370373868135 0.9279604960887761 -2.353166172922657 -1.6804187759397577
Ni 0.24946474120770268 4.887552896901083 10.390490106657532 -0.33498697400141014 -0.47494188926221437 -0.5330881585856432
Ni 8.808221553138429 2.472366965041618 5.860468474551626 -0.5761068282390143 -0.21496659288100395 0.055289516600924134
Ni 3.6319126099805668 2.5221211825453014 11.828279857520094 -1.5467841464700263 1.062702756800389 -1.0731841159476871
Ni 1.1127512586225283 3.3704850664037305 12.439518590865939 -0.3569909890763271 -0.11770381717208761 0.7829942436563095
Ni 3.311960306179507 8.366108118586993 7.964032302347189 -0.5343243449855895 0.5005858150825637 0.5371625857653329
Ni 5.796756746360275 8.090417094043316 3.6059214788769545 0.4463980161862506 -0.1322457195420045 -0.3020686260068346
Ni 3.3902505648536425 8.293056579529578 3.5595983049489357 -0.2392354927306977 0.19765278419290475 1.5082890757186216
Ni 3.4159811218619343 4.369682310734549 9.091910477353455 -0.10247748714063641 0.19640502782873273 0.308955582934655
Ni 7.384969476193186 6.083497202053949 11.435594695872272 -0.7779839349259118 -0.24979012831809236 -0.5441788691821661
Ni 0.6202017558859257 9.221689995678163 0.41040056843490036 0.15587775713864768 -0.20676785912029552 0.019172716273708916
Ni 4.757302166187973 0.45525562977708983 1.5967317776949017 -0.5001212167413193 -0.9619666778308916 0.8646411672048401
Ni 6.124262975154595 5.693907152221274 0.21499269503653737 -1.0200314431841078 -0.23328364602263693 -0.7463575662698824
Ni 7.913371977013784 9.152415419117379 11.191779963707003 -0.09878178345660407 -1.6966555495135942 -0.2849965010158963
Ni 0.33912583601351953 4.9550933392386565 5.730693495845302 -0.8712465883364996 -0.8243648361832964 -0.3672522617930191
Ni 8.093168102784851 -0.06798350909198571 2.3474584572444144 0.7782137915485308 -0.5416406761413446 0.9158847958711647
P 8.676545382252312 1.5101857690251277 3.739775758664374 0.10132691847596098 1.0447842246487555 -0.36711599332547096
P 1.87208414670703 3.3210213844767105 1.3348711545241008 -0.815082639550422 0.06473189296074658 0.0009232831452177648
P 4.872871771042788 1.057395152031295 8.050194259301561 -0.8019273331153867 -0.7273226611256184 0.901293528320551
P 8.451679925151266 1.589302238245401 12.437685492961926 0.3273032322039073 1.1499269173263809 1.638602354124604
P 6.543070008915529 7.728010279102251 1.43359060385609 -1.3576373428656037 0.2735959724884385 -0.02586735468506513
P 1.815584056282683 3.1800026789534965 5.984754146706355 0.3890711574403235 0.5001137605421516 0.23936199100623295
P 6.941539552309992 4.011379310813862 5.984701487133085 -0.09879978117873307 0.16352113261651838 0.7885964203344354
P 2.6319436305242347 8.671197711794342 10.292368979028737 -1.4866990082526719 -0.5344798967268473 -0.08953069717198128
