# total energy = -381162.90752962226 ev
CRYSTAL
PRIMVEC
9.29808052727891 0.00000000000000 0.00000000000000

0.00000000000000 9.29808052727891 0.00000000000000

0.00000000000000 0.00000000000000 13.60868071606040

PRIMCOORD
 96 1
Ni 3.61140241914699 0.5767432062454032 11.435891635225007 -0.7613460692589146 -2.4062751369324946 3.0572195791076897
Ni 8.065750233965558 3.219451127378589 5.318544903626404 0.37008407481485944 -0.903750988722108 0.9003165091192623
Ni 6.311546444078434 3.39498029391092 3.557717161083404 2.1432515406432637 -0.5229374433048866 -0.6228672243230047
Ni 2.6642627316986722 2.440299863054523 0.9145629320789633 -2.497192430039357 0.3584074098078795 1.827845831207891
Ni 8.462722489285579 3.5148232554235386 12.713815190878163 1.9272076555376807 -0.07442392343752989 -1.0843403896748227
Ni 4.49485955221561 1.9660698556041325 0.33107489812921903 3.690519568728244 -2.3014530608190813 -0.6170611591641889
Ni 3.031992523370838 5.1104761740473235 10.982327541829854 -0.33954116903099585 0.828051026785632 1.6306666442172946
Ni 5.230356327882547 4.671932200136031 10.440933778603975 0.35278183609098596 -1.2266072408982553 -0.09883217707856527
Ni 2.4708905483967922 4.622326939862168 0.1708736175503021 -0.6608886978721005 -0.29921907237318146 0.18686469243846526
Ni 5.478178071477536 1.853163262257269 5.980171217944183 -0.7317948379643591 1.0017462717216747 2.0782010880008337
Ni 3.576562510947147 5.777241537540991 8.761772008228055 -1.3048600511635722 1.3145438541102394 0.4785051811334405
Ni 8.484917007799863 1.2581697833097967 13.46663336099012 -0.09278699932574987 0.17539628678754954 -0.4492262296636651
Ni 0.5757529606560562 9.205583344828222 9.486570412297784 0.47541471513357475 1.115490332915066 0.9695097802854723
Ni 0.9554149792278376 8.970304712031629 6.188955899733402 -1.8349415617124076 1.323736576353101 1.3750483392531996
Ni 7.99410852254848 1.7615585716821804 2.239362761334871 -0.43276474167353207 0.27416547183866335 0.14112502430950535
Ni 1.5699623217846694 5.112140530483879 2.8526111620247376 0.8536692415743685 0.7435365518813194 -1.2815602000953672
Ni 4.4677835413594735 7.741061257627545 7.101254749173812 -0.544206894206624 -0.7777641056056218 0.36951688945747974
Ni 2.123597937995845 3.0032428579974955 3.6990981966163368 0.7395158607577006 -0.4338250646172464 0.3211744935983501
Ni 7.713957352529455 5.658123826319161 11.108902313733902 1.0122471712529986 1.1053542729223285 -1.1040949465939307
Ni 2.1584285481150376 0.01400197965256049 13.785185604098373 -0.5432666417805418 -0.6171647746215888 -0.5173846318074574
Ni 1.0944398811237699 6.19295872345372 11.985083698693002 0.15205041297275748 0.3868654080382563 0.13783529781464002
Ni 2.3690207767828393 8.777769355988351 8.008368059035076 1.1071771850636802 -0.6647582081298358 -0.3762328680250746
Ni 4.328470398963356 8.12029277506518 0.9341186553044533 1.5108596646592753 -1.9427893120260218 -2.048729818014594
Ni 3.2002319946726705 7.361560095851029 3.1842411555688304 -1.158361421246979 1.9981557046114684 2.559514685117347
P 3.692360807376517 5.771030419666025 2.26641738660551 0.3527890351798376 -3.485807049475081 -2.628186022341816
Ni 0.47102588885800545 9.184188461249935 11.847473034864107 0.7361860250535193 0.21978946819094405 -0.7328513042533313
P 6.03228788980192 2.7576805480007343 8.345618742332787 -0.0028680655764144153 -0.3531042524274112 -0.2505768858854459
Ni 2.57620060985167 7.482304971186808 5.714897906775057 1.3410226171270583 -0.8004098680295958 0.028406576167151074
P 4.046580487862568 1.6171407830085833 3.461082208876046 -0.10852754998945824 1.0530539208567156 0.9545050793465238
P 5.457155111125296 0.19775343890469954 12.99160929745212 -0.6903905639859594 0.0112280075053355 0.07482167309658083
P 1.200363615901623 1.436739422215052 8.05557720392514 -0.2058088376411359 0.3976912950091667 -0.01853379713812937
Ni 8.059873846994034 5.463003603854866 8.51463832260125 -0.27148381124144216 -0.06446706933513414 -0.5866830610929638
Ni 0.23013307496424976 5.351659088057396 0.3185001738566094 -1.846313036774143 1.0133182928299902 0.8138734497336693
Ni 4.63565108943526 0.7473267236793895 8.053672027199719 0.3191600342714826 0.4638658339537108 -0.21689466314165226
Ni 4.566398984745526 8.754068548408581 4.9185442634383065 -4.0397584246629785 1.9214712672745358 -1.5855003320933017
Ni 0.9502080540631959 4.3084981217246945 7.516958917773629 -1.3322754670620476 1.3928072058985173 0.8224907590890351
Ni 0.06934136626398507 6.8926857828556995 2.2517199105202437 -0.9895026784676312 0.20406228726367434 -0.7171410926069262
Ni 7.969980003258756 0.8134128319074084 6.1832134051232535 0.26550085418512986 -0.2736954741807803 0.5044980056527762
Ni 7.802372801441202 8.828127760794958 2.727669133083031 1.038238710220754 -0.44252439216345724 1.2695099537990524
Ni 6.592153220049364 1.6907350913624026 12.033448595008 0.5426863437970396 0.7498555521208119 0.09427618227676667
Ni 1.5212310810920142 5.399283857152564 5.203632714283089 -0.23135171910724672 -0.8736798803683405 0.19487033635176118
Ni 3.221301445428167 0.07914154327029276 2.1841526180444975 -1.0306223313260767 2.7160444740176968 1.9737875601797488
Ni 5.364555525920535 7.591287774498889 11.972209576223422 -1.3674021355618515 -0.23107146886266658 0.7615435299817014
Ni 6.815716271225514 8.248159980179738 0.5056314854254399 -0.451859296411138 0.6551042299798394 1.0385343870843018
Ni 3.1462752326540713 3.7939516365709363 7.586934413138023 1.1475573886529398 -3.075495237488426 -0.8836773579006845
Ni 4.438987385582875 3.6803569852558873 4.665015357939644 -2.0272917027454764 -0.2968855391439984 0.4512990530322938
Ni 7.272940089164958 8.7181128705306 11.11407390619207 0.6566178384108886 -0.21771690193263152 -0.4157921183749355
Ni 2.3125442349077794 3.5229125855900354 9.630129058319213 -0.47565382772757436 -0.2932649116722756 0.0005335039059668231
Ni 1.7747060577229006 0.5628314179751588 4.2434320129441065 1.0383819206668377 -0.19489347628021272 0.37775367554497524
Ni 1.1938549594458212 2.5267534169488766 6.228270974150642 -1.4291988571536742 -0.2503660554262204 -1.601053192226236
Ni 2.877858240416794 1.3678499426707127 9.541168741881313 -1.3509781856778733 0.03406608844577359 -1.1503616908709544
Ni 8.344339326435188 2.6768430348196723 7.7951342456542845 0.08380973552780405 0.5722326899955887 -0.036727951548652875
Ni 7.7475420198413945 0.9611332988282923 9.272682943847215 -1.4556305689826414 -0.1509929182425206 -0.03933505015419677
Ni 5.824633854619881 6.699992359441354 9.852997542870725 0.9469398654047563 0.2590080473719346 -0.3326195022104981
Ni 4.39894055221839 3.2119289801318125 12.124381964160076 -0.17642884181712196 -0.32761999211337767 -0.942066596472855
Ni 8.46485174975469 8.329843618700053 8.007973820415469 -0.030800016099992118 -0.9774066665350457 -1.0800440762923142
P 2.7279638822396723 7.618930968274746 12.190152867454021 0.41216352048341276 0.4892552205610929 0.7691989896444301
Ni 7.4287480266362085 3.263505433503718 10.080195213773406 -0.9639297150945335 0.7091349344729981 -0.11761562833365552
P 7.729661810749241 4.859641852321363 2.091898921439959 -0.23834434837499596 0.29493587161679524 -0.6601399926315341
Ni 2.990718343360402 1.2478489137870248 6.2974031335999765 1.6627187875568334 -0.9563146217514369 -0.043311518303441536
P 9.045098472789444 1.4340057865036153 4.400421736466117 0.21661132757327856 0.030061852382386935 -0.8031802316858814
P 3.5787940503034217 5.381487330786271 6.474466483439746 -0.03347602027025847 2.0385942722424892 -1.27347228088091
P 9.00935665076644 7.30062977334407 10.198426817909182 -0.6902941476174113 -0.4257857392525377 0.059581716218374804
Ni 5.09104318548643 1.5663081760887692 10.237783733689351 2.1993818079779284 1.588040324906336 -1.4809153116913591
Ni 0.14377157206834226 2.1961322651554336 10.41962257775155 0.7167824237159269 -0.6959857986855498 -0.43608763539917805
Ni 4.910381478434665 6.174464841038592 4.998128395347594 -0.5475148755339344 0.4925233497894034 -0.23619002103615452
Ni 4.749087673379239 3.822199205589117 1.9748239985371865 -1.8551645736275015 0.17195383676490386 -0.24201871190278965
Ni 9.016097759238521 3.593419931167674 3.322858801532242 0.6011421739410873 0.4212217740309391 -0.5759361069891049
Ni 8.603067718633973 7.588228705964663 12.838701431335963 0.708814832129418 -0.5282364869202968 0.895553283402664
Ni 0.5371491894086289 5.073404726491206 9.960859927464343 0.08505543500944707 -0.3699215810950661 -0.4611903440040767
Ni 4.450479813267691 5.31177032206398 13.06958672102489 1.647286512162163 1.481476583511468 0.16780561892448517
Ni 1.5524168435959573 1.8178119596216127 12.513495481713747 0.1497024815658712 1.195842963132205 -0.26289504113116663
Ni 5.620940801795229 0.6608145918769334 2.2257950020487187 -0.24168781092593214 0.8690212985504066 -1.2437395297031677
Ni 0.7285780738544191 7.685216985236764 4.3095562433027945 3.404891861886252 0.014079618021517689 -2.754347226252637
Ni 5.916926603163155 7.8138652291260176 3.1978498264098474 -1.0013418371944045 -0.1250088354739331 1.088795854343015
Ni 5.514031470468355 5.0675934260842395 8.013172377307523 0.21697128201585858 -1.8947755031509046 1.6209167639193827
Ni 6.254130796057608 4.2497807424127085 6.14751714369544 -0.054130206185500324 -0.1635812964304925 -0.9250564350681036
Ni 8.297941903985972 7.3524386787322555 5.226727287004405 -1.5675123801563133 -1.045650943524425 2.1383497324662724
Ni 1.86688722929836 7.191944508612828 9.723266072585611 0.6613437831316481 -0.2583840406346905 0.7483704829348531
Ni 1.06831227449405 1.3158457775888543 2.2313747802474717 -0.8157634676675305 -0.6755894944173849 -0.8403342150283591
Ni 6.623487751843726 3.129269043143126 0.6434216022109001 0.4686776535200574 0.8340920907733894 0.3307091725616627
Ni 6.395656881648699 8.312586381011526 5.658979249739067 1.5593761242024242 1.6019597632009055 0.5580286305810648
Ni 2.012392893408141 6.978674432717496 0.7813576988625833 0.5801300904657943 -0.35283248682326335 -0.22127016650152861
Ni 6.464378995741318 0.9777210747099364 4.315679959219639 1.5372358406599589 -0.42988124947815 -1.5884036217830255
Ni 0.7050781048167131 6.696905396665173 7.2319932015934425 0.05276520751717364 0.05113358545102161 -0.03709587641103289
Ni 5.8260099705562505 6.140889471807304 1.772340626005249 0.11340236158325631 -1.2438313180860254 -0.7443089112709698
Ni 6.897213948132808 6.0719720980210115 13.215389923715508 -0.5823980605643647 -1.5875009074630984 1.0207662644676032
Ni 0.5395899355795547 3.268200964232547 1.0066027728285256 -0.42080474109817856 -0.5269187965501376 0.574928748770513
P 9.140943088141455 9.069282780563075 1.1202262481935927 1.078712501965084 -1.6090053571937775 -0.14234706964206453
Ni 6.300565410829431 8.413768094657295 8.421310697681504 -0.3201563367464809 1.2323865665841938 0.16638714131040377
P 1.194357055800983 3.6538760515614244 11.538827896689646 0.5282398293544064 1.8159665632718016 0.7581579013389201
Ni 7.072668730019928 5.664093194097197 4.148347980589359 0.6243713196723569 -0.40032024799158156 -0.48617066809849824
P 8.523141417356724 5.2019506914932965 6.052760403779613 0.3385204410759654 0.9409659072095085 1.018421932605143
P 4.219701451506252 7.971430503840335 9.424800473108027 -1.190546490619956 0.9933379930533216 -0.6454224839157013
P 6.63237671694622 4.096483286717268 12.048186982648131 -2.9968765592432582 -0.5190666474955705 0.31703116085393784
Ni 6.607885572511102 6.6363098050616545 6.941964680498707 1.5680721093145253 -1.266071874651781 0.012771697843371552
