# total energy = -340890.6378562117 ev
CRYSTAL
PRIMVEC
9.06147295627983 0.00000000000000 0.00000000000000
0.00000000000000 9.06147295627983 0.00000000000000
0.00000000000000 0.00000000000000 13.26238161923793
PRIMCOORD
 96 1
Ni 6.3841791228069 2.0481375173207454 11.292997331458146 -0.3865103386916827 0.05056305765953227 0.8595449836288551
Ni 4.594728531581146 0.582867459298599 5.915459942782198 2.8856053850703915 -0.5756890239753053 0.811033666292029
Ni 2.86968688916733 1.6468592549139005 4.7834753858542385 -0.9186070798983339 1.373581782010002 0.11419246158471946
Ni 3.548128420751263 4.2116366451261245 4.6235576073612785 -1.5985039434418211 0.1529253593785431 0.9990463562920084
Ni 5.039365941436658 4.916972628042898 2.7542382885436143 -0.28570329727493377 -0.5073506446102231 -0.9754564847872104
Ni 7.187705225212441 5.96321027995994 2.4407158596721117 0.15657555453662067 1.254673403006852 -0.37603026509596527
Ni 4.992536249897533 4.430797426775748 11.25115416841244 -0.5050788178569108 0.09555427765824188 0.5360325859259478
Ni 5.509819487359305 7.757979955731643 12.782110842914289 -0.03839248373526936 0.3933978098401354 -0.6757792418306878
Ni 1.9196639556640693 6.204834452732918 0.22675882661006425 -0.28121337982438016 0.7433689159552036 0.08838192827951875
Ni 2.8714176304761483 1.7423218710835355 0.2908325009276236 0.06399398635345753 0.11848491831248627 0.879959285619149
Ni 0.7039477652805901 0.15548943672531862 4.92747849963161 -0.8274622441616976 0.20498839862236956 -1.1749188113850282
Ni 8.886704194738593 2.3965239628711914 1.5722688352402447 -0.9330181131173416 0.8870529592411369 -2.339983612794112
Ni 6.920835789160052 0.739181490050632 4.896365026553293 -0.025087024875614858 -0.19346137181937648 -0.9266235224449075
Ni 0.7154902693600284 7.390392249273417 2.1222594588495536 0.9091364214037374 -0.8095478257751219 0.8068504814486168
Ni 7.599666964075288 4.119789556612084 3.8267406194324343 -0.7169438889944555 -1.6327638930659556 0.20420061261375155
Ni 7.778313900742052 3.813122131929697 12.91619345624719 -0.8703904109837914 -0.15276800786507239 -0.3385142704283783
Ni 7.840529973131299 -0.02628008347557427 7.067416891955007 0.3043144846182178 -0.34128257720213484 0.20931890767692335
Ni 7.044361786656441 0.6206909530008934 0.2272245863130656 -0.8477428487876045 -0.12862174963617204 0.2197303328182345
Ni 1.8691734291052455 6.432730494182021 9.218177401268573 1.422614261957621 0.37265234976266787 -0.32987304981361254
Ni 0.2972607097468679 4.840983116965673 1.6759402396384575 -0.9138271420111874 -0.12709862812342626 -1.3757307100322047
Ni 6.3784703949296455 2.0476753822068723 7.008877059089256 -0.5284061797289417 0.07465737960457465 0.4189440337403559
Ni 3.6083419076470595 4.307126445714222 0.5854807880601863 0.3926236506782722 -0.2937302813444683 -0.6693229446823827
Ni 5.811321872533702 5.613981117437137 4.887147696399734 0.006435214102382466 0.5897025646455779 0.43734567617599523
Ni 5.312478732262742 2.871716659079243 9.097582790229788 0.11779303445178423 0.7343374018805546 0.6365583486568521
P 0.017601910954866223 5.740823613986027 12.471134687905499 1.6676715035764185 -1.994141441245753 -0.254428141310736
P 3.9940072523832564 6.15379117633201 12.692841743417834 -0.7259838877095367 -0.8848929754753405 -0.27049882162035355
P 2.523339275001618 8.779534155684178 1.4690876565216497 -0.996985617108238 -0.21493008321611368 0.838722133346233
P 6.185026073146128 7.807654949736572 5.9959620673242995 -0.19535421796671518 0.6590832692322456 -0.4556496166915056
P 4.782328203395095 0.8491207151991571 12.401639534399113 0.730209238644794 1.386551711907109 2.3577651051472492
P 3.9555141158394873 5.855487491063441 8.280990950163593 -0.7904640696707935 1.7092390426055593 -0.8045331461693498
P 4.883535793333268 0.9230741133334941 3.702339283661533 0.6128106114179511 0.7294440783439954 0.9755107350639136
P -0.008152607097087846 5.66612083204939 3.632168144282697 1.5364691376972635 1.4948769160777737 0.6271110872010233
Ni 1.5705616537607612 1.3854629484454188 2.696215865775944 2.2419947575524484 -1.4852473634078098 -0.3307726788097464
Ni 1.8748277881455735 6.8084372802878965 4.869270316671108 -1.178011334267423 -1.4953615690236761 -1.0473905519233508
Ni 5.902996793064142 5.625933200088086 9.05369717121022 0.6564921114663017 -0.38600485981017396 1.0464225315831268
Ni 8.579375282540271 2.484302450088586 10.47887293044112 0.45032486204448247 0.3603313663034698 -0.5294114810650044
Ni 2.2045747841031447 5.303806902773008 6.915827513131863 0.37198077761694 -0.09982565134008614 0.5312102248366399
Ni 0.811239228070808 -0.3150175718869739 8.89327557482841 -0.7973119458305624 0.4019397858728755 0.4479023686459189
Ni 1.489370857284261 1.1582827633491761 11.614013598352647 -0.3632932771452711 -0.26650615552119267 -0.5281205301677228
Ni 3.921524531287774 7.005343084689051 1.6367765541059316 0.733802098202375 0.3748989797049995 -0.17129640568656307
Ni 5.4510105287507695 7.694966473734144 8.032533520736273 0.5858708496043137 0.9447832240730697 0.6682806194607975
Ni 5.54119936773856 3.057866495241825 4.724206104426393 0.0782767215247168 -1.3753450445580118 -0.008861564155687965
Ni 0.8128503579383886 7.644358148028648 6.661760125881038 -0.5650742245739365 -0.6628975007720133 1.8798134825244333
Ni 4.8245999741052366 4.228101341241951 7.080201723958211 0.7451378349301683 0.9609495494202868 -0.7906928978521479
Ni 8.076037651750076 7.335452539559465 9.249834562716151 -0.2903081430367968 -1.0818924423549625 -0.6434476195775176
Ni 4.515359091141675 0.08052749666600008 10.474190867434489 1.1534706688135812 0.4502832101732697 -0.8593040712626425
Ni 7.897843788724364 7.192924633557359 4.8912724788278705 1.4941505794347105 0.3790669950397601 -0.913246072696737
Ni 7.225917456098757 6.187708269101155 7.046887219131664 0.7872532760429796 -0.5988055553881106 0.20220055146458726
Ni 2.4480021899675077 5.354578334989284 2.477319679132694 -0.24150731948400989 0.19504645691830927 1.6296484873654253
Ni 2.2594691864529923 5.286762272396635 11.30647174154303 0.5454014287353575 -0.5896575703402555 0.42609555718347264
Ni 0.8994082647667894 3.4842994061998716 3.816661543213594 1.0000717122327294 -0.09765461183069633 0.22085133379655514
Ni 3.939729030185239 2.615557883901321 2.706825944302097 0.26978534049309666 0.42781665363963733 -0.8128588924262259
Ni 0.9591840825253304 3.2672590091903704 7.961460764811743 -0.3349707760514941 1.0804114869340617 1.5434656236197548
Ni 3.517011323083818 2.3537447496830715 7.2726791865917235 -0.4300869377310529 0.2377473382209454 -0.23405806229481624
Ni 4.027099751125687 6.862688318067452 6.135893861363178 0.5296583069684878 0.28555520173284366 0.14967599920330996
Ni 1.0805896953815968 7.5083363795120475 11.23943043487658 -1.0368539140580852 -0.5596278567473846 1.500533857253235
P 0.20922850129048423 5.829272650192178 8.054535682893034 -0.698407520753165 -0.5756131764320475 -1.1559690097554027
P 8.517014226585887 1.6315544273191673 8.496319634957201 0.013136537381958023 -0.939303174795105 -1.9144616687259222
P 1.6731012802036265 3.2040552362636308 10.508435079372473 0.3748257032649029 0.31236537994715236 0.42993704241674985
P 3.7555364721520004 6.288788998419833 4.005106650441745 1.0965392457338599 0.019039276019638177 -1.1593482106402808
P 6.856327164147083 4.009475186488768 10.250627116141123 0.24468648854293992 -0.6106128324356839 1.194690851805633
P 6.4367447266417415 7.611863706492406 10.61164253636225 -0.34993279667796506 1.757027365733432 -0.909291201814047
P 2.7436871095907973 8.814366457208248 5.916109650383467 -3.5113779559656493 -1.188155107569644 -0.5095049719490644
P 6.7342147564107755 3.870734976125856 1.6679298976646602 0.29519169638134324 0.36582529953850546 -0.46041772750411025
Ni 5.347383525569379 2.5951876929996276 0.3891558240668601 0.08339064571251445 0.3679865688558823 -0.3785584308344577
Ni 1.4100467242088948 1.1128757230429551 7.0834112976314225 -0.22597682794857854 -0.182037446253151 -0.9133471170509755
Ni 6.68745755665422 0.6354973995904695 9.32391844605911 0.3064289598580594 -0.394482815374198 -0.4353772395957147
Ni 2.3366185660513095 1.4778084179646167 9.319713922670148 0.8108719439031842 0.474025548095532 -0.5406711131392238
Ni 6.616614962139344 1.8665002946230396 2.4711134763975653 -0.20052342087248046 -0.07443369362954277 0.9099715157105233
Ni 4.384592976861277 6.870136848726345 10.60562118767267 -0.9279124164596599 -1.508597865208292 -0.3726580061896227
Ni 8.151166322909301 7.387483516497864 13.34049692109229 -1.1086190597165293 -0.8065514621509593 -0.3430769500983962
Ni 7.515078115290899 3.9621199295260237 8.241323446742218 1.4661119281299395 -0.5293330624185851 -0.9264584576219529
Ni 3.0491040510238814 8.523130720740088 12.691528736006065 0.3059707892747182 -1.024201258291081 -0.9881032270169435
Ni 0.09954752811735874 4.823394798220039 10.106703743324578 -0.1721888355938454 0.48779072020042435 0.12345640338514866
Ni 8.560473050235585 2.2903416243542685 6.023933021628279 0.20988069371766435 0.6690784327717444 -0.7712607572694652
Ni 3.7407119026167823 2.3017500186359556 11.112576158413022 -0.02455069275617062 0.8971278269786356 0.5025686498405474
Ni 1.02404610497832 3.4184768676278514 12.740081919675752 1.0876763960265914 0.4609861984130706 0.023139157120624667
Ni 3.1908889162546625 8.41699368958727 7.920042584841343 -0.29882852180298214 0.04355782998629273 1.4604950961637944
Ni 5.7297323712530766 7.81522127954214 3.6454042376323876 -0.583160392651686 0.15703526778185858 -0.23546394150340738
Ni 3.054395951151368 8.468725637922576 3.7802561700077923 1.0431693147531518 0.394962583224094 -1.7463236061626828
Ni 3.2821470090353357 4.173959041136249 9.363891321114556 -0.2701684348641283 -0.611235039400715 -0.39258842656496257
Ni 7.189816548379742 5.839031856420435 11.40803544736307 0.3392488346015577 -0.4476270034973452 0.10993702874247518
Ni 0.5043307682113809 9.036490340470351 0.350427995377026 1.6924163146212658 1.4968157849716996 0.1687327587244449
Ni 4.7655735401489965 9.37871498450249 1.647386632632085 -0.086099045782613 -0.27087625956443023 -0.9473394148360201
Ni 5.972942301769735 5.3381317618191 0.09020877422799703 -0.6646167974559651 0.2904377266361256 1.6802868783475835
Ni 8.267207543855513 -0.14800012943873078 11.00309453764196 -0.38497693276629186 1.185893565228977 1.1067982044577067
Ni 0.13741542303647636 4.852065298225803 5.745993184230429 -0.9125302775766349 0.6079314289487788 0.5902535520530415
Ni 8.038595646053546 8.779325741809293 2.6591870632400547 -0.14814490727076424 0.036652618226027195 0.3289651932873625
P 8.719166623750423 1.6096256630922556 3.475739032825837 -2.0450942781445356 -0.2560780182093331 3.091421678910695
P 2.0381155283806773 3.361443957692239 1.7608063694911706 -0.6094987734358988 -0.7012305920242569 -0.7201490261953146
P 4.70885778176212 0.9816746580671466 8.481186975346068 0.014344184536814006 -0.7070042612832405 -1.6329888645925683
P 8.5679306423673 1.6960630523321367 12.485935697611382 0.3383664319966044 -0.2958642969683356 0.7932331477754984
P 6.533602809625815 7.776374745558351 1.4316873336000977 -1.09488756906305 0.15641408925809192 0.8041639357553892
P 1.7678933473845044 3.303205871871428 5.959292099112123 0.7117888271560774 -0.4703087613655771 -0.7646707627567735
P 6.91994776482359 4.1331642904959365 6.04910488697784 0.14923376945956882 -0.6862634291914632 0.2858498501551271
P 2.5574285357543625 8.514087370864692 10.177989443860401 -1.0926147138684732 -0.4700056283028616 0.18458078150029503
