# total energy = -381177.6067584995 ev
CRYSTAL
PRIMVEC
9.14651661431233 0.00000000000000 0.00000000000000

0.00000000000000 9.14651661431233 0.00000000000000

0.00000000000000 0.00000000000000 13.38685160911858

PRIMCOORD
 96 1
Ni 8.76073459394034 1.4983091381306288 1.2491333368623987 -0.5980895031576926 0.821103134712889 0.2687119049232598
Ni 2.1640383314671228 2.8670578720074764 9.375065853237745 0.2612860447728339 0.07388193489113082 0.11167483736918833
Ni 8.208413056964075 6.083494375973014 1.190773989220941 -0.5985618148084206 0.40215447298684287 -0.09757696451522549
Ni 3.9129345783404865 6.205847325334314 1.213782965778711 0.3889824543812591 -0.9287053446746005 -0.5753038727217448
Ni 2.1456172475160384 8.732490151417524 6.789074941094451 -0.7503106373803594 -0.6445197695957738 -0.3086488503275136
Ni 3.882037646072977 3.921367666425342 10.817540082242557 -0.5359348840058189 1.024824493697377 0.15732914487319358
Ni 4.578965606716894 8.742624491545529 0.005654376414379622 0.9679740603672361 -1.043031760734023 -0.2685326990329182
Ni 6.913376098440647 1.6999806773746537 2.732069010293433 -0.8611709492680524 -0.21313185366511037 0.37538414687153415
Ni 1.2108432754202807 0.40486780276543133 9.034625197067669 -0.32568060899881973 -0.23407991667168715 0.04732501033820882
Ni 6.21301819416135 5.031983415561617 10.286175043552648 -1.5811256000643739 0.3742112096093555 0.6376153291664568
Ni 2.585226263375514 6.820886524998062 11.246092789124836 1.2333419885189276 0.03424760832896037 0.8785354086884289
Ni 4.515827204276806 2.656687995704126 8.763862702535807 0.5705236777242819 1.286848702187816 -1.0698491380371833
Ni 5.63183025154972 0.8384373738717285 9.542723327438427 0.5890217365284695 -1.1169792587557668 -0.7942147949624773
Ni 2.2671287173721257 0.1787201857393295 11.241849720184963 0.2583267050341938 -1.3066906766144077 -1.0277923180764492
Ni 4.581499191748896 0.14648420347656738 7.043745969392378 0.9424244940329061 -0.07652245783777144 1.1297792387339123
Ni 7.610468696379063 6.498215720814167 4.158745376239499 -0.3530165778096114 -0.42428164390318546 0.10656348428455195
Ni 7.8376132836885155 1.4752233308354261 9.858813213100571 -0.23150649951755617 -0.6121814624743843 0.17284215290712815
Ni 2.771961541402001 1.9363266601432876 7.129596086608503 0.523502314669421 0.0007949850974695986 0.379206863051734
Ni 6.412375664766038 0.4693489138073166 11.968795632874096 -0.1456041431267815 -0.5753681503007769 -0.8034674239089968
Ni 0.40472877571674387 2.494328183779744 10.88799478311982 -0.06566057542260305 0.35621400170098655 -0.26147116420044647
Ni 2.1740537668824347 7.8932698357452935 0.05199520155746334 -0.09327448048512968 -2.0905266994457223 -0.09970429527087346
Ni 4.41153862472851 2.903543325771566 4.270699651149961 0.19662202893554526 -1.2819376380394438 0.10755104500880186
Ni 7.136935251336583 1.2136512559431123 7.473919438973831 -0.6413503707288568 0.3461581601268813 0.123453060951039
Ni 0.18025771513961616 4.536461745187256 8.73848111963399 0.3990164415784934 0.389306156269265 0.8529079379283119
P 4.512616777034089 1.6428789757328355 2.5292852546599085 -0.13537732319245074 -0.5343441424799313 -0.4970970852030148
Ni 5.775448851450381 7.421208979836936 7.95626097927197 -0.7757468180652769 -0.3301674411255798 1.2468665053679235
P 4.672726545933661 7.00186864423347 6.164096222101188 -0.7684034903263282 -0.2622106134696323 -0.2240109624714594
Ni 0.8967061710012122 5.778375736685906 3.962976084003237 -0.1685548383856839 -1.6055855328789508 -0.9842046632934857
P 5.511242579846094 3.0472168047703936 6.549356637743511 0.3257469434603809 0.8555500035368493 0.7306730656550899
P 2.1698097832909236 7.341954415568739 2.344104884414794 0.43015121531008504 -1.0466035372456812 0.5185046043445135
P 3.365945460402692 0.8894127388549387 9.2691089491052 0.2460705133746601 0.11903333461678854 0.11157662122842718
Ni 5.103280510595732 6.154206093960021 12.209156021673579 -1.5934933776011073 0.9598630012243275 -1.1629688381120036
Ni 8.958299347338269 8.345757146641079 0.37430288904182674 -1.381349341770563 -0.8763029198134843 -0.5055575572655422
Ni 9.054959732241478 7.728166068912607 2.747356497739234 0.4781380276020088 -1.292447279321516 -0.22808461832020072
Ni 0.7934749287442497 0.992625688079179 12.684737371729291 -0.21079086423675955 0.6830395229375269 0.4234136394759353
Ni 7.704092437850416 8.374083907811142 8.86149353282492 1.5201045802963111 0.934334775046236 -0.9228128904495655
Ni 7.969195068058081 9.107186340662876 4.069602513133408 -0.5862847972132806 1.1203296632852382 0.7807699823114812
Ni 0.3884571231104978 5.232109193540632 6.316639078015292 -1.2108191248260634 -0.21808971189101795 -0.4163994129416312
Ni 5.389694523924563 5.922067508717455 3.4076764412998237 -0.5959642292845736 1.033542590296665 -0.6269344524138428
Ni 2.144848940141713 4.030110599441453 5.247043625454897 0.027495634317107488 -0.30801558761888886 0.1759609010417679
Ni 4.840995007427258 4.0563976874630105 13.050694064591692 0.10081963982223928 -0.46292481019668014 0.49399967722461374
Ni 4.910581703901863 5.040526261842806 7.993797367765939 0.07366313401210539 -0.005660797830203154 0.2425758699578403
Ni 6.611211783938148 7.530564729449234 13.172299743566297 1.1375521978111118 -0.6234683482421134 0.6456202017488042
Ni 2.273320908948533 2.149001458569614 3.7511967295286537 2.2654241922199825 0.41276207329936015 -1.0302621197731805
Ni 7.924121035430997 3.5391347476985153 6.6979500278929285 -1.9130503902006921 0.432122737214159 0.1937670759852534
Ni 2.8506124355903713 0.8147652748777849 0.3408010289147001 0.25925255928257285 2.212186158831448 -0.04083426040754257
Ni 7.765977767549045 2.1009731011579227 12.573265118231053 0.9696483627458655 1.3252859231180918 -0.21629302500191136
Ni 0.43829100285185324 3.9179194297572395 13.146423334129349 -0.2539990241931174 -0.7645743463882252 -0.1582881663523532
Ni 4.427179167705846 4.7924544450993505 5.421045123403579 -0.09711596571840694 1.7049309021485088 1.5142815458566308
Ni 6.766574510846353 7.4893505267265 10.672801034087671 0.3266900240999406 -0.6723823003339968 0.5487975989010999
Ni 6.497694369381588 4.097904578709297 4.407339459067168 1.131938194058444 -0.223778277635363 0.22007074687678874
Ni 2.505624131485598 5.563688704660155 9.222295249066253 0.5948404000927756 -0.685173024340762 -0.8515557947757914
Ni 7.11466348399751 4.620079197759657 12.41439012904022 0.9664596806052387 -0.154118865466012 -0.7888116216690351
Ni 7.657801918547317 3.675106859921368 1.0336761681590516 -0.07462832613885212 -0.3198220933355137 1.8278939108370071
Ni 2.7468360609582922 6.993956907581191 4.638383206301321 1.6181769963907164 0.38482575190040824 -0.20742451886768792
Ni 3.2125217949630223 2.914189870815788 1.1198418401896317 0.7683834357216702 0.7089212758002952 0.15077925956981772
P 8.332101397714082 5.305354496559642 10.68002952596778 0.8698648774976244 0.787868026808843 -0.3444206086104842
Ni 1.2784909104263493 5.479366970327956 1.5025805612712229 0.9177197921973744 1.4686251814700964 -0.3599642127720381
P 8.63522609643449 9.15200427083185 11.214084555119463 0.11677899136497308 -0.9441885279118643 -0.2509142146202066
Ni 4.625631133190794 8.529346023039377 10.947432505040242 -1.2120974773178543 -2.149002841304744 0.1656006408533664
P 1.7976288860448524 3.80314894245922 7.410037424753592 -0.10637039443713939 1.3197552231078495 -0.08455741232710598
P 8.225004837642956 4.748295064108369 2.9290026540624523 0.4079548817187038 -0.5711669677352357 0.8732178531302575
P 4.570294709206651 6.393753357455011 9.82768944722731 -0.48550346682814444 0.2546636543603098 0.46810172641192926
Ni 6.174319283437895 1.4844155797782463 5.235222667709921 0.1864576868080337 -0.4335396721663437 -0.23926171798294277
Ni 1.159906325805787 3.321840958509876 2.066153228023174 -1.429884570366789 -0.45033668911902436 0.6564170352539921
Ni 6.60212929319166 5.759442447818604 6.24560906125892 0.12884852093499746 -0.12447327468543724 -0.09668993392458186
Ni 0.3291867824394829 7.1932137665059095 7.629594976741582 -0.1838873549776962 0.6885136586782207 0.13153223841474765
Ni 1.457204693604226 9.049984027341086 4.212373230967403 0.9587476566729616 -0.4344470144719615 0.459697304398318
Ni 4.331488313536905 8.089581516401763 2.361829003819169 -1.5481884830167207 1.9214172741081492 0.8222799286298096
Ni 2.656697142220487 4.919956883171903 12.99675797226242 0.192378680278159 0.3321196797559442 -0.2115987048500356
Ni 5.201422631149425 8.36846794676548 4.573912156427433 0.6217793905754646 -0.3432628408569572 -0.1376846311693887
Ni 2.4695868570231982 6.1477943859909505 6.910185793533926 1.1578456579528253 0.2142466839958439 -0.22942287751565005
Ni 5.569268079640374 3.7059580596070725 2.210410254765834 -0.9820829889647926 1.1909187863577102 0.11442334664860294
Ni 6.568186570975932 7.968646277076421 2.3107447952912628 1.1075505092426992 -0.4876680785796311 0.2384569626934603
Ni 6.869875266627659 3.4120439028622087 8.940596264921524 0.5609437473453307 -0.8644601615422854 -1.6572413093820295
Ni 0.9378197620439757 1.8093089874378687 5.589866949137018 0.06885954197587495 -1.3291402638671754 2.0476764370494154
Ni 3.2615196831089808 7.922465515969654 8.860408755984503 -0.3091805544612675 -0.33421769993555345 -0.16080887589167786
Ni 3.270291192299194 4.745670013912758 3.249952998518841 -0.8442065534995719 -0.024954870173124765 -0.8739012523505273
Ni 1.3136867053835362 9.2776774056322 1.917961369942005 1.668858581905984 0.9814849503694775 -0.9352218056368796
Ni 5.698663846599658 2.062127846172691 0.48174884603794493 -0.79623156828219 -0.9090688013905955 -0.23442752981909304
Ni 1.3392878046780177 4.698281912646338 11.043844104698431 -0.23938770203784576 0.11684249761305684 -0.7659306033058035
Ni 5.904679981115165 2.699255882848291 11.071260787490575 1.342991825038287 0.7853987393327441 0.17370784334153308
Ni 0.3281276158448774 6.230542919509055 12.512542310761908 -0.2474095439010578 0.662559400706304 -0.34812042605957466
Ni 4.0410223934601435 1.5851461644621072 11.618140147232037 -0.5562602258267323 0.8792843710393116 0.7291180624631443
Ni 8.700440758088527 3.208780869771367 4.588892320923504 -0.04721676689511868 1.281605708621322 -1.977108397022866
Ni 0.8050169177402149 7.301883527391132 9.875667498799016 -1.4315447316780312 -0.09838351957692089 1.128506542669076
Ni 0.16147534379227138 2.296772576898176 8.057050101660542 -0.1171425453519789 -0.48363221794736055 -0.24423320305560514
Ni 3.4655876096395914 0.7027661820371532 5.228194484538117 -0.008110030701644098 0.6783405747999608 -1.937488725748715
P 6.18626463380538 5.491897697742547 0.8010747691886173 -1.6840288618885189 0.24931036046819643 0.5790787663831446
Ni 7.5092899323935125 5.890996792639086 8.535991881827291 0.26621690641554796 0.49620439818541634 -0.23416039220063542
P 6.888241471480578 0.31884207243517465 0.7872562122703956 0.5652503451404846 -0.07009984214087926 0.20027608074836478
Ni 7.112998818019805 8.174278257904765 6.065930320604956 0.5736755930897024 0.509516027692658 0.8269145991883436
P 0.36749971017250355 1.530916468957648 3.3645579338707257 -2.8019391170989874 0.25886715091869617 -0.6385059593015262
P 2.166270081459211 2.9083269538283774 12.149290242787462 1.0521524920883687 -0.7166710949490431 0.25830896442238094
P 9.100116083515811 0.3552717324494623 7.038137325559804 -0.003236504659426684 -1.4881532242006952 -0.1588944324777844
Ni 0.34426024140243605 7.494289645561447 5.3154229817698475 -0.7556793578914405 0.11647842940541876 1.24091285888765
