# total energy = -340872.35726649035 ev
CRYSTAL
PRIMVEC
9.16085010222212 0.00000000000000 0.00000000000000

0.00000000000000 9.16085010222212 0.00000000000000

0.00000000000000 0.00000000000000 13.40783011751969

PRIMCOORD
 96 1
Ni 7.449869034331233 8.85661834944535 1.8542092101843892 0.958454293802259 -0.9206392798370144 0.3196598567260366
Ni 0.4218388292754988 0.7193227816424851 2.508819746126689 0.43879372147643136 0.7203598566545399 -1.0779851368807563
Ni 6.130459264871924 5.141875278109499 2.1682202523684344 0.07969237092532082 -1.3672064746112778 -0.2655566471237298
Ni 3.590521942840027 6.269667544268867 4.343707807187882 -0.20898800670006587 -0.34108845891345774 -0.16244898259826218
Ni 0.5107970971578301 1.4412857203080156 8.822325622866348 0.13908356839944433 0.09535347450134544 -0.6253336835856262
Ni 7.332866655780445 8.748593604074939 10.05663659062587 0.25929369693315346 0.6263613535191923 1.583461704396718
Ni 4.85840193001401 2.6003989332466793 2.271366845015834 -1.2908046015117707 1.0398960433185187 -0.33353172961212235
Ni 2.931746884404054 0.55275104274576 2.1445559441729762 -1.0565650193337675 -0.37634548234353893 0.22969155779600442
Ni 2.5686199439581827 5.214475015818157 6.812639379443146 0.09079130905195977 0.28805559955719423 -0.38728758317733947
Ni 4.972097241648353 4.59790399418014 6.026096111320082 -0.26210982622570994 -0.8127773884560132 -0.5753121002518607
Ni 0.8952440842370597 7.514727853634363 11.12640769605949 -1.4712381936129113 0.5564887968977706 1.1467906856902443
Ni 1.707426739855266 6.060736034121059 0.33499030519055617 -0.7144925992404856 -0.6512573454299235 -0.5616276607862327
Ni 5.063128609927336 9.049096972662591 1.5013689884101962 -0.5022883995959672 0.5499345407190207 -1.9238829620398223
Ni 0.8160054784000138 6.839948789926842 6.996487565701987 -0.38525152658391715 0.6080586985552624 0.9141230759850515
Ni 5.911588232274413 2.350234436420426 5.180034799551192 0.07739251914755059 0.1367207245942226 1.4037536776076922
Ni 8.306005449132549 5.746647124710449 10.207340820918787 -0.3490272541445602 1.5114309637817132 -0.12005020591707712
Ni 5.958574232868445 1.6199772639982493 10.797848307698143 1.3284694630523959 -0.6189514342083662 0.49644531055162894
Ni 2.463178558339676 2.8818477334514907 2.9952150866492437 1.3214146130881437 -0.31407567777003975 -1.0065570628467568
Ni 3.3729883943693877 7.280787222484077 1.8301683910463662 -0.00486504140178517 -0.8763294021760457 0.4012556153216573
Ni 1.090672501213567 7.84231069536609 3.589584787866198 0.2599750392708942 -0.5189301219177063 -0.49869939669312824
Ni 1.8327563312233623 2.250894177024502 6.794659378786895 -1.0034629973024654 -0.5320990551994964 0.38747090283273916
Ni 7.5618695886815255 3.0369684096181433 0.1457793572339688 -0.1568475772510847 0.9643572895502552 0.7402098015009315
Ni 3.7345946336847056 1.4014451828575478 4.368700438660029 0.28984508735744924 -0.8250634049122177 -1.6571626336252945
Ni 8.318033645424217 -0.07626132952722692 7.826258137588566 -0.7984293472644571 -0.04643412309282326 -1.0892727939794338
P 0.8440221065179182 4.371026378521761 7.785149738472624 -0.6553364005953036 -0.40455305512600653 0.02675078573128296
P 6.352728972887721 0.4630425012333545 6.448804305278047 0.3935369065211609 -0.6602469505230436 -0.24641169876416272
P 1.3201151549234817 7.890368515431658 1.267540119632155 -0.7345361481549221 1.998078828626946 0.5492614259113959
P 6.550933127469998 1.4777550648907503 1.324480300036185 -0.5516936895019724 1.3427501413411262 -0.3931460988406455
P 1.18098016232801 5.229077411011545 11.18703786691766 0.3190240229142506 0.48546027229503486 0.19238022294005577
P 2.147367409094463 0.10345348112856602 7.510021008809794 -0.7076390666537619 -0.6964606814394393 0.12128330699322983
P 3.965896939981984 2.8570951162541665 7.202605778758271 -0.2128235783960722 1.3130860386177903 -0.8591904285029138
P 7.746479041590661 3.6053991635389373 4.964342581967548 0.41862290295551124 0.245644481580835 1.272520715600918
Ni 3.1736299726639197 8.410118511474368 -0.3837681680805909 0.7555775422062536 0.9282065506613111 2.5676758807719007
Ni 2.4494189613632207 7.990368356040833 5.676513487871339 2.1051717030524064 -0.8612246853241233 -0.8163527645120973
Ni 8.489222452813708 7.814122759349744 13.276112038035906 2.0197460291877345 0.6602340950072372 -0.3713732259399281
Ni 0.638200705007597 3.200150633946767 12.371337921352373 1.2859472734194692 1.734534841057871 -3.2952271129685573
Ni 3.0553542359375476 1.5976797546502524 8.833842643717746 0.1867479643549429 0.06794037259571525 -0.5582613154171611
Ni 5.066170012188444 8.069105863372812 11.556557248621965 0.0060546908345121535 -0.5628432783608887 0.01927633173110874
Ni 3.21072225505917 8.971871005610984 10.390840894870633 -0.8942800731171954 -0.020610991382132245 0.12444833498477276
Ni 8.67890701672481 6.4423770527889115 1.732130804546615 -0.10598730006610779 1.0867073472451028 -0.17820238877777697
Ni 6.023387247920655 4.957833797911775 12.427610275777985 -2.2785609867122565 2.89531901281373 2.3839008830023527
Ni 5.646372458595752 7.203799437537253 2.939706747128982 -1.5837748647617627 1.8559438749956876 1.107320909730396
Ni 8.452753108230972 2.2334244357235034 6.886516139667464 -1.0827061965055096 0.797435101671988 -0.9377399440730432
Ni 8.73703261114266 5.848433331105517 3.9891380168989388 -0.3403104430968526 -1.9457782194510167 0.3004650289651406
Ni 4.928097678214323 7.739663369053721 5.779324793402003 1.3373860488157354 0.4052241130511021 -0.03233239358411851
Ni 3.085978958102853 3.3960096108819253 5.291253017295765 0.9351762971109249 0.8681057287146726 -1.5305388882557578
Ni 0.269257540779867 3.1246652284301297 3.325021266720642 -0.7520412469182209 -0.6269712191890493 -0.6083641456108233
Ni 4.002879292175026 0.7546406073570835 6.469103833200901 0.9272267032465451 -0.28135864715299286 1.633026402698723
Ni 6.995838977508955 7.191468933189512 8.475907157071179 0.32348848644350736 -0.8390350366009615 -0.9302099542445851
Ni 5.310370795544875 2.661089565716063 8.803621915045557 -0.2565865824146355 -1.1884502702125597 -1.7067371021193123
Ni 1.4974508927864747 0.35865094904594097 12.168986649891771 -1.1312568517207033 1.617842495869433 0.2729593673457041
Ni 5.880065746791069 0.8392548000821345 3.440636692553563 -0.11483086649966674 -1.6178684640113619 0.3734699605679568
Ni 3.5717696825132603 7.477873753343898 7.757301669998106 -0.5565551313593318 0.9494875715272744 0.08396554437937798
Ni 0.7687858761262873 3.9465583852434376 5.347471322705292 -0.3005809857177146 0.600791475469888 2.015918427911528
Ni 5.185215260330277 2.9542917367070207 13.092129187279362 -0.3682231103467207 -1.210493108945212 0.3021272471589119
Ni 8.524629138775092 1.256135777238021 11.471337523699749 -0.14160350660782065 0.44776301485457726 -1.003060362547408
P 7.055164643300914 6.943539683808169 11.946967033085999 -0.26941278764502635 0.20338840112510134 0.21487737560130735
P 1.5638578957707105 1.801994196305296 10.504149618627208 0.7943952864043997 0.677916856998981 2.0896065016242984
P 4.157560247532844 7.158160081920277 9.768677174195249 -1.390548748881644 -0.02214516863847154 -0.36134026718395834
P 3.9710544986356084 5.937302738741064 0.07200886287178723 2.930503788244979 3.761097893167438 -1.462359403066043
P 7.648522070572529 7.6222121088439145 3.6358012770447696 0.4182313239440475 1.3887420346902082 -0.021741762552465783
P 4.552411212166108 4.505498498373547 3.666304159902628 0.16314652288591902 -1.2672931486533916 -0.21547181465219667
P 0.07066405006476753 1.7042662465417662 0.09612022055622767 0.47064069078369913 -3.3521973597060137 2.577282550623729
P 3.7693967035339417 8.420314537729224 3.8367307845568037 0.7571451438036896 0.1533866152856778 -0.27186999093626724
Ni 3.6937464027139915 2.166623516181353 11.079050681033003 -0.7836262208133536 0.5938669804359127 0.4260240805155889
Ni 2.9231173635306713 2.150060699048576 0.3030280988983781 -0.3744878603095099 -0.7687994402131664 -0.46406689422092334
Ni 8.200866371570116 5.2853067094412935 6.6273300375799495 -0.37602640844122337 -0.922957643557546 -0.29288953061072787
Ni 2.7285042622205453 4.317426244094839 9.307649143917368 -0.6543575816218021 -3.215287916139753 0.8383292687831885
Ni 3.477073974160654 4.336783120533752 0.9371210786834436 0.2395895336360067 -3.2956482596663754 3.1943028292476536
Ni 6.445253559746706 6.112760502316324 4.749495910855893 -0.5284899976919994 -2.2372788401340182 0.4093890430620692
Ni 5.8566872571213535 6.167359169413309 10.289169199102867 1.1192855382914402 -1.855820462043946 -0.21682601468724594
Ni 2.913214484481705 6.625942168777064 11.80410632272067 1.0086679385421724 -0.5400992997961537 -3.1394686550165933
Ni 5.379361158281015 0.17827930543195106 8.585985765052856 0.0261216367877163 -0.35468496665096977 -0.2560409943238106
Ni 2.8872159916593483 4.274159548675533 12.086997956829471 0.580646882201213 -0.8162650898942974 -0.3549829575073628
Ni 1.1670739917486102 3.7614176030236273 1.115925300830941 -1.6527601336822246 -0.9834716417822029 -0.5687146495400012
Ni 0.20777724302461753 3.769387542683758 9.886209965971693 0.7341242574284841 -1.8791493665778736 -0.7633435593049176
Ni 0.6323780686306097 -0.027475221872026494 5.7901712400199274 -1.2967585051023602 1.474698898468002 1.0307801970601795
Ni 6.162879513673305 7.054047019578459 0.7531418922669716 -0.18644611684380794 -0.6679741439639723 -2.5017751643140334
Ni 8.632809618598632 5.394769708290601 12.533921026078957 -0.11015608673181673 -0.032373531234699084 1.273375607402046
Ni 7.0665882234804345 4.209841219533262 8.66422034170973 0.40316877318397015 0.38051092657513824 -0.01622957448498495
Ni 6.784324107609241 9.17303411480271 12.535690902334517 -0.07857419816047757 1.1847975039513208 1.234978495681086
Ni 4.406405581932592 5.315079472539481 8.295129687794036 2.316004733381011 0.44880893962058843 0.4899476186424272
Ni 7.823741652043005 7.6970654156978515 5.789756253506589 -0.4535492825190512 0.7382274809635802 1.2047968298913831
Ni 7.954219641214541 0.7034983290345435 4.55013474089537 -0.28926170405015345 0.3062613239319435 -0.25761348101725307
Ni 7.252177887359264 3.7968517715355627 11.238818656498028 1.7813705704644869 -2.4704521858310353 -2.256990973850965
Ni 2.015955013204153 5.144330385958827 2.601735501288533 -0.16381243860469205 1.7218914412622475 2.549932697855867
Ni 7.079779847745478 2.960557758232916 3.0461118541868513 0.033818491211341756 -0.3028939501216074 -0.7681407235832449
Ni 1.9630419425410341 6.364198357318162 9.385387202494266 -0.22682477777117063 1.382800986615425 -0.7891726045528796
P 1.5542023596767134 1.3685485698465958 4.410344747511737 -0.9387809837430477 0.7766274208980174 -0.48270302126487197
P 4.631038789295877 0.8547403012332659 12.612826176969305 -0.23929797053751692 -0.2772618513757999 0.056640117091547613
P -0.060358093607702376 7.5882436763614285 9.266513262250875 -0.06588991782458975 0.2520095045669144 -1.452742963022201
P 7.5105688276508005 1.9360174344980632 9.079983695143161 0.006762772645130288 -0.18741593695624495 0.2910154535164665
P 8.314195249197098 4.4410519173287 1.9647165459546798 -0.028572926541686274 -1.1849587121195333 -0.5984677124327177
P 1.423293810546526 5.99707728619204 4.893643720672081 1.9773071432972331 0.5766981819661101 0.797159222302782
P 6.16695609200521 6.01764339485525 7.00081789958399 -0.2954778601631944 0.2943722858038414 -0.7317030495815011
P 5.1858473589929766 3.8330004863618554 10.423260227586995 -0.6410325823781219 2.037845052781291 2.3484605399168714
