# total energy = -381163.3880048368 ev
CRYSTAL
PRIMVEC
9.28336848586877 0.00000000000000 0.00000000000000
0.00000000000000 9.28336848586877 0.00000000000000
0.00000000000000 0.00000000000000 13.58714815633543
PRIMCOORD
 96 1
Ni 7.153884423997267 3.478487447728237 5.011198503299293 -0.6927109845890199 -0.27249245501161456 -0.36780479186237947
Ni 6.789549345164965 4.400502320442537 7.362821484723127 -0.4563967792701753 -2.129395865707094 1.907247667475986
Ni 2.0904010611583668 7.059249765850794 9.7175284011515 -0.30190510384577685 0.05282408577956709 0.13747662892364065
Ni 7.075718461510186 7.920133657213856 10.007016321723457 -1.7152492533553811 0.062340252800118436 -0.15596028955012495
Ni 0.5037954099556302 6.273254807906175 4.352031068668927 3.251042448031543 -0.7358970330581907 0.565673291610516
Ni 7.110753894102376 6.26648723229417 3.672279621138013 -1.377791963436608 1.825712844025288 0.763138385272647
Ni 1.6121497678748808 6.285518137650289 2.2478172835694044 1.0852531312970795 0.40336829078928593 0.4727921899090632
Ni 5.383945242299 3.927366163184036 11.240375877727006 -0.3793050791924951 -0.10414253354788516 -0.754158807481856
Ni 4.873072192224586 3.3306869383746958 8.734756666835155 0.0770878434229382 -0.024383828161003165 -0.0421717482720435
Ni 6.458513709021637 0.4007091731573473 8.66813828638343 -0.1615778928472185 1.3414563622303672 -0.37054610205294247
Ni 8.535908770958578 4.85014227211258 3.419830484073294 0.6160985381406034 -3.6280402192471 -2.1627880680142946
Ni 2.99933566770351 6.570898167675866 7.490689673642462 0.6378410720240176 0.6485322331892766 0.7167140323718366
Ni 8.547512981541578 5.718230057405568 8.9338487153024 -2.04375447628719 -2.5810155353036 1.4694582188943532
Ni 4.465996484972982 7.324689120410546 9.700354169488659 0.5285702161106316 0.3938061010221476 1.0023427676550931
Ni 5.178578565085318 5.84181954179874 8.072518293916104 0.4211855214763649 0.06615422722956994 0.15880727208061682
Ni 4.875300200656523 5.232830570402954 3.7653927351928433 0.5932812831357719 1.5993601207945294 -0.22209960438135942
Ni 9.187898305090727 7.761267372648366 9.231529208545956 1.2887055528908966 2.678313535125826 1.3968641495767105
Ni 3.3581657090352377 4.127849788584393 7.2169092125156515 -0.043583026797273335 -0.5112371241488227 1.2787173313299331
Ni 5.562278750538527 6.971976818898175 2.299760515149448 -0.21214814959560238 -0.16731582377226023 0.20486267167778266
Ni 2.89590037625089 7.458796661276148 12.063893282675963 -0.058813470593782585 -0.8622775520686697 -0.14459858468040257
Ni 2.524834855280449 8.208335831253217 0.7265581913384982 0.06597373578764766 -0.7785326083405302 -0.6293746864242192
Ni 4.795388964897759 8.701356963766745 11.68237933049659 1.200965629070751 0.5971057990881845 -0.4281002463183272
Ni 0.8228369340403706 2.1927409151319512 7.842230414054374 4.538473247975074 -1.8044099687824537 0.6591506321350712
Ni 1.4813749562887155 9.259305975334268 7.182057590619095 -1.3964628003732338 -1.5542514013813489 0.8985074809349816
P 7.519992626206652 3.8613428466510054 0.3722203720076615 1.210816810833218 -1.0720641434106313 -0.7783104650273951
Ni 4.175816953450278 2.7114491281920055 4.935015468316635 0.15670565235658174 -0.5784051373548877 -0.07307152317469351
P 1.6604975508478876 7.330175591174188 5.929228025930968 1.2992164797245493 2.40450287552342 -1.3201012935933587
Ni 0.43798468256047984 4.105254069737177 13.234548326373218 -0.2734846437215548 -1.7568838981770323 0.4846177217890815
P 5.743870721109762 7.147293232386124 6.128496458399073 -0.04965263003012094 -0.4694266158709399 -0.22264082159681012
P 7.033293467618742 0.9732219331749574 11.319656772766901 0.1792179745264849 -0.779303939288916 -2.1945316789744784
P 3.6600794182994716 7.976641521068827 2.4968965578808207 0.024531152372144847 -1.165003094933213 0.47078698655357626
Ni 1.5088165934753914 4.774659203112289 8.670122142224699 0.3485112337400901 0.33964684137092477 -0.09675549705519466
Ni 2.6119685517060716 0.2997423293799432 5.246854026808297 -0.6277381792620609 -0.766215481536074 -0.5540097392296588
Ni 6.509692919376896 9.681067971499715 2.138549251709346 -0.6364398208011168 -0.8856740766157392 0.883084461511692
Ni 7.5513147114122825 7.89024121075205 7.187207075107407 -1.657611548237255 0.9212177780483038 0.5574262211103754
Ni 4.241840269983308 3.5901849371159518 2.6295753883394446 0.03403266410467687 -0.9274714722674995 0.2907478016773767
Ni 2.540932216201185 4.678362822010331 4.218796164439166 0.4267594160197166 -0.6304974871747528 -1.5370471216879205
Ni 8.79856311497841 5.986900024191626 1.359707129168088 -0.9972686955662955 -1.2986359246307313 1.799346438216617
Ni 5.820616328221485 2.185527737833559 6.590759006172879 0.3057417039830476 -0.28428610521243297 1.137786168198789
Ni 4.97155016491615 4.786569764854679 5.882637584608651 1.4027710019794486 0.9464701248571893 0.3383702886513463
Ni 6.746836566851063 -0.014733634093022129 13.305037871475434 0.7187966259324783 -0.5010324157016791 -0.3984292016164558
Ni 5.569807562364778 6.189388857180726 11.787910806548922 -1.3504174280783967 1.407362735115189 0.5067220098872885
Ni 1.814647884232446 9.307876559150468 2.673352969016443 0.4376364679435366 -0.1695691385828112 -1.5741311710244117
Ni 0.20076491146488848 6.789168727057843 7.253227606629897 0.5586266691763798 -0.49113521119262515 -0.869867962821418
Ni 3.5602924906541467 8.7642239350212 8.224613289522201 0.6277644045143059 -0.6347752886145003 0.7992793539695784
Ni 1.936055777036014 0.2235704344394447 9.631181934371826 -0.056863031735631106 0.8881284516935027 1.1324842963699013
Ni 3.890427640056234 2.5281861512968193 12.411166458603871 -1.2099557483845031 1.007680892038555 0.788579708163887
Ni 0.5967776285150843 2.7050714540555894 2.044594136134614 1.2007673970170158 0.9058865470078721 -0.5681950295911053
Ni 1.6800761749435233 5.238530558641323 6.2418408173527276 -1.61922009294325 -1.4451558947035628 -0.3641990767889921
Ni 6.287606895555228 2.2000840595888733 12.881934428566591 1.2735211318409745 1.5432097988552067 -2.0691204658558044
Ni 8.967529704435343 0.9824217513251591 9.762990913205147 -1.502972805712031 -0.4357505637747334 0.46131889916214097
Ni 8.20340636259756 1.6314870243903903 1.1299883197933471 -0.9355478215177307 0.4962244527900745 -0.6397398317086272
Ni 0.8359979655151848 5.160355312785776 10.996147163439282 0.5191216691032221 0.6177553570177361 0.603348951784419
Ni 2.4791513990572986 4.138804163374744 1.5918294026387794 -1.7345016738270902 -0.05013933985855235 -1.0615375328476944
Ni 3.5120746748396696 6.926274795938092 4.724237515623889 -0.5572904668634596 0.4362953805346098 0.0705587840551688
Ni 5.256289642517545 2.2769039336483266 1.119289237635822 -0.4848262382554618 -0.24150012039515825 1.875601244215299
P 6.458894327128759 5.772342812196208 10.000385211627908 0.4191306958298653 -0.688754056823801 -1.4567672536902458
Ni 3.492542467586366 5.13394412949887 10.025685175709386 0.0380510412354506 -0.6346436481326425 0.695976285603853
P 5.661285875232675 2.1053008675469376 3.3717732705332857 1.4574313696368062 -0.5261515793668099 0.579513282817402
Ni 4.498432574394582 1.5181556621525891 10.338203276772786 -0.021996044655116957 -0.050416761889655104 -0.36809249830612734
P 0.2834091709001605 0.2798657091565359 3.976523455887313 -0.8786179410999062 -0.06572742410479648 2.1632359541849904
P 2.441553756768382 2.095284112971693 0.7662130280795689 0.05996095393466448 -0.4196148345551353 -0.36666347916908465
P 2.2284169001483236 2.9899223320785815 5.8366041453943165 -1.0924789596215574 -0.59357361756521 -0.12612032337055698
Ni 6.932726737022239 0.5906264685692483 5.004961936363567 -0.6718698794739526 0.2982466811575831 0.11022473518622307
Ni 9.126182471526104 7.928470122096682 2.6627142287539494 -0.5759247941351953 -0.24841998744344315 0.4757440734485355
Ni 4.084793525637234 0.5471914441886598 0.09764711121381972 0.8442065534995719 -0.18192483193468667 0.8368272303163652
Ni 7.761657274123955 4.62747139607753 11.860561519830116 0.18630779149373078 -0.5743085986880109 -1.3567289721187215
Ni 1.8607490920365843 2.0717322071724382 3.874198455303275 0.6531023690584623 0.3464587220864356 -0.11673348283901831
Ni 1.292504824839824 2.71025157365984 11.286327623298835 1.9417382450536882 -0.13867527721743214 0.9083884874941194
Ni 7.060029568801972 6.044995344054352 -0.04119958925387954 -0.505556785934594 1.3580368922968677 0.1906177317229943
Ni 8.331145512695212 7.185726377837017 11.72240735865001 1.4585096903026495 -0.17296093787317954 0.830184271078551
Ni 6.880470655924879 2.9775754520182707 9.723261809516346 1.3406549493749942 -1.124154179237651 -0.1033776303574026
Ni 5.384743611987109 8.408438838546452 4.180207986734884 0.9606795835883519 -1.8058698411574319 -0.3799182872964618
Ni 8.387105657810666 7.706699732802871 4.901047623098081 -1.3208320011117962 3.7475250395790103 1.4440899153328937
Ni 5.252659845447183 4.5024244228351336 13.601414979786307 -0.8395166042230703 -0.8096061898168831 -0.7603829340146969
Ni 8.852304535030395 1.4621491001948028 12.534076400425302 0.06308895804068489 -0.07644249652945544 -1.0335945265805233
Ni 3.9065714178193023 0.6319077514656322 3.361528145093767 1.215584150314874 1.9307807176009197 -0.815762439226266
Ni 3.586453022992459 5.993073464221782 0.7888347403584904 -0.4017559519968435 -0.16234690980275912 -0.6417391215268432
Ni 8.291941847661608 1.8424979896316436 3.5280253585386365 -0.9847751910849749 1.0425093125716496 -0.42212397413023434
Ni 6.471278340662936 4.654662382315614 1.9914004348221463 0.063033165102085 -0.2867664484321255 1.2867000924250938
Ni 0.8995129158885946 6.289240768405315 13.38714555221335 2.4052109573340386 1.606351464510698 -1.9672811265197991
Ni 8.960892095981867 1.4805858699690715 5.88659137123849 0.5809477012710833 -0.3857528917003679 -0.6947560400435067
Ni 0.2466201100046672 8.704271941465194 0.4755015595437388 -0.32099785881116977 0.6400365370134395 -1.5034821412482815
Ni 4.647848389861276 9.08909541450284 6.228348369623662 1.4178147836864485 0.1391882122981087 0.6685927513845775
Ni 5.231076013762805 7.600553697758063 13.881173930205481 -1.017172633579074 0.8684240312860398 -2.3192885463386053
Ni 9.03173348074896 3.8969724148250453 7.159788646341897 -1.1557481519938482 2.0884191661844165 -0.9786410531627792
Ni 7.5896271730731115 5.739953139616942 5.894240866854802 0.5683690932751243 0.5879411018697809 -0.5429406258996907
Ni 0.3573400606928702 3.601259995696366 4.822024805701551 -0.1432040183257211 0.022619537171728786 0.8635916428944029
P 8.085108398230235 1.8787124100190666 7.790898028119418 -3.143879125379463 -0.13476360086785177 1.3141849281089237
Ni 3.3248941164516626 1.5040727921890615 7.25421907038211 0.06796351252416682 2.023325519008877 -0.31693474448538966
P 7.607980392531183 7.855827763847108 1.168336058254349 -1.2808618884767617 0.05378799235473317 -0.3080531257250437
Ni 9.304163211763909 3.3177087892586696 9.691210051549255 -2.0202396809947016 1.1190759933837953 -0.6570035038850813
P 2.7629439730751217 4.682039035923024 12.246979875570286 -0.17134011444030492 0.24482121434859128 0.17425266010140958
P 0.9950099989655964 8.445665146096712 11.578342476767347 -0.8778766920585076 -0.8788452266193638 -0.7164780051016305
P 2.78996785868081 2.697496225387008 9.07989745302633 -0.1618594286433793 -0.010330692502046724 1.0582385503814484
Ni 2.1277480524986907 0.7571533887932099 12.459890217999767 -0.6508094592592275 0.005465136879629298 0.11998232879361918
