# total energy = -340895.83869562764 ev
CRYSTAL
PRIMVEC
9.05507605751490 0.00000000000000 0.00000000000000
0.00000000000000 9.05507605751490 0.00000000000000
0.00000000000000 0.00000000000000 13.25301911129389
PRIMCOORD
 96 1
Ni 6.501924972342675 1.6750260921142395 11.374906945996349 -0.04913378141217344 1.036149431791893 1.0244971922649453
Ni 4.635800553645422 0.3609154132524836 5.977271145024737 -0.24496828144941682 -1.5314009791457368 -0.06202966353823511
Ni 2.722191315738479 1.3942010161893443 4.794637455003361 -0.1771513218054433 0.9992301901680404 -0.10954082174532102
Ni 3.3414317517556285 4.533143155594265 4.8830747615047665 1.3395018096071576 -0.15987479411318273 -0.6756907958819396
Ni 5.14273993553622 4.913175645565952 2.5622198133418337 -0.9258133678387861 -0.4618076658731014 -0.048109968133349404
Ni 7.38838975994205 6.22133532839708 2.5215860647297883 0.06367465534082582 -0.13423678183010432 0.8766903850598902
Ni 5.016883432447834 4.386967061677018 11.532830190173081 0.6179204218406906 0.9340092733860172 0.4289659367527322
Ni 5.642362815916448 7.941636801146036 12.400598056585544 0.0787480047341805 0.6210623099037821 -0.36861057559312643
Ni 1.684153608850198 6.581600587183649 0.5755623708112256 1.2052537149231437 -0.052443562511696774 -0.730729115704006
Ni 2.4957057516513714 1.5663923438192997 0.40493576033600615 0.04500484684546443 0.7131340283300621 -0.5671113096086232
Ni 0.6482021915015653 9.038668329001354 4.6486949820501895 -0.43939793071933353 -0.1446698042379702 0.6573328622000421
Ni 8.604187666278357 2.3239128473710013 1.425746184892777 -0.2992717799879878 0.6935406795791669 0.13179166272372142
Ni 6.809516853298814 0.6949082741643392 4.75653550567641 -0.2980219667412867 -0.1642883497998461 0.1608315015994972
Ni 0.6786046095977777 7.58243098626632 2.578560603720516 0.4095849611229591 -1.0028438756612277 0.6690185260680865
Ni 7.92089162173921 3.870628510766453 3.6225936765124453 -0.8249664743230372 -0.2825434114897134 0.5838013686697946
Ni 7.525148574687275 3.695947037201589 12.802920521951313 -0.44914935367914255 0.5874266241272077 -0.7345528603254705
Ni 7.967000069377605 8.898006776445415 6.830619708212655 -0.1604013560406141 -0.8249217371280309 -0.0006116654420699144
Ni 6.678019037783342 0.9033860083577946 0.49584963015813033 0.5581379024654194 -0.910611206177051 -0.20806755176832556
Ni 1.7484899247321308 6.381945213660675 9.311968636664758 1.051081627621693 0.73501977265956 0.09453740635795332
Ni 0.16596867931551973 4.871812057818075 1.4075898517506429 -0.814250887677746 -0.5743114269014883 0.13498265885719335
Ni 6.433187889463048 1.884243626027266 6.841857963193805 -0.04104174843265835 0.661605521433467 0.3942359894707146
Ni 3.302657915780057 4.299277704463699 0.37404527363655155 0.13732441961649253 0.3414126750220959 -0.4307829353568129
Ni 6.0134851109792224 5.653074970974623 4.832329209381763 -0.05936471511156227 0.4427331657401537 -0.519595266305531
Ni 5.168094148691662 2.846635226951062 9.495907114554196 0.3974077023304769 -0.15204912742117685 -0.25854344903069026
P 0.26861340026009906 5.553577794491768 12.510757585207871 0.31614310182202976 -0.97272828722277 -0.8042040449647052
P 4.05748000664593 6.193228372099048 12.579858682147803 -0.5638976877673321 -0.4691779901952436 0.1924432149675073
P 2.2954346329517645 8.529999427570308 1.3989223328819327 0.5117971104173509 0.7083921427697026 0.05300611988338614
P 6.1950122220960555 7.752114057809111 5.830573478722578 1.318754035536845 -0.3463679621448422 0.1576507898786704
P 4.550393075616092 1.317830504134704 12.564180723341615 0.363035138387878 -1.210470997458025 0.2563469556000037
P 4.052544990156745 5.788475524300806 8.491355079183354 0.5050615914657303 0.5868172726779829 -0.8448436728629386
P 4.692657376646499 1.2627394209783804 3.780675384521398 -0.22376336523702756 -1.2113693409025783 -0.06386337431286421
P 0.308141524077045 5.504698493558528 3.5722456422314153 0.4760919437062575 1.5474251224881348 0.6990430974546348
Ni 1.3432118825185262 1.3007888508637966 2.6963535615178587 0.7443027406233826 -0.7283601012511972 -0.6747567141034444
Ni 1.9070261975626557 6.5709699278106175 4.900635270637748 0.007897143359889626 -0.13372641785258904 -1.5315783852638654
Ni 6.301807789937225 5.483147412376402 9.416217011591419 -1.0344974980107668 0.5402587081921534 -0.24554369433691264
Ni 8.580544862510907 2.2020858531591054 10.16013588529284 0.5289417405174375 1.152780584725092 0.03972662916566062
Ni 2.356728443255044 5.395829313284287 6.990172866092236 0.019771011979340142 -0.1868865468153362 1.0055808149764167
Ni 0.46420485561730135 0.16581927055942516 9.169432683350543 0.6253305982618328 -0.23210993742950992 -0.17311211873906315
Ni 1.480477781526861 1.06594545151152 11.394018589669876 -0.28815715813206505 -0.35593143746356115 -0.08895939804954357
Ni 4.191911666826531 7.05099762345214 1.4395424988797878 -0.6742633194067936 0.15128550978227492 0.4601238504127753
Ni 5.803688052194071 7.667231774195144 8.140853003476854 -0.5820802722136298 0.0710704335842647 -0.2895131579393272
Ni 5.3808431622941955 3.175334490359106 4.616967806316605 -0.05174756488593668 -0.11514017020996944 0.30079798682452713
Ni 0.7529830049044907 7.290160294116968 6.889741205753081 -0.380808403210899 0.6353237049188025 0.858265088475167
Ni 5.163711491846221 4.347251497784245 7.0147564922692744 0.08100800441295081 1.3162811485163202 0.6957096622060276
Ni 8.326993675880367 7.243807359423146 9.269916863131233 -0.5591501457800176 0.1172135077992304 -0.19069357926625224
Ni 4.71614624411979 0.32921993028534374 10.556798928079271 -1.0834212202946631 -0.6326780397658394 -0.39800111294010165
Ni 8.307679198501596 7.08231007669911 4.932177722818342 -0.804245182615286 -0.13850635573973566 -0.5772651102131736
Ni 7.224520047272756 5.894546686051822 7.036054031319845 0.19973357798133343 1.4302054440413174 -0.24400360354330236
Ni 2.439165856314737 5.341580352207769 2.502699892451822 -0.3903291982171407 -0.22248012764922975 0.6296168843420126
Ni 2.273313081973642 5.1296100751521525 11.372058219046814 0.014069333608872544 0.015581913598657036 0.5995164654122063
Ni 1.2696846643677462 3.4217140566971085 3.8355301301908082 0.006014067404563836 0.292392022149019 0.5505197237985293
Ni 3.5879924196161697 2.8614946068753757 2.6870757305181927 0.026750014400334577 0.20908185196545284 -0.19152121737387018
Ni 0.817912428272738 3.4645445667775507 8.017639677109923 0.6789463267047596 -0.5453551488784543 0.3072622543926321
Ni 3.9320400370593833 2.49206561104834 6.715145755411423 -1.2700254599828902 -0.056559641562599364 -0.22040704717028495
Ni 4.221349719315224 6.726146767398046 6.21004636498962 0.209390127234491 0.3385471805488427 -0.5360300148227864
Ni 0.9316767827012038 7.495674301894076 11.656480876716943 0.7778157847791637 -0.2592098789700955 -0.8813983320585208
P 0.1137444332609865 5.628680595888636 8.179883098106819 -0.4669629848217958 -0.9517596553909028 -1.9910491754736743
P 8.445941155883894 1.5873367349009198 7.949955699583859 0.006688981984401383 0.8672305251985709 0.23492760938396315
P 1.6903020055403928 3.2638840798044852 10.232272243750522 -1.13176181638158 -0.4108185764197441 -0.17721688493605608
P 3.935136873094798 6.369738971041555 3.762730940160634 0.1761586188748708 -0.02405369851509406 0.14281681018963147
P 6.90121760923637 3.725964614562406 10.51271881749331 0.5407135363413849 0.18325280671749083 0.17338259879163045
P 6.425663121201557 7.635892155719794 10.286542937009743 -0.8847348526309214 0.5620706618609222 0.2405819794562631
P 2.4030451576443594 8.409449199092311 5.872823558423284 0.9892987899869414 0.7726859197517661 0.35253501018750255
P 6.913278970637458 4.137943413109949 1.6721203181851032 0.40979656291313293 -0.39324611475361954 -0.8723192525753879
Ni 5.332996140039428 3.0070730657682447 0.4304448152932183 -0.34896220523457966 0.2485511137046687 0.5016150276780265
Ni 1.7394348486051874 1.071568653786352 7.0498901876418145 -0.6478190091723359 0.2510476548742773 0.3528954788507148
Ni 6.786770502067933 0.6019171698786943 9.274821092361584 0.326283018469509 -0.007463398256580695 -1.0102512238688923
Ni 2.869933937825687 1.501105244944038 9.301750888763115 -0.14755098244050718 -0.8965282457214238 -0.5502333029063621
Ni 6.3832400895468275 2.038025983891145 2.663379501801594 0.1275403436465352 0.4428982305631083 -0.45329911418145796
Ni 4.055506000050256 6.784868936081274 10.461257914356278 0.38753569463240356 0.6805036438895505 -0.4174887893510681
Ni 8.26713962268127 7.091084445466118 0.38017103263642876 -0.23878760656000167 0.9972810368614694 0.4426969131855796
Ni 7.495013281336808 3.794022566732512 8.09245271607073 0.15075174876599198 -0.9393486833210597 0.7262775076905557
Ni 3.1654101269239763 8.321451969290676 12.673464626102469 0.15499304054084917 0.2684421962016409 -1.1130855801283153
Ni -0.003732502379526059 4.870200254267479 10.168989033222152 -0.4311400615859156 -1.4995750928843914 0.8677696855314927
Ni 8.792777736774207 2.320942782401364 5.884340709749143 0.14492022968587945 0.3875194966824874 -0.4936852313079885
Ni 3.3874315384805005 2.7416144540307728 11.387192873285388 0.21192163540709308 -0.13013612939816943 0.6888664140319491
Ni 0.8043615068487673 3.2687285455324 12.567864328310053 1.324372410164887 0.7518329875621568 -0.5033662060411783
Ni 3.2811973853592016 8.020941157865806 8.020594348450144 -0.4176307142455711 0.6984170338348616 0.41103197798213087
Ni 5.604204725117508 7.844312842933649 3.6102679068884505 -0.23027751220646148 0.29576273839346484 -0.17421974998094514
Ni 3.0551645750784404 8.475723301265411 3.3863585119594584 0.44845567004622766 -0.20681671008035996 0.8201186593124328
Ni 3.1720656078772795 3.8150846738037822 8.701256271343965 -0.1029621400865388 0.7645494066875608 0.08936126147365256
Ni 7.490114485152133 6.17233831147419 11.526243527798343 -0.6275222065965128 -0.4004254061108781 0.05708723193129523
Ni 0.46148199422592945 9.19651641604623 0.5178634257303424 -0.6140465407075811 -0.7562527138964072 -0.15953592271652522
Ni 4.372886418299621 0.6263713084671175 1.4646576580254782 0.7771683810031519 -0.6772563405968465 0.8484725278647774
Ni 6.05247626878184 5.919982394892405 0.31143032772635076 0.13072336936020712 -1.936397806677381 0.19400798835146588
Ni 8.074791695592738 8.754936573639709 11.375477415792348 -0.4189010963175624 0.3553398266261493 0.11247136512855468
Ni 0.1779684661989451 4.865265237778295 5.9165188282738495 -0.39842534496171383 -0.24112653910582346 -0.6290008480245683
Ni 7.851810445966758 8.915129925401464 2.651863255983348 -0.44832171557152467 -0.02554648101053665 -0.610475278416555
P 8.48846379337602 1.6631729974640705 3.724044938423494 0.1239251154914511 0.41597903757476107 -0.20266720668836066
P 1.6842351045353408 3.3004937525857176 1.4906602146316088 0.5359271706963351 -0.5210026881760188 0.5551901326910051
P 4.765496409011632 1.114462549399683 8.181181596023423 0.3844768532014217 -1.0306097329205863 0.1694632091325662
P 8.542622203691268 1.5451763004538712 12.485483962229962 -0.9309769143175965 0.24359762635413532 -0.21104643189099134
P 6.284096061032924 7.8325593541208764 1.3736088675690625 0.49937122594917227 1.1035442162967832 0.20098570522087966
P 2.002892288518605 3.4138904709234295 6.056258574080065 -0.937787766591843 -1.5904761880413383 0.510725731730043
P 7.007623808804082 3.995498010557003 5.851075076581591 0.686668892159998 -0.5761225119682981 0.21158944887865497
P 2.342059219929396 8.439539217062146 10.014245931781204 0.26170616302938804 0.25953769462315945 1.3714451952829736
