# total energy = -381169.3477898851 ev
CRYSTAL
PRIMVEC
9.24181376631398 0.00000000000000 0.00000000000000
0.00000000000000 9.24181376631398 0.00000000000000
0.00000000000000 0.00000000000000 13.52632862384948
PRIMCOORD
 96 1
Ni 5.171386279142183 5.041233815850837 11.476779150662066 -1.3124424914965203 -0.731654712842069 0.0010037586741660132
Ni 7.7001313622763465 4.315954754984662 6.762419970144467 -0.19581727364606277 0.134564083262536 -0.7416665885521162
Ni 7.724215528955126 8.430576597038698 4.87867585676422 1.5797174068629374 -0.591126441576298 -1.5427778535241108
Ni 6.238538514905292 7.713097626992512 10.072759106338642 1.1247697013344629 1.1327902576460942 0.8782369036114035
Ni 3.9802828371258947 8.277975768105465 10.046613091008275 -0.31527278340193443 -1.6338969782291346 1.0399184119160219
Ni 5.487058912007521 3.1805239991053513 12.998233998351024 0.17676077123524397 0.4272510109441545 1.5937669429774681
Ni 8.886724799173969 6.665713630878639 7.164246639315605 1.4695883167143142 -0.7390805729924949 -0.13916944324503128
Ni 3.5011502441502076 4.912218095652924 13.324637301182106 -0.04004338907513103 -0.6474084039974786 -0.576244125147827
Ni 0.5425416014176571 0.47573530223465893 3.216912716634525 1.089874946339807 0.7965074476513959 0.14714629080292077
Ni 3.752832558487583 6.283185717217336 1.6820664807960846 -0.21307683205745886 0.11618326676250314 0.7100227363945901
Ni 6.465730022758107 0.7520830933368058 8.77040363436745 0.21085025671978525 1.1735890368300113 0.6915318766792542
Ni 1.7819141125615738 7.986248674712391 7.285807912528444 0.36074299991959163 1.8927726137882628 -0.6658378143472597
Ni 8.797023754744103 7.79260495083654 2.4872484151355483 -1.7272267374322317 0.23674692198088904 -0.32864740493662753
Ni 8.323759713510942 5.441792508173038 1.8631709117518396 -0.09068769359455994 0.17779486892671317 0.2682622189803509
Ni 8.100893374501439 3.566378965723049 11.247682904991716 -0.9047786586556741 -2.834936912181247 0.13102033177533565
Ni 3.8024610984204474 1.5636686804359499 0.31873074904108867 -0.07294836733326793 0.9386660554317383 -1.025470097701176
Ni 8.562475763132152 1.8762915147579267 4.748864416400902 -1.8060037956321346 -0.029259668196065736 0.6195510154655781
Ni 9.27545396987344 4.618485528672246 9.356837381912323 -0.4274687833819154 0.09586538114075749 -0.5133035197595481
Ni 2.7274533209547442 1.707378884524599 7.751912320635721 -0.3061214559199696 -0.557333147175937 -0.6218210424466775
Ni 4.68700433594641 4.922726037906865 5.43026611804189 0.6591030667265874 -0.9498457261976417 -2.870483956047921
Ni 0.6002363964070216 1.2712392091965259 12.187249129146783 -0.0564673389591092 0.6773828388723818 -2.190593777372653
Ni 5.235663093896946 8.218227442096904 8.058337594645039 -0.36322565713212923 0.7792532885566386 -0.7192447692134903
Ni 5.820281749217832 1.5091604628337083 1.1569216696148565 1.5052590306430464 -0.9911348147544157 1.008719103495082
Ni 1.6995141010082364 6.723003634424976 9.06385709857234 -1.5703596197971212 0.9552653545513161 2.5604945325321125
P 6.48889000806011 2.9852352323788405 5.3899579472938095 -0.22329850978546703 -0.15427158899379237 -0.12818209099559216
Ni 4.09163745121362 2.276739305314915 5.079285135676829 0.07982452562781091 -0.22355870542538914 -1.3324958106029696
P -0.277175857615738 5.368625068573692 11.810513984355111 0.5678067930137511 2.610511744990504 1.1543615560589668
Ni 7.773492879964816 8.718533030414527 7.2333800272053255 0.6610038832937262 0.05998923606943862 0.7413691119163555
P 8.313926423662046 6.32077217381081 4.095068936665589 0.7421445566297994 0.5289756790791664 -0.596848945882372
P 6.285644039679559 8.31085814149115 2.4551368090180934 -0.3786311930539221 0.5473333556507477 0.17766554243770044
P 1.4660843688621845 7.714677977146798 1.2525652002973924 1.0302101834893225 0.07957435729021779 0.16932205556901161
Ni 0.6725785420369071 3.323679694367935 6.788553046935559 0.17572101711681992 -0.7052317427638499 -0.18682458322914922
Ni 7.1729228540807775 3.381154534189627 1.6835405500920422 -0.2556843823153403 1.1481903942512484 -1.5244021792304003
Ni 6.509046403887592 6.962218741989645 0.811898884585871 0.05479972144869917 -0.5700403103299602 0.5036806519578034
Ni 0.9149903929838435 7.834507334459559 5.173658841147676 -0.23466844218530553 -0.8864258671800991 -1.52291788137539
Ni 0.8360653034071835 8.26335521872487 11.204628991373236 0.3517017156529298 -0.33102541825050086 2.034312871258316
Ni 8.678654604006647 7.196507962816098 9.91437937125643 0.1580940480636761 -1.4722085279459807 -2.6749672443614125
Ni 5.360436821575457 0.3369121692664005 11.612935096176951 -1.0956031070728358 1.3650626887953974 -1.7015270186732825
Ni 3.495799233978675 4.325935913853842 3.087059688109253 -0.6957340876860598 0.6975114913014568 0.773589662512958
Ni 6.902618285001369 6.409475102353759 5.717484130497674 -1.1549464820281594 -0.3827984370577343 0.49610541071370684
Ni 1.142417567087736 5.751790667384972 0.24918332789457334 -0.5290620681453856 -0.39839269195156546 -0.06966069772093164
Ni 6.319995861454318 0.6408199732053809 5.7510430046511605 -1.248823371983978 1.8097702046531023 3.5512490811289745
Ni 3.0500573141459 3.7335171677129666 6.555507774242246 -0.7177059639714607 0.7260923882629431 0.5809237900116834
Ni 3.2642363482137102 6.041955894251295 7.587432064285411 0.2551873880742637 0.0899166197564903 -1.4608046569844133
Ni 3.611016926221324 2.8002880552584513 11.653892042251526 -1.0733687211546674 0.2688101210640209 -0.3628137664056913
Ni 1.1921200415307427 3.7352823541426083 2.5637530736864322 -1.8101558701272955 1.4601158584475047 -2.5754182437214808
Ni 8.593713093667176 2.001407189545845 9.537427968022591 1.2100123126540516 -0.8405368179574686 1.4122254625241293
Ni 3.3732805088594966 6.588091637043233 4.652258812905143 -1.257320353711396 -0.04880930819321917 -0.3664598477987108
Ni 8.530286525779047 4.216771609629074 4.27272339854184 -0.35834158956695056 0.028539759310905688 -0.21008483930867042
Ni 6.59692681100521 8.988135221647587 13.220349902082585 1.0869585440239602 0.47504653316087864 1.9926072639894132
Ni 1.6864739017819288 2.2639209096190336 9.727851843981753 0.024347061385796776 0.7735770641074677 1.0241259249684556
Ni 7.046254554579876 3.4915942087143446 8.85570095453698 -1.3337011437649804 1.0001182491999485 -0.08365932599286882
Ni 6.897452111105191 6.505663900048592 8.199281723873 1.2108204103776437 -0.18461523428265625 0.03864316629349474
Ni 3.892559540842328 9.425078934773454 6.2146179283302025 0.1926699862663327 -0.7721022793341542 0.4322793173966813
Ni 5.902118010131336 2.662002795851476 10.791210315193197 -0.6243466370820087 0.30109314946744276 -1.7798878152713733
Ni 5.494433879394193 3.263598663063735 3.207538744929887 -0.1684129134911809 -0.9585602232525039 1.0300353484743552
P 4.219812166358667 3.297590054101552 9.125929740743493 0.27754158739974777 1.3619652808169964 -0.3094970572604218
Ni 1.4583489707385704 2.993192434032881 4.546672014789876 1.4481172913247318 -1.8742550146000496 1.4089133674317607
P 2.490992273892868 0.49830473563690275 4.613871091058003 0.9618080407658403 0.4826382294652075 -1.162913816504352
Ni 8.143193156116471 1.946094934145809 7.402499674067051 -0.5972315260327714 -1.0068285713405885 -2.067687847174336
P 5.437116150406553 4.960525056216999 1.1607902928580405 0.08903781669596278 -0.4121239254947289 0.3135254616935246
P 8.398821724932679 2.0258055778927284 2.5517821523130544 0.8081000375850018 -0.7138020009313641 0.6114870075105212
P 0.5850234467639139 0.4373272483972302 8.177031133045743 -0.5521094368831524 0.717446539662487 -0.3722599994202556
Ni 1.1990976109254008 6.147478923851565 2.844126598865815 1.1832461003038008 -0.008476927122759595 0.5415108354316996
Ni 2.8479758143000864 0.4309910608780547 11.857760908880024 0.6020508017982857 0.11455807245425431 0.3235766752819395
Ni 2.023264079106595 9.264086538939097 9.736670382678948 -0.41260060802083137 0.2887703662360317 -2.177245123979889
Ni 7.112647744687455 4.912846538989132 13.047699882361577 -0.08814667234026109 1.0416531352189415 0.5714790996590158
Ni 5.089235796560576 2.4624627947917963 7.319042399018681 0.7667255884032731 -0.3195500706210497 -0.22632649797851345
Ni 2.522432924330783 7.3946801754381495 12.801425877441092 0.8111251975645708 0.08875293846569231 -0.629733869535851
Ni 9.127030440763233 3.7681832111558298 0.2586534144623958 0.6937358263091085 -1.2719532731332224 -0.21219700055566681
Ni 7.941509054262671 -0.033132826538792064 10.653268851258382 -0.27629280259431127 2.8163624916131687 0.06607066637682815
Ni 7.186674672967203 5.458150518541972 10.51043107438941 -0.8207421518290445 0.9499765953485511 -1.2251818213056385
Ni 6.423226921240184 0.9345599336370729 3.662848714556422 0.6054983940272539 0.7716232828152065 -2.826495466282113
Ni 7.709502561436853 7.472218992949646 11.933968905208964 -0.8528017513677505 -3.110403362219521 1.082369381991381
Ni 4.093661408428759 8.428469463499649 0.8023354556989942 0.574704548574849 0.6322224402856595 -0.2710071287153397
Ni 5.138688742031853 7.2933252038471394 12.180634763033199 -0.49177130211472725 -0.17230504945673553 0.5350239421557754
Ni 8.510693880591399 1.1733776432097278 0.44071899404999765 -1.4299645316751053 1.1399988595793915 1.4309513210684066
Ni 1.4567871042118192 5.251087681075336 5.102090235330151 -0.4661877972186681 0.18435760974589538 0.8938589264193766
Ni 1.0724015859831955 3.764717530992921 11.573952201523166 2.6165584654052165 -0.32194351055389075 0.24325926917811008
Ni 2.4233976479954795 4.543451242691812 9.269335889159182 0.9162961723769704 -1.9633313978434317 0.704814195610457
Ni 6.184704949708098 5.5346450110977115 3.4407328108248607 -0.19153124467619917 0.7137189542992547 -0.7415881699056971
Ni 4.2296362143937944 1.3436303364393805 9.654741703627769 -0.4496386346107353 -1.3494707478944115 0.12149542300403592
Ni 4.961560139358988 6.076224539702144 9.32492909569776 -0.952751586990527 -0.75746987413296 0.9859946653143729
Ni 5.3805007992652625 5.017473112653929 7.42895713852139 0.9728159618405697 -1.7913294814494116 0.8053821244332066
Ni 2.617263175401756 2.0053811694659816 2.4255140233482964 -0.787773667322824 1.0342223899725091 0.12688908321578146
Ni 4.17893562406387 0.6463133073089367 2.7675812763343526 3.251114181809743 0.25320043955122196 0.7299930088689299
Ni 1.7388565022175857 0.7223068935584637 0.5957310121952392 -0.8986931145832265 -1.4245063367740112 0.6743908461235933
Ni 1.0154997386151046 0.8695391528740058 5.985738865283395 -0.8147648511996871 0.3175680071940144 1.3789975537089347
P 3.216178916621365 6.141610372109038 10.511566893301469 0.030176009362748033 0.8350246298899877 2.321076491476964
Ni -0.17333945902808398 8.215002049091956 -0.03807627272316625 0.8399076690139019 -0.017428479889092564 0.8436740780348696
P 1.21576060114867 5.181358196197595 7.5177848315502045 -0.1075970677553889 0.7458564582637477 -0.7811523053515644
Ni 5.167162770250318 8.019935085895872 4.431320316247595 0.9217929338254836 0.5667035326472434 -0.6060151857626724
P 4.639861843917072 7.145474667190534 6.411195928077316 0.32879061538271115 -0.4669745547860215 -1.7364734528414805
P 2.2432469722205575 3.223757203910927 0.45064192949244025 -0.9312990735437058 -0.1915196747119734 0.03391027959419966
P 7.180270096026145 1.8800159657063333 12.220496554176297 0.8008549259868143 -1.803031086157056 1.7322761269306812
Ni 2.7437373968135352 8.32438815684715 3.01691247324921 -1.7943219884188326 -1.9505226761145378 -0.38509957438708514
