# total energy = -381171.1289345539 ev
CRYSTAL
PRIMVEC
9.22152139214036 0.00000000000000 0.00000000000000
0.00000000000000 9.22152139214036 0.00000000000000
0.00000000000000 0.00000000000000 13.49662868306377
PRIMCOORD
 96 1
Ni 0.6108003806782746 2.3233346545215205 13.14860497180087 -1.9110989229012763 -0.7929513548690215 -1.0934302677912329
Ni 1.754588100078446 5.654673814299096 5.292716188852134 0.17688778373141148 0.44931004762672294 0.24324667077261977
Ni 1.0687466667794443 4.80927239605411 10.192667493532948 -1.454811415515456 1.9013289879987063 0.7859217017157497
Ni 1.2635051989449178 1.5540292309464916 5.440248543423902 2.6252878748584143 -1.5723604522772339 0.9159133351162548
Ni 5.47016961394082 4.082662616604373 0.8721899379391478 0.4513599881772162 -1.4014186017166124 -0.5145124524659849
Ni 7.926644594570538 1.5698349186421174 8.741010982512355 -0.09167551142912599 0.975901799854745 -0.9918076724517242
Ni 1.942983782471468 0.8403000726013334 0.9735519791185827 -1.796074709443881 -0.6815158872041488 -1.4213459367681587
Ni 4.155438863566964 -0.194862735357399 8.12812838229985 0.22593646162894637 0.20985344002415474 0.3701527232692658
Ni 0.04763376883999776 7.867184224523049 6.8565976932723744 -0.6248379748961304 -0.0367192097979045 -0.3152031065062636
Ni 6.016129788981392 1.435449687143659 1.1174492099507858 -0.46499017736614107 0.25163309506410214 0.2789994028921969
Ni 0.25289100313001617 2.9545201304273045 1.8549228637728796 1.2119601804090419 0.18304943245743313 0.008449673429249963
Ni 8.687069693028363 0.5777310827522044 1.571048470859588 0.9866482397379719 0.10195786719174055 1.3657843974527704
Ni 4.127082685233211 2.648227296815742 10.647112367954987 0.944949831557921 -0.3513772424339755 0.521496854203618
Ni 6.779846970582354 0.5409953079137765 3.395522793090935 1.3376125630042446 0.13579127080141776 0.6411706506178829
Ni 3.5557909908811567 6.878212939455891 3.710965220244854 -0.15874967936980403 -0.47583689027265796 0.37413099119072335
Ni 4.649638638936852 3.7572996767182745 7.347523828541944 -0.173183852517263 1.0285973304762477 0.8034214011624099
Ni 3.921470422368934 5.939867806926066 0.15085302443127582 -0.14797238624864192 0.9926605073703227 0.6225779752173599
Ni 6.198992558528803 5.197120365009965 5.923926562865723 2.6134615716474476 0.06684791086248487 -0.7875782634825662
Ni 8.633160678869302 5.403571786322495 6.523325454473477 0.07855748598992922 -0.1346885246555422 0.9153590052746817
Ni 2.3837079551885356 3.440743289778105 0.3671447312397225 0.35586433167105164 0.32513090714293685 0.13425889331729138
Ni -0.1420750582017155 3.991830630722274 4.125609086111997 2.1499940015734196 1.5147168336218364 -1.1427070025391741
Ni 3.9575634571651297 5.9357550083774955 8.105507990282714 -1.847178984318864 -0.6580234605091635 0.2616591118415365
Ni 2.450001472600353 5.041931381212014 12.265250537891422 -0.8487944299805705 0.11492342621347304 -1.8985377984068141
Ni 5.495095386310293 2.132246287876969 8.794268035107775 -0.9974643565168693 -1.795646620767527 1.1566135853179371
P 4.626455734113746 2.5118963242999106 12.848533898684193 0.5686565426085561 0.5722666285573177 1.4262909394782597
Ni 6.747221227836074 2.951698344876043 7.169584429274984 0.9486643042950307 0.4592689586116477 -0.041922865486031025
P 1.4828851932733558 4.811826757484502 2.9320749473169467 -0.1987953824377802 -0.7559917469255367 -0.2963299237508445
Ni 4.9957684450368065 8.591590060355951 2.8019943220123724 -0.6974621261207601 -0.5649919492727754 -1.6884658146139504
P 6.915237347914432 5.896240789138431 7.7659734162947265 -0.6224414496394958 1.3719943829182242 1.4540012609093347
P 8.508135291601334 6.985145701718714 12.71050432192476 0.25380336324254354 -0.14637367430295437 0.535225259533304
P 4.693237992160259 7.987432863700973 0.3328203842498397 0.0339645298709028 0.09402164306379936 0.3053794355476224
Ni 0.37063231063673874 8.879107876378077 -0.687071584255009 -0.44003839251680993 -0.32215794055754193 1.1068362567844938
Ni 8.06676561238561 0.8667077434612892 10.829951161546733 -0.30599110098969234 0.5704298324588951 1.43350931160357
Ni 1.4109296617161973 0.6182596693462978 11.035221305966726 -1.6191972101251144 -0.7366801910811184 -1.744776316280221
Ni 5.462460422042604 6.318300602522974 1.9196524111536712 -1.6863603382351733 -0.5607889669350213 -0.28944090994049504
Ni 8.92547368602429 6.432656689520324 4.5323565631963145 -1.527496501885008 1.2268633227731194 0.16532116193973465
Ni 3.0860282472460456 4.043572587350138 9.163819583435338 0.017139745004080158 0.2190019392926422 -0.050768745912435145
Ni 1.5804396682628703 8.443667635428568 4.883863438430061 -0.488961600580074 -1.0757536764470763 -0.9818371915025735
Ni 0.8503487644811022 7.3178674156894745 10.934010497738404 0.807928545004144 -0.5035605814401715 0.27246751531095015
Ni 7.229073386038843 8.244390557772512 5.451382608373552 0.18999963852302115 -0.4565726427264072 -0.5971878172790296
Ni 2.3564675809453153 7.923813587497867 6.911866881839315 1.2837345820388666 -0.9092384941992405 1.3196413232378046
Ni 7.370697511843641 7.106178170216434 2.5288362591288864 2.547251037258645 2.2751157084761333 1.3011761745540815
Ni 7.180752613853849 8.409299025135919 8.17241105025969 -0.46089620980242557 -0.4785650878370984 -0.06458122631549523
Ni 3.366731358946662 6.263321891880429 10.316134443682737 -0.9398325649360137 0.3938585515266378 0.23989266669872233
Ni 7.303417291641022 5.22017416853334 11.042333865429757 -0.4877896917591599 0.27786631772901826 -0.9538422489515445
Ni 3.660962442554794 0.18638446857364258 10.41244677973841 1.3863686493620253 -0.8483033492767649 1.2500351329038923
Ni 6.834309276025976 5.656370574238418 13.224077591623555 -0.24577792183490577 0.7389283636853468 1.0688134976838173
Ni 2.8911221707380226 1.4237844625608314 12.387543588365798 1.157688820659987 0.4126036933446249 2.1030875668298683
Ni 7.404024090217033 3.118405008914274 5.100753621977975 -1.3226700827617994 -0.5053948064354329 -0.6897953536041217
Ni 5.305362583312916 0.46246575374389226 12.368796235340591 0.44261669476694737 -0.4794649739435484 -0.5025290548518636
Ni 5.067179906830813 6.891215284643075 11.827082570909026 0.6006611205396107 1.3076795228902383 0.33147716107593883
Ni 4.241586316573112 4.772736728230266 5.280825959146918 -1.1872842749289163 1.158320540706715 -1.3614256062634427
Ni 4.8198679241534546 4.5667094969025674 12.014496161271952 0.031461560943390976 -0.06703920093768455 -0.9205382354827759
Ni -0.05771473604469925 4.863919131925919 12.515113193390606 0.8095213434125607 -0.8361178629541666 -0.34353434935078897
Ni 5.493444733978021 4.567041471673304 9.502854350962938 -0.09361258055083878 -0.07479621917528409 0.08476901411727981
Ni 2.713257465794479 3.5630391067089056 4.190662308894257 -0.9813605089764711 -1.6977881204561405 -0.4898434889643951
P 2.444975743432257 8.06070707281967 9.290552796468319 -1.0242238839989006 -0.8542004314874903 -0.5533435664005697
Ni 1.9214607515020448 0.6952962592000083 3.1633802131319557 0.05205609726529099 0.23211096587077443 -0.12181115447224183
P 5.325059753043288 2.5736897392639655 5.13919261182071 0.17718346059495937 0.8990885502494321 0.20502156585315015
Ni 5.892921041431065 0.5459933725176442 6.742308001229173 -0.5587819638073216 1.0285019425489643 -0.9830245269424555
P 8.88602401743509 8.691984763939546 3.5710055790544435 -0.2499791044004469 -0.562556086137773 0.3383108961683206
P 8.618544567435482 3.088720931497576 10.510378414953566 0.7800760415682501 -0.40127566992631536 1.075326873322303
P 7.781571619758642 3.5641180247138 0.41382407261385257 -0.24957389854222822 -1.066375577666286 -0.2143083904717148
Ni 0.311788860371535 3.2464181691188716 6.342146534735412 -0.5928403389436113 1.3359428886113056 -0.47197637887598715
Ni 1.3266080699491 6.607985476076297 0.07383026685967942 -0.6336044082348508 -0.08719922082532724 0.24156902595988075
Ni 4.116090631713266 1.2211230865475449 3.939908854426929 -0.048466065921187504 0.09630503978133738 0.6555109784999549
Ni 0.015499533184835589 8.842572208554232 9.222827176781628 1.6783390105925935 -0.1333428092609252 -0.7294430499027309
Ni 5.094291179774303 3.6955062617542196 3.135213075987096 0.1864808267364853 -0.9865016868577785 1.5292193981133857
Ni 6.993657165979545 8.428276916196362 0.6563500856797593 -1.5114062811913647 -1.8669332841276558 -0.5194176030770861
Ni 1.3110236987672985 5.9881424715040135 8.027781630627583 0.7592300513571764 -0.19929134823759223 -0.18876448056433942
Ni 1.8253263908095705 2.95273115527389 11.18321197015254 -1.2430856981692526 0.416282941968425 -0.5980316533365636
Ni 7.876488739625082 4.2772828259487055 8.941260008524957 0.3154082805385342 -0.54560248900257 -1.1955634842185732
Ni 2.6664674661634367 7.903885879732262 1.4748440266044025 1.6140969127840716 0.18878042140393939 0.6319869272360857
Ni 7.167261528031969 5.040760247993025 3.343601016795589 -1.036955729743272 -0.3091121631171773 0.66173150548837
Ni 5.554712522221742 7.0630767791491325 9.499872110939156 0.465037999884941 0.4877601240728051 -0.3987120229641972
Ni 8.527795575246069 6.52735249287294 9.273952213627204 -0.5618346345907163 0.20343493809232063 -0.771406281708394
Ni 7.3435124667288765 7.768108198500991 11.08530707734947 -0.047020077503280314 0.4286738594336101 -0.2233267919202412
Ni 7.28401521059575 2.7161714665598335 2.7031589776990996 -0.38998261351099933 0.8853745430974495 -1.308209170141463
Ni 5.116717919841842 7.1136199379937795 6.841171010106673 1.7124238680914445 2.3737447684049573 -2.2068950856358382
Ni 0.986444588200995 3.429382375401786 8.412205648684148 -0.29034182448820967 -0.2700172539982446 0.6186112772601281
Ni 7.735417905104845 0.9740231988626005 13.075020919562819 -0.5008007593068472 2.1703193433943335 -0.9169350915125499
Ni 3.6480984201887505 1.9573509128272353 6.413867839648773 -0.7367498679767892 -0.9448346461362954 -0.3154643305874502
Ni 9.07147803449853 1.6884052409235406 3.8172782962689693 -1.151984828296674 -1.272002381203603 -0.06766860699156732
Ni 3.428773754988769 4.7456807844152324 2.002967012782867 -0.8512174375997662 0.5432051924149871 0.9705701032291865
Ni 8.194640449769068 1.1967229408984046 6.362202421648608 0.28332862639517015 -0.9898844872870823 -0.6022492909623369
Ni 3.6663385895364455 2.004657317657201 1.5868117395567312 1.7434503983799459 0.6735269554614013 1.004656246279618
Ni 0.9831709481006758 6.79224069535652 2.714104923611998 0.4902008723038139 1.597257729739546 -0.7287588793515126
Ni 8.788570979181078 5.21876327575771 1.3626466977689813 0.1088399390235545 0.9418678501984875 0.9692431568876468
P 5.7982344595998585 7.018416950963649 4.248319871506219 -0.09431834836861176 -0.8207768617217219 -0.13938181636615352
Ni 2.491885622841621 1.6665871212690184 9.097469814742922 -0.28223899287541715 -0.1981055554596072 -1.3342711573358377
P 2.6115256416065287 4.128364476709112 6.5371595808917835 -1.0642541604479092 -0.4000070876265369 1.1400965614995202
Ni 2.7135433329581686 8.364648418471846 12.594298397732695 1.1598791434430862 -0.9129282843460018 -0.23101413326216988
P 5.885783583860228 9.477510843673622 10.056932231300161 0.5695870248426255 -0.602671208991104 -0.5030003380613273
P 0.6875298938690537 1.3455214103596773 7.6886113067352655 0.28141161187811536 -0.5414948945920997 0.11409655943680348
P 3.954179158807898 9.020409248933548 5.776165514563002 -0.5783521726297652 -0.2480672320897147 0.3050724458301649
Ni 6.612559350695335 3.0274439217324445 11.794960323231694 0.9058024719344981 -0.6988016708677901 0.24681561907080074
