# total energy = -381171.41261513554 ev
CRYSTAL
PRIMVEC
9.22272865337459 0.00000000000000 0.00000000000000
0.00000000000000 9.22272865337459 0.00000000000000
0.00000000000000 0.00000000000000 13.49839563191240
PRIMCOORD
 96 1
Ni 0.6462384279174342 0.44636530122247614 5.788220351745116 -0.3062099018687178 0.2441756103447924 0.8789979501471442
Ni 9.026929937302121 9.032601915306596 9.633129734145033 -1.4923803749081652 -0.14565299408684593 -0.7102731618424993
Ni 2.613057209840857 3.013618752426863 4.012047356689857 -1.6480784119358391 0.9995374369958139 0.7423312187193086
Ni 5.792104042700701 8.609444687987313 5.880994544168568 -0.29899512928783345 0.23111466339577616 -1.9324892156515947
Ni 8.407162584617932 5.668288913090802 7.089910713314084 -1.2265280509208876 -0.21192832027531244 0.7794160393867481
Ni 2.6425422727356684 3.5389545883828757 12.256475819858725 0.13047422946387852 -1.0715877179948448 -0.03821224940366322
Ni 6.670347583276659 0.8604270737319815 1.9291909720690146 -1.2687723043020793 1.9639230086808435 1.5155419006262931
Ni 1.9465675147653283 3.2494900328568948 9.958319450643597 -0.9446649533276505 0.08855393508100878 -0.30981484561115674
Ni 2.931047664501543 4.00864970352425 7.374322135915427 -0.907925688925088 -0.24543416534224186 -1.0014912182880753
Ni 5.0605203301364075 1.0434871664396883 7.494889942833658 1.6436481440786272 -0.3677240592231151 -0.033521528796213236
Ni 0.6229943853732384 3.6360514736367318 7.758338103639596 0.32567880922660686 1.0709737385599296 -0.22794963540423321
Ni 6.684384575996679 7.980786625065214 3.549767315232384 0.18298746887124612 -2.3276240627874945 -0.40936153225824334
Ni 7.883366944315169 1.182169334331238 11.218881054633767 -1.084380498884139 0.02286173508952192 0.1629035536371775
Ni 3.9021087443247295 9.152257594379881 9.482339046054985 -0.09312047140576866 -0.8925317229675209 -1.311160539460303
Ni 3.109655023907525 8.232087530213112 11.695036691063166 0.45829656739604946 -1.079673837437089 -0.025324594807717673
Ni 5.714559341787476 3.1830863879264464 12.378001868264215 -1.0845393930595064 -1.5131528315688263 -2.095029215301766
Ni 1.0366715701058549 5.3369255021594 6.004693467399839 1.7960461701987906 -0.02162066359356922 -0.5050099122921883
Ni 2.4989167223881856 7.615142332438469 2.8906677924739066 -0.0242645289743195 0.8032041429452813 -0.3269101105305467
Ni 1.6860531038833304 0.6481069527039494 3.6885038972218624 1.0172099145749127 -0.18770184362777997 0.5649171301707819
Ni 8.54309637942764 6.429708152231483 1.9712115674901411 -1.1034105189323964 -1.6694643338107829 0.9821727204651215
Ni 9.141300992966357 8.274567417511674 3.4220186919332014 1.2636020729550494 -1.725405882173409 -0.16276497117678418
Ni 5.884275990955548 2.386648448813414 9.661125326393142 -0.7827515315178841 -0.10950791162485657 0.3990691491932998
Ni 7.540198440951688 8.974258935052427 7.433012813032635 0.053213093687869646 1.3837206702162168 -0.5132778087279355
Ni 1.7396187107938925 7.59945447132365 5.09901876555768 -0.2512165763519738 -0.3994201047748153 0.3727063429290549
P 6.318703392456084 6.2884343976419546 1.9026119909127563 0.008758720029236527 0.946017353590487 -0.33454500136798515
Ni 4.1402303704996255 5.848095227196916 2.224103393297831 0.037592613541793315 -0.273015160284304 -1.0092528645113652
P 5.6944906846529415 2.5462477648580553 0.8854298905939879 0.018222693655613777 -0.11725875921486903 1.2753556139465518
Ni 0.05268483634238724 3.0002457961561477 5.139122878004287 1.4110324706572925 -0.22695873224587365 0.5115564551614544
P 8.54590008888026 5.219806073413321 9.39306118999169 1.8157847862782988 -0.6591385479502132 -0.9311059836962932
P 1.6673125196474037 7.969562564526276 9.281146146917035 1.0116704728139223 -1.352435229839374 -0.2542707897972653
P 3.9335305801966793 9.100739433188007 4.559191256368444 -0.40627955089881 0.39245318653867894 -0.5502248182659298
Ni 2.3721042060279536 6.020763149473008 10.782639542444647 1.971746104269688 0.7844955107921844 0.7939168041060845
Ni 5.130705293736506 7.254146294956855 10.419749156536822 0.4807309851401656 0.5906582436906279 -0.30991717551697595
Ni 3.9859986824201963 5.229121029160509 9.3902261232623 0.26705302916359813 -0.37182368321378545 -1.3524326587362128
Ni 0.4283219552583192 7.713244495094744 7.4091480808629075 0.8035841519925194 0.2199085102673116 -0.2385844894102601
Ni 3.677138728937447 7.915240693881784 0.4199846087281629 -1.9141803900400776 -0.6103603501052457 1.7806167230175978
Ni 7.886917694773255 8.389021477732074 1.226606284609556 1.3819062427152975 -1.0643382355212834 0.040108437985111565
Ni 7.79029116867099 3.375656958224747 1.1371329067028537 -0.9607721433021582 -0.2598634533936944 1.2069177328891278
Ni 0.2830750492471178 3.584247407862519 2.6975189571010025 1.9131925722055116 2.1598171583114287 -0.08617206511239352
Ni 8.473261879509117 5.713092927961928 4.355824560131868 1.1907007568096333 0.7217670214147117 0.34452628095041316
Ni 1.5635752699005028 0.7886096871940088 8.112292587940045 0.6444616626643288 -0.13556887037796653 -0.43173424352648876
Ni 7.819508772440388 0.4211328384217519 4.458844281604382 -0.15355733653558715 2.450111674501471 2.3044280842870055
Ni 7.527590971143365 7.118922650238766 8.852449748883135 -0.045345260904018685 -0.4557668589956603 0.7159285603560638
Ni 5.518032220978736 4.852759926060266 0.45545337784948503 0.6125169914369322 0.08246453435381926 0.515396397732835
Ni 3.7571090074363247 1.3846543377267937 11.308294484805463 2.0015755289262946 0.9745931083456506 -0.19110701265458702
Ni 0.728732044923669 4.35494471183654 0.2164602038348764 -0.18991839166312452 -0.9756320911331262 0.30255842115905957
Ni 7.282948875945436 4.051581504517477 5.706541101662125 -0.5646443361253695 -0.8790637703880733 0.16905517506087014
Ni 6.162313585916415 6.16507118172672 5.951010731837803 -0.4298547671155888 0.42014988112299906 1.368377354990927
Ni 2.362586350254589 1.0158558719658517 13.036601519140023 -3.600311900093897 0.7089881244824886 0.5942328484157637
Ni 8.734883017806622 6.523955214390408 13.059926721694687 -0.10590605320621115 -0.682308044088141 0.21978149777114406
Ni 0.7433980277248357 4.6395119985489 11.417496201166433 -2.142848391667574 -0.3064690690673754 -0.06562483708866117
Ni 1.4416323541685039 5.872018984828803 1.7274437869504637 1.2579559304128656 0.14835933727441547 -0.19686834061839642
Ni 0.30771356833485297 6.917424478788704 10.866100623666604 -1.0072967692262587 -0.38160441674963314 -1.8261314196199454
Ni 5.653458765723001 1.3308304944192801 4.037788914101715 1.0824976800391293 -0.9984390617253128 0.8459531038770334
Ni 4.898209531923772 5.360406568825083 11.615720304012283 -0.56019067122939 -1.3755697589743083 0.30147135874246794
Ni 1.2448008833204989 9.019238181764344 1.4598915119786848 0.118662324430615 -0.3347841139619847 -1.493989628376814
P 5.829151742934814 5.744597768390042 8.343128258629516 0.22194250997820483 -1.4375410584707822 -0.39802013910349515
Ni 1.602578188568679 5.658844839145138 8.518661682638927 -0.6756735694907589 1.0724827190052884 0.4993997651942625
P 1.7824490617740316 2.284497508362074 6.404259877584735 0.09334235760858763 -0.32703866568861095 -0.08995184386979992
Ni 7.601999944379318 2.9249053273454764 3.561241311712658 -2.5283485439271876 -0.27703405163571 0.3390827413373386
P 4.024807923790658 4.646069358485781 5.314129684218484 0.47608243062456074 0.05953029415514908 0.04578183422080503
P 5.4460580480569 -0.033994977113004705 11.622793214470223 -0.795591620705346 -0.24378068889921886 -0.350110717016726
P 1.6624521417476334 7.233385933187627 -0.145403692395065 0.07738017785237641 -0.2821032386285013 0.40076144929405816
Ni 6.612262839419442 9.237484828102419 9.572643391796165 -1.488681071679707 0.3486937820645414 -0.0642158725562765
Ni 4.829149741196106 8.545641852483307 2.378512157763742 -0.6054713974440605 -0.3440750523456074 -0.10425206254255594
Ni 7.327365536221137 8.066262872456242 11.543368921496329 0.9288285005160262 -0.8811355653154374 -0.3653128786784612
Ni 7.152078359061677 5.725414493187912 10.879639589049646 -0.2729940772383815 -0.08546166930893025 1.0493846995352443
Ni 2.4119371702577603 5.387770404173506 3.9931896438024563 -0.4347156947523158 0.05195556713168471 -0.10257107529570722
Ni 6.307119645507106 5.285674800092941 3.8468000417347437 -1.3257055271540137 -0.6050335385756934 -1.3001582748125287
Ni 4.250506534726483 6.937649922307103 4.241155610338292 1.0637509955592455 0.14165107201630442 2.000362225344484
Ni 7.772048611772041 4.079305026275939 12.548310616599585 0.8459662165031558 0.9282836837561498 -0.34954456010061097
Ni 4.136236929075337 2.213049030962604 5.493077362304735 -0.614174067424381 0.05954597788443294 1.5590909888618374
Ni 1.7782434975951034 0.49523469479990134 10.515047609740478 0.4608602143581676 1.7256061711096735 0.23182428786829107
Ni 8.915288809262805 1.3033652090577694 2.435245771901194 0.737157387827853 0.07483375728143886 0.4189777151917688
Ni 3.5509072444703564 2.184366345444035 8.68559675690269 0.08055163360182258 0.06005994140637399 0.3451212342219347
Ni 8.669447759364743 1.4180129465758817 0.12491632338832907 2.0848481610037064 1.0033709518092913 -0.14740134423652035
Ni 3.339928108160781 8.544212329571609 6.643154368404795 0.014164207315523994 1.5198068465502341 -0.022192991157271455
Ni 3.8161529150536486 1.4806260501082171 2.654905340239733 -0.6638184699243858 -2.045507454422555 -1.0756860564339343
Ni 5.311848903469693 7.674794940134323 7.899503952306114 -0.7542346550251139 1.1111042880322286 0.590152507698803
Ni 3.599068332501857 3.311475990853776 0.9856329907940351 -0.7326569288543383 0.21183473212024162 -0.0871395712319854
Ni 8.660105135432168 1.8419817739998716 7.998973845593388 0.18577300203618327 -4.1932116315205334 -0.1283543549073983
Ni 7.962470286338566 3.310830399861397 10.357007857078855 0.6716495359330303 0.562392049756083 0.03158703077766173
Ni 4.852658476047178 3.361730638246278 3.138012147111365 1.246779344970756 2.0212696649211126 0.20997659586558032
Ni 3.4969542829643667 6.298948308089275 6.9183458293621145 -0.05163469345715623 -1.0696259662827836 -0.5496342358697824
Ni 0.4266286623125928 8.67764676496796 12.30377366050613 -0.32820131853814444 1.0482436439522655 0.795219839188224
Ni 5.605970936869268 7.177090398652147 13.12544775151127 1.0979196710211543 -0.19149499212162505 -0.16138403166885754
Ni 7.42509878973891 3.4730858617032556 8.085214657173962 -1.9909946680866553 3.1981646261959047 -0.19212362684455944
Ni 6.842360691831909 0.3806745732021835 13.27797969073505 -3.007049386011202 0.13343176943030569 -2.3495373179208183
P 1.8626314630275485 2.300747955913109 2.1463797714524335 -0.3736887614469822 -0.766605517885641 -1.3090018412460875
Ni 4.352740479733987 0.8145310878108865 0.2010019886587757 3.1647688243442786 0.8989810781372904 0.5143661566961077
P 0.5508984724356962 1.7976942319226474 11.766037866132203 1.381245726313163 1.382931341545702 0.09266821435969846
Ni 3.197981094393484 5.549278825009897 13.272729191421313 -0.6308754393394619 0.768888914603179 0.5963151848660891
P 6.779775256484962 1.9450273191120804 6.20719691625232 -0.21213246586631854 -0.407249371011247 0.071234984186587
P 8.028883153997478 7.611231895570342 5.833385897571976 0.05704532294976627 -0.44583880124867087 -1.3403903828596981
P 4.057354932535041 3.398141970216474 10.579313426213304 1.0965857827010792 0.5254501824244112 0.007753161582857614
Ni 5.148837177893904 3.6495627708343856 7.273947492965976 1.1975419481011826 0.7152037663748972 -0.12576268292082213
