# total energy = -381173.2807682042 ev
CRYSTAL
PRIMVEC
9.19352316481883 0.00000000000000 0.00000000000000

0.00000000000000 9.19352316481883 0.00000000000000

0.00000000000000 0.00000000000000 13.45565044727262

PRIMCOORD
 96 1
Ni 0.434432582694797 8.488986717637033 9.627638578578635 -0.454924565600023 -1.2439647583400963 0.13012687342678878
Ni 3.545482211448897 1.7998711926062991 7.340905059977469 0.4326850374755323 0.032503371944344016 -1.2136689355700325
Ni 2.1406475160388836 6.420407229746855 5.1862787919549 -1.1053329327660897 1.007081310781343 0.9943101271586037
Ni 0.7568264565441012 5.011895125067868 3.869952902182854 0.7108326338903952 -0.6337244787524828 0.7650916523442759
Ni 1.464666144216209 2.9282198721285533 12.46382117087564 0.31527689716699253 -1.5621557438300901 0.4717110410297425
Ni 7.1311676997308435 5.0099277111089675 1.9739974408445027 -0.2711943050254813 0.4237769363526249 -1.2556159694257796
Ni 5.6228690945382676 7.087562819323994 12.070619700904572 -1.2715840627192618 0.9657289730868012 0.8914066082241422
Ni 9.097892144393635 4.360589169440004 8.950805886510192 0.09108595747424313 0.9649645841169511 1.3863197984019608
Ni 7.554979924456846 3.4674843608539727 5.246667368265346 0.4402021717881838 -0.9115090354009722 -0.19156955411330234
Ni 2.096288766731893 0.87024051645619 10.532181968695808 -0.6073328761328314 0.9176501153017034 0.8234289546325883
Ni 7.599145609777215 5.6626126952126965 4.244356375323248 0.5453536062165576 0.8463428831162844 -0.34339191023565374
Ni 4.037354088220423 6.295219024707831 0.4364882544761531 -0.18750669689783836 -0.54717780390949 0.3149871338407156
Ni 1.0778946243519407 5.061779181801491 11.422730058487586 -1.344691324227897 -2.267735871072295 0.29966310188913553
Ni 1.0704386770590972 0.7110399530884318 7.5248031039956516 1.2928208606108509 -1.3041830797012057 1.2134617046552327
Ni 8.766051925484655 1.1811838571942288 12.268216094449683 0.40313894838729925 0.7491528696268324 0.2983384695404411
Ni 7.446128610095236 3.6303108497609387 7.6057392045964844 -1.6237917714743326 -0.0037155011783742468 -1.2786697659214497
Ni 4.389833766651515 6.612744928037332 6.088049415483267 -0.9994613323422401 -1.0685419891899854 -0.4763778503777925
Ni 1.8867775671553109 3.2593705767996 1.6481688667379772 0.2978399326374677 -0.08086016598117687 0.2893421795791017
Ni 0.6623915058691837 8.36587624883498 12.119531082886553 2.6598681839364446 0.21977609845450538 -0.5259937136327071
Ni 5.86907164509603 4.549699941096957 13.329947585712166 0.2499999303360533 -0.00032524454990266564 0.2003591273804743
Ni 0.811711789883528 0.9015481402675942 0.8254892037097366 0.9134810715256784 0.42581633538015695 1.0161958714881014
Ni 9.095906343388389 0.14761580481817507 4.291370214122437 -0.048364507346316706 -0.9855987154275347 0.5539428905474654
Ni 5.695148573719937 4.0472463191539605 3.635609077165212 1.2898262967589011 -0.8777576499821399 0.5489588070693127
Ni 7.941117091222217 8.611141060029155 7.965920297389125 0.04563065335492141 0.38516128086295603 0.07636202100050721
P 0.3646822417378629 2.696800506832063 4.889877766171017 -0.7313901463267727 -0.23477771406966016 -0.41383396620730023
Ni 0.6765780314765656 7.589850957849886 6.688642058587354 -0.34045982419052334 0.5794328072884537 -0.2549356770747739
P 0.9458480510262813 2.7975523272787592 10.260121714863258 -0.829060698997069 -0.14556223414525254 0.5571004623398406
Ni 2.869583581334774 4.123993850597434 6.3711832679770115 0.841063636995216 0.08979140703253569 0.25552368836775996
P 3.4477090925100686 2.8971733443752465 3.3446708428503884 -0.5352165177825557 -0.6556629306967869 0.3483376842767033
P 2.4573092281901756 0.7157819723407729 13.037058485780154 0.9881875592006335 0.13097688013190992 -1.2658613013028714
P 2.381756854759119 8.698378401412375 8.788907943443643 1.4131983679603597 -0.7658920367583842 0.14246714015969658
Ni 4.367043022707053 2.7186810919824542 13.563026381941283 -0.04548281492314748 -0.39154018780610633 0.1828547999481238
Ni 8.116934028371832 1.1164614540602984 2.2930577431914827 -0.1813720447550102 0.9095205442160336 -0.06760072986810937
Ni 4.064493368625445 1.2475151268833349 4.627196744678983 0.1897348148974087 0.9262879934823597 -0.9358995484301946
Ni 4.715734969591102 3.393632789209816 8.471301137110224 -0.6765089209078607 -1.4611314441962127 -0.1783682249316799
Ni 7.041466494137413 8.280201806391075 2.9502723761622693 0.8053404725619936 -0.4543496669331594 -0.770512309139215
Ni 6.05072646946014 7.073037052711548 7.561846566914338 0.4160628555378189 1.9353469968153636 -2.5453936723349324
Ni 2.169836952111359 6.18300288086511 9.934656284922044 0.08756508880517823 2.7201713517018766 -1.4931702177993125
Ni 7.807185845646209 7.787952995169478 11.873575838102127 -0.6807162741209889 -0.5548898278417669 -0.7441366473591635
Ni 5.665444300349805 2.312465270608489 5.903101471118792 -0.49140646257614073 0.9152330212197787 2.0198820405449665
Ni 5.29028420025232 8.412671281782664 4.696251135931765 -0.7372707734772658 -1.3547114274680605 0.9450169373504305
Ni 4.391791987087243 7.345128564522884 8.97954759800417 -1.5965614750034698 0.7155922600625676 0.5240149926397814
Ni 8.361978195009868 8.539403998714658 0.585256007747834 -1.3102493404999436 -1.1589442903336427 0.7205092377482106
Ni 8.377340572231004 5.751918579309713 13.105143879690559 -0.2130009845142009 -0.0388226292941525 0.35532645688971065
Ni 1.5533192881679831 5.581277595706179 7.749257456136706 0.7572963246695732 0.9130660954754469 -0.23289438100401824
Ni 4.304720129121127 5.4896917178623985 10.447411249579753 1.6843829027938284 -0.18329882946407786 0.3809336159348536
Ni 1.5239184010625415 5.05633661608341 0.24456978084233924 -0.25731728993307296 0.3804276228327126 1.374289606710304
Ni 3.3964643943469257 8.142069120725264 11.152029526732239 0.1136054787329979 -0.3271538511102366 0.4627309490183191
Ni 3.081733322061844 3.13850332765162 10.69126761302391 -0.1871205172030132 -1.7268958364553744 -3.2264084515329468
Ni 4.131909474048898 4.3690104366659535 2.0655097705029037 -0.12082076553451448 0.8654505504800126 -2.7089274033569413
Ni 6.18882238103326 0.7639992433232338 0.6279130359156072 0.008193848664702017 -0.6166202149720283 0.3639198549856765
Ni 3.652632724023607 8.577308894754601 6.917307963693702 0.3842842775746414 0.964234647929462 1.2958784164902521
Ni 7.442285717409159 7.844603484958013 5.616011645603948 0.7224424502151816 -0.28736294436554377 -0.07736192301993129
Ni 0.3324571043138498 4.343195023597761 6.384854036934421 -0.41446748602624106 -0.6499111158146742 -0.6052662234117899
Ni 3.6537727208969883 5.146157337478084 4.276138384930349 1.150978755629663 -1.6623400640611758 -0.34035723717438804
Ni 7.6460049973871085 0.5338890357264975 10.421992996712609 -1.2964376314278319 -0.11409553099553899 -0.8795116565587692
P 6.932550825113595 2.901282849233324 1.231349235736928 -1.1416194259019499 -0.27823269992950145 0.011677693448244405
Ni 6.425353345213623 1.2912671036609447 8.307208700062414 -0.5396329016826965 -0.17417038480024843 -1.1397060109293211
P 2.2995024029353583 6.532761276437162 12.21658710701793 1.5861346232431908 1.1185368330508736 0.618922894963276
Ni 2.0041053098819046 8.416275142866258 2.82139389092183 -1.054214773934036 0.34771804841483345 -0.8667011350576621
P 8.913598778879038 6.130774475722516 10.200418975381478 -1.356338164438206 1.6680653965807273 -0.3433366315176861
P 3.5793603443393134 5.178049669363254 8.479898919981084 -0.19457157416441975 0.44035772352944164 -1.3278953357164807
P 5.543887536963893 8.908220567823165 10.542811520187776 1.1004421803326918 -1.317776245004608 -0.3265020764588506
Ni 6.700166139884 2.2072270108536456 12.28837289400524 -0.5298251715636553 0.5734344236131736 0.35936360307356174
Ni 3.4213052939588406 4.505442320544863 12.251423205022915 -0.3634334022675612 1.894859835334595 3.7129583573477345
Ni 6.659015930164188 5.3141597799311295 11.173747386522477 0.9220191909036765 -1.5051667280395562 -0.5573719708336724
Ni 5.967791696921619 5.185239004484098 8.656060614249665 0.862355970715089 0.0392993118202549 0.5811119947630895
Ni 8.901674779324392 3.18920560794759 0.6196747198007898 -0.07064080224601382 0.6034106582602898 -0.4952268647634954
Ni 5.476122077659887 6.433912515287159 3.0978403746599477 0.2748630121263202 -0.5847349362276575 -0.6318650569462407
Ni 4.555041378060141 8.639788078234456 2.4997768697805967 1.6354944046232414 1.139821967681895 -1.7583720526867848
Ni 2.037937475156459 1.7719136886389293 5.74136441470776 -0.8506021726132705 1.7037764768290915 -0.5585215110570833
Ni 8.425854794011935 1.3248326567634987 6.537118087068578 -1.685182258766672 0.9898767739775984 -2.1556617413821586
Ni 1.6082138150305822 2.954393832600471 8.1826769125779 0.9055322489922468 0.3092378900617642 -0.4913079893250635
Ni 3.423474965427535 1.1933560818745304 1.6617320714742683 -1.7432315975009203 0.19863854514494178 -0.5162867707575882
Ni 8.607509618376044 2.0729004437812226 8.782180123186055 1.0385235884510244 -1.4214757774778035 0.953349625585842
Ni 9.08948926421403 6.547204301341054 2.266052688224777 -0.41845629547065993 0.6623087181480787 -0.32413229067509336
Ni 8.470627251861684 3.493649127802718 3.123581320190443 0.04404248293219512 -1.44772159854821 -1.0197751041989276
Ni 1.5030031358452558 1.518071320324874 3.27009941834183 0.00888444697382341 0.9881968151720143 0.3618380327559833
Ni 5.940652416516596 4.983542299604084 5.60236753786374 -0.9440797702481418 0.7528958816090323 2.7001943943593174
Ni 6.706914185892566 0.9555472179731985 4.449958488846911 1.2834167936881316 0.5122182571151694 -0.42337121627377405
Ni 4.260912991204483 0.9382725879321963 9.202467551127747 -0.36277905651301395 -1.145076788322931 1.0296252575201301
Ni 8.107529054166433 6.216191499517594 7.736676119675232 0.9738256340520067 -0.9134538178321688 0.15417131597050224
Ni 6.828820303159031 7.162490033179324 9.76751067882867 0.43007202533271743 0.9777164844659806 0.14780886408758415
Ni 6.6441224226248465 2.924367785919304 9.856048903740787 -0.1969462450441834 1.1632956253238032 1.0703618160075439
Ni 4.189396574446124 8.584911938418202 0.11939628544039109 -0.6089290169753578 1.0408784618364462 -0.9835397760159771
Ni 5.423581092729431 1.9939464667763658 2.576245837471945 0.5353738692960264 -0.1677554824128401 -0.0073847224998453455
Ni 1.5825271112868038 7.480815773024827 0.5696325344686008 0.0798494653284754 0.5089858662208008 0.7006780619548966
Ni 2.2342191948879093 6.040255046566738 2.408117443751437 0.8306529831848533 -0.4329575744106285 -0.31878799564404453
P 3.614543957520216 7.349808067817653 3.6797168432895955 -1.609606481112886 -1.9529919635906363 2.1936868144756803
Ni 2.444778456106149 8.912872490548416 5.085925970413887 -1.294988557686131 -1.885658371340985 -0.685411108493497
P 5.9291329319815365 0.06929066479831243 6.5750229831085205 0.23583315191736806 0.2658345833754648 0.3902934598831988
Ni 8.402742276756438 3.696200830337768 11.469757687571533 0.37659076558512566 -0.8121266422458917 0.04272993476835867
P 6.032624422333619 7.598189483367283 0.9304645287018487 0.5078008447737642 -0.03412265271532188 0.3124062604874168
P 5.106110350538964 3.4545950413662214 11.372903920949948 1.3498543564860752 0.33989186750219524 0.15515810536380376
P 9.289779360048662 7.063576917367115 4.499932642107624 -0.04627780002061708 0.764288182606374 0.04469760001769076
Ni 4.500643301448854 1.2092792640091845 11.57858693747753 -0.6615409867441187 0.35760265451839707 1.2130588127898592
