# total energy = -381158.8942578565 ev
CRYSTAL
PRIMVEC
9.33699439541040 0.00000000000000 0.00000000000000
0.00000000000000 9.33699439541040 0.00000000000000
0.00000000000000 0.00000000000000 13.66563509555004
PRIMCOORD
 96 1
Ni 2.371596533490184 8.87746471849579 4.212910617987921 0.3602035824763538 -1.1380216812483626 -0.6362233339149366
Ni 7.459268665457114 4.347416555714298 4.333427870964396 0.38531991792800735 -0.5967209049449401 0.05241862281103231
Ni 3.3756035226484498 1.7741409469351843 9.718097651178686 0.15560650575513202 -0.2622185838894323 0.16204557651225643
Ni 7.569482545304824 6.699750870115543 3.522836717204749 -0.6361230608916464 -0.10121816081223858 -3.8172163334275613
Ni 6.641338634235565 4.699701347874079 8.324407473186458 0.05815706795670629 0.18349140509085818 0.7383830327048381
Ni 5.006020117457593 1.8722634192597842 13.831125773430342 0.6048790152757002 0.09996526224174396 -1.4616932302369536
Ni 2.55882194171674 4.096092682123922 3.6418647196021228 0.9378186198297784 -1.6108894615903677 0.5987050252545044
Ni 7.954764275060489 7.152296306277757 9.766063657918236 0.30111654650621045 0.3966587399795943 -0.034846161144907725
Ni 0.5644259694793242 4.170508526107846 1.0696376552746274 -0.03665313244665946 -0.5803460631313425 -0.7690069282382821
Ni 0.08507308919386797 7.008721346059337 4.863189315679013 3.866598740515432 0.37173420882377267 -1.0945304428339473
Ni 0.8406646784632632 7.148103995870131 2.262031574741205 -0.2534272108500474 -0.3746004746279742 0.7951216230474629
Ni 1.8284635793440265 4.567722934484774 8.055509509063267 0.4440521416618933 -0.2839788583846593 -0.198878943290522
Ni 2.8107527199318274 5.372917305581596 1.7257510406577583 -2.129165751974159 -0.638943561059577 -1.6433447539055956
Ni 7.316440664776802 3.648299776022916 1.9771029252308125 0.0666216537842917 0.8742385810852878 0.4714863266134461
Ni 8.236956251563141 5.974089015838679 1.3120773788586406 0.12369243065535472 -1.322378776773626 2.2908218063574806
Ni 2.590838494918857 6.821813395636477 11.748947116274575 0.16502908462061255 -0.6153588317611015 0.19517706895890258
Ni 5.955274972472606 9.176995493276756 6.742419066331069 0.2029983647755343 0.11111382265939573 -0.47660899255199213
Ni 5.903650731395175 2.5760020110932045 6.4347781783651055 1.753197707574697 -2.287623611135157 -2.0950017044979403
Ni 7.754373704974794 7.39207031801015 13.4646683577344 -2.878257429345753 -0.9688549203102926 -0.4199467639732574
Ni 1.7671662122481089 1.9032062181258727 3.838362696794856 0.6027424285486717 -0.22535204988038607 0.47557206664704543
Ni 6.438230998830006 9.090815036567644 9.691149218442625 -0.04389490161073731 -2.5139737632627543 -0.9480518675220123
Ni 4.665910765768957 6.942344654104292 5.914405081345073 -0.3590257601181688 2.492518935823088 0.7457659554324704
Ni 4.618180051283911 3.0086409755648624 2.2159507071359528 0.09120011445460423 0.7182353541123695 -0.7298392568998849
Ni 3.0869316721527174 2.380616069912828 12.042758982091907 0.7517036610731441 -0.3802990676746483 0.7429169160194495
P 7.509184236591124 3.871706036876536 6.568182350772774 1.5242312008701748 0.3672473766970127 -0.7966547718625376
Ni 8.34301516898013 4.9090367584286065 12.89578117241373 -0.23731462155890098 -1.9099396124858523 0.20325933174640476
P 3.90429214672646 6.397876509783767 13.500294592904421 0.603944933497205 0.7033088147095243 0.5477048800575535
Ni 1.4069449749959386 9.368553266824334 1.7654631445012245 3.4800156396042836 -3.5969869494857214 0.10337403081297682
P 5.702886681540427 -0.2648074269526317 -0.09438393983637353 -0.7527218179250132 0.5239152338371235 -0.47315651522701735
P 4.480253972572427 7.922243524170149 9.193514503461996 0.02242053378704526 1.3113356315855869 -0.10218618115246272
P 1.6299404081036002 2.1192175795522328 8.123850704603536 2.4974911922266987 -0.7360888373540225 0.4350908187035475
Ni 2.005436967910062 6.20537569981933 6.19408540640084 -0.2360900051231805 -1.3845393094627703 -0.052745924243464
Ni 6.948114916536168 2.8525637800773747 12.416677589874118 1.0362710449714216 -1.2922865853739356 -1.2816113650482768
Ni 9.314090579502096 3.1245317479021857 7.4416348181612495 -0.9355694187842856 1.26691802470216 0.6321586769272597
Ni 2.2751080351551933 8.402333093300063 9.933372323760588 2.166060568117979 0.9863152818785852 -0.3499680207912747
Ni 4.679682832252809 8.021337043894288 4.0060672511924045 -0.29395602420202926 0.9338845748826948 0.06750328505829664
Ni 5.010987398386005 3.3390491902523314 4.401755994712747 -0.6234187259511005 0.5745443688479008 0.5591712288259403
Ni 8.299327372995089 8.669940684821174 2.1207152334261377 -0.6027048904425168 -1.0596788823724008 -0.46234322666159733
Ni 4.407406743618528 5.872185060852412 3.1270527363432974 2.256724093342823 -0.7740979696079443 1.3555287811630332
Ni 7.958396365814535 0.30639906773386016 -0.04262711344092947 -0.8130872063869481 1.4875294745737673 -0.7827700434606454
Ni 5.991278422209369 4.238920682804235 0.10738196949886047 0.48244616805905943 0.5148456674356875 1.0129948480523006
Ni 8.152736563641561 1.1485716707646771 10.72674419276802 1.0170898440572806 -1.5958058277843676 1.2125152815815634
Ni 9.252176970787241 0.7449614213427079 8.372196077035708 0.3773980919777694 -1.0845669038633323 0.01998158532824946
Ni 5.488014433409681 0.8977165142844643 11.230446086596922 -1.0221508035199558 1.9835952902987901 2.231364788642428
Ni 0.443680893843727 4.407677516451091 5.302634948941673 -0.052431992547470996 -0.4789656657096268 1.2259017301907984
Ni 7.503451322136152 6.894156426902154 5.5549989636888615 -3.4810893322844367 -0.4970245800938665 5.537290261865095
Ni 3.731202947758582 1.0534557105809585 5.375664249282985 0.8735623809538697 0.023748508569849426 0.5102215384001149
Ni 3.2189754445016074 3.9918824895637495 9.911261387733195 1.1082071689900914 1.8455964703230925 0.36961793381171826
Ni 3.1869682282937166 7.638650998533545 1.757359567212185 0.8434923010413667 0.48521061817807404 -0.05004549459316542
Ni 5.569834513815092 8.354574367832338 1.9415448501186443 1.439108145847586 0.08863106817584736 -0.596946647802501
Ni 4.293887567814694 5.348669131575793 7.765183143190628 -0.7744083017595115 0.24623660663887917 0.18324226519452957
Ni 5.864911542350093 6.148382687061755 1.3917490168925712 -0.14867224052914396 -0.06658797233287887 -0.47480536368435
Ni 4.956253938231205 5.155561416986644 11.757734161540982 -2.2075311765579397 -1.5509323643104451 2.9953796629827574
Ni 4.071900530083477 0.3968035806309679 8.191331962975557 0.5202136166158202 -0.4957218021220431 -1.5693489191444199
Ni 9.225239742444252 5.016823019777467 9.474835338403333 -0.18769824408335414 0.11833168056407362 0.3359786484907181
Ni 9.128835277057298 5.691131405809466 7.141578370605342 -0.9710894660677661 0.7873828596423085 0.1294689281278157
P 3.7580748171419867 5.120977190372282 5.440124990022786 -0.5993552572439935 -1.9992139706726535 -0.9559484966612699
Ni 0.30479497212577505 4.74265152131524 3.190775854539218 -0.5516150137452371 1.0761938493082885 -0.831534100238226
P 8.144230561901365 2.311746400499349 0.5776163412228739 -0.3480628333487618 1.3450188827706449 -0.25379462149179516
Ni 5.129595236043194 7.796334157027964 11.500356180894249 0.5902368398824932 0.3991845917252415 1.0848682371538347
P 5.243805349419777 3.1036448918178645 10.731677860517216 -0.7509333585660228 0.018861612791193322 0.05437600364771925
P 9.344557191662641 3.5251448221775 11.010716734069636 -2.1462011101898906 -1.7131491762932434 -0.0024973125005569893
P 1.9132901718903192 6.059298425148251 9.766774203178858 -0.269382191517407 -1.0571962251598632 0.688522400428969
Ni 4.430879947103545 2.9773060229412676 7.7497817712142805 -2.685990849165426 0.3191569489476891 2.3947617369762564
Ni 0.7462676668349728 2.466348350899075 13.027245117421165 -1.137694636926247 0.08087944925488652 -0.6135143223531949
Ni 2.8598839835508247 8.199785677548086 6.729546152391214 1.5342366488223191 2.1724232771112133 -0.9853488042002578
Ni 1.3398586714796905 1.3975239478215622 10.617760928759342 -1.2721175666252287 0.6643401467558107 0.02683820323876668
Ni 6.933614564502665 5.2758499136045724 10.967492052998221 2.961429788399874 -0.7456196596625932 -0.45082442738872036
Ni 3.4262847273090196 8.931544589054749 12.718920761477834 0.41397383421927414 0.2707086236383145 0.28420742945569766
Ni 7.278560479200544 2.977735524675679 9.903662941831799 -0.21622669054035018 2.3765092185239713 0.10607806000770117
Ni 1.4717157039440543 7.323004571717918 8.121609825989214 -2.5277628466270468 -0.49352042359535 0.29138106438600136
Ni 0.37209882760749674 1.6782220052480008 2.0127431658921724 -4.102594900373225 4.3339093384846334 -0.5816439560071596
Ni 8.412846548798921 1.4998200565653355 6.0864961556301544 -0.7683703230955476 -0.3081441427769532 -1.0652630613283975
Ni 1.4039944848204153 0.6188401044315844 6.129351091730207 -0.1315484363646638 0.841249527753777 0.6240633015136349
Ni 0.12149857106966286 0.156120145660929 3.912635684767117 0.9404527150185158 -0.6854843849335936 0.730003293281575
Ni 3.8994555837172165 0.6875071610703517 1.7540393320652985 -2.2780040857675217 -0.5852581557209791 -0.738707248813476
Ni 7.108711217229206 1.3227159500801318 2.631249939629876 1.1915232527109287 -0.11084257127588007 -1.7292890192778991
Ni 2.297021960604412 3.028173967486364 5.896967310927961 0.7587088887463836 0.20190256060819423 1.166218712507869
Ni 0.6681861189177877 8.602574271478137 11.439352929116462 -0.8615597000660387 1.5803936069943556 -1.8071569353999715
Ni 6.314058312613919 7.084929892934719 8.001297986885719 -1.1554861565817132 -0.4315846053225019 -0.8275239506375683
Ni 5.917516167821288 5.2085862071980245 5.946026679691416 0.7513959000247382 -1.9893494191737484 0.1512993937393459
Ni 2.3973012785952963 2.6673738365921604 1.3475775646066053 0.7939983080762971 -0.15211546188273803 -0.27293982696167834
Ni 1.6838148647895779 4.35429792045911 11.805796339321065 0.9511441332940909 1.489934227360518 0.5175011027806636
Ni -0.02308385082577867 6.439482156056336 11.60593704420685 0.8138238274426565 -0.30259133127952403 -0.16665607870107427
Ni 5.114310576494677 6.150408814808871 9.961605526902193 -0.3166187559068676 -0.5531635891792795 -3.732361444464695
Ni 5.237484204328545 0.8652163047814224 3.41027271591027 -1.2617218252132012 0.6711859660330506 2.8823814788164555
Ni 0.4682325201618862 8.187955705863313 -0.1688660764793048 2.1110487306584744 0.24071233438654027 2.2331049112619863
Ni 6.973016680137817 1.3833223796033 8.36088150743223 -0.00016532193327068302 0.8133833974711283 -1.547629010968825
P 0.9241710200259514 6.145983079545586 0.3087557250765882 0.02975511977524553 -0.6895099611532189 -0.6171521762160984
Ni 3.7862071807459468 4.279966109423222 13.631921935310814 -1.3446306461932906 -1.6639092083205087 -0.0076803993633932244
P 8.57938117781991 2.116780624059158 3.824573823721398 0.33920975383350616 1.8031632408595464 2.065839224001371
Ni 2.3363400432915267 6.2581483911866 3.9411826109147268 -0.9167250323842729 2.0850728754200025 0.15500358206381049
P 7.666335186414641 8.461557647677735 11.695391984791138 0.38477304428560183 0.4086277394160123 -2.7790210748502333
P 1.8825061019260783 0.783873344780977 13.47426118560254 0.6701366988329298 -0.10502673592505136 0.06433131508821824
P 8.146882268261647 8.101280388460205 7.6203542246476115 0.5658036465407933 0.4870916372508708 -0.1700190816360362
Ni 7.512545554512607 8.970881345730316 4.8526805286772685 -1.602016841691086 0.8332443980611134 -1.0026656982121507
