# total energy = -340857.5558981871 ev
CRYSTAL
PRIMVEC
9.38153749075876 0.00000000000000 0.00000000000000

0.00000000000000 9.38153749075876 0.00000000000000

0.00000000000000 0.00000000000000 13.73082841806972

PRIMCOORD
 96 1
Ni 1.2796885802212483 3.466431083529564 6.400941204459587 1.144376676932113 0.24379842951103176 1.5727718287830397
Ni 0.3741676003108107 4.592375032302802 8.411958134686826 -0.15988225031235045 -1.9614856028839445 -1.2210459447603939
Ni 8.161927972610284 1.8321766867995228 3.8721206487943234 -2.363249782410904 -1.776472104721605 1.1191646964428597
Ni 4.0869634793373 2.1557740490484987 6.919279577517364 -0.7995871150179842 1.433669491330518 -0.2969071364105532
Ni 8.946656032294214 6.79043166946066 1.0531920041824994 -0.14127466251349216 0.39542641023438996 -0.17055824196895789
Ni 0.3510965240564205 3.3904500138384828 4.306345097572158 2.0804150649330166 1.2091486791021757 1.950589781907047
Ni 5.649336538127712 3.133133211827498 12.160790374362454 1.4359793704106172 -0.7976901551055875 0.0107873204234911
Ni 4.493062079623486 0.6568774090303829 3.361746262656012 -0.09883294840951366 -0.3550384933356466 0.28743493525405983
Ni 3.232596269101833 4.68862960385861 13.985671977844063 0.644714144994767 -0.1718147400838783 -0.3981834041542368
Ni 7.590733080877792 8.961037928804453 13.421101389520494 1.6972767280373608 -1.6278466582699964 -0.004383473779676322
Ni 8.1095602320231 8.060175820261913 6.267272124441622 0.14278441428979924 3.2386157922324155 -2.1437991856166176
Ni 2.4389182229399062 8.650621626305567 12.365448608133404 -0.2440791939762442 0.052562347477748184 -1.103705424464996
Ni 8.450569727294257 7.6040173375369555 10.03657581641666 0.18880253289112647 -0.6412364708588117 -0.1933911807030734
Ni 6.18429993323754 2.8032689827364874 2.47954027896687 0.5449519999027648 0.16728008543831838 -0.3268571458054242
Ni 7.388514046775897 4.770005057433179 8.351474426277717 0.9646920471818546 -0.49225981171537164 1.119547276593259
Ni 1.963762127407882 8.095525452388841 8.029802155459858 -1.908882117755616 -0.9986151822918607 -0.09219101761296382
Ni 9.329244500385581 2.1107332890056685 8.146363064260553 0.08536473871974976 0.6376911767097146 1.1678858157976466
Ni 5.135866244717137 3.9824343919810805 9.172920884364403 2.325628115403388 0.028083131389461315 -1.071920418743915
Ni 5.265078156416761 7.521891360987293 5.43096812590923 -0.5755640683616667 -0.7330762757799439 -0.1675369386441308
Ni 6.208973376043756 7.0155697989144885 3.114934905988906 -0.2663925127614638 -1.0554365621562791 0.73949863436652
Ni 8.144056144265859 0.37932463130342553 10.178745507281281 -1.0708045599719171 1.937221331019941 3.372214169147573
Ni 8.760310559115558 5.713675120167646 3.1496738000448516 -0.6368956773916128 -2.1872153478187233 0.5483653964596878
Ni 9.2693340038987 1.6852336698133021 5.898351617880437 -0.32894308180017545 -1.367065063937407 0.331825545554293
Ni 4.006038339547787 1.2715923136274216 12.365942076989528 -0.007186490446110205 -0.3316723078058804 0.581512829745934
P 5.168889255621274 8.140444252448217 7.5659329873195285 -1.6927978663304009 -1.1481929653544096 0.4951721002661601
P 3.3418161250523903 7.808140823688152 4.245503014442442 -1.6871440104787332 0.8575464651415876 3.2671568370949022
P 7.790456626087499 4.005775656506504 0.7002229253032192 1.0666159758118663 0.7424440901480891 -0.15953180895146718
P 6.920056368796586 4.9384787022674095 11.102816600674887 -0.45114864349735845 -0.5583384485119998 -0.5555449449272626
P 6.295255373568003 6.560987414437228 1.1077287561677063 1.4408405551576604 2.6254686234106526 -1.8762676741547042
P 1.7166618193953644 3.6203727272585366 12.763133845868786 0.4924948105443131 -0.6313963448399383 -0.4314570786057021
P 5.933456391886742 9.381724819419029 12.395683426185068 -1.3174180903342407 1.3584742369446023 -1.7749435838922205
P 0.40298111547838905 7.888681320452929 12.126463329789091 -0.8600754022110284 0.07986283506491407 0.18341504332696798
Ni 8.897252857458652 3.4166995548923964 2.4345989632182405 -2.6987725743111266 -1.0235726235681468 -2.3380943661911995
Ni 5.309987574938949 9.32067915693232 0.7830431356048444 0.26124285023972427 -0.7274087930815214 -0.4226124837308786
Ni 1.8103833759102304 1.3729222968023032 0.2000594042410621 1.12724310257562 1.496146783929133 -0.755374425056512
Ni 9.24901359434803 1.1943259733414922 12.500463000584224 0.23456816916201537 -0.8302968853970153 -0.3718977309848304
Ni 3.922467606271068 4.496167368432937 2.674380734069872 0.32122720121315645 1.184944056831514 -0.1569851312702135
Ni 6.680067265973085 9.08612196414106 4.137029928852104 0.9794992873980163 -0.6252665777931167 0.09373110840657406
Ni 9.216187595724856 6.6846360745839695 7.5347234275539625 0.8287493384042373 -0.8774007808633535 1.749872756966522
Ni 7.072365625054728 2.7264435746984255 9.845196210382559 2.7210295859371136 1.87367651638876 -0.21546204446018374
Ni 5.678822709511718 6.247925518451137 9.817363065851199 1.9863723388232952 -1.5039719364005064 0.114579412610493
Ni 6.384971013703304 3.0307900226362396 6.709912750231417 -1.1850487007301784 -0.4875045564185733 1.998386846785668
Ni 8.886604812749505 3.685489976885131 12.355781872214195 0.17571638913112964 -0.3257497716738583 -0.041740574271895856
Ni 2.6867971985390837 7.894601070418983 0.7541039078389379 -0.9140055765705808 -0.3972135840417998 -1.3250848628508791
Ni 3.4380519335338215 6.4744052077229455 7.29385715100332 0.8653924435485676 0.24973202138664732 -0.19483794045192895
Ni 4.627039812214957 5.043026552698007 12.03307950861302 -0.3749293187223027 1.1006319277459948 -1.053874616985798
Ni 7.127744839079479 6.197368414541365 5.367737503411279 0.8216721198424817 -1.3570490744623016 -0.5566759732079123
Ni 2.6163230911777555 1.8101394559433248 4.756455303271576 -0.5279770626113229 -1.6266508381896823 0.48514325527524843
Ni 1.0650952985674906 4.007332991679824 1.1510001582967522 0.1340948569356013 1.5810016728919998 -2.0916528426303658
Ni 7.352563996268892 2.1328268090849987 13.688386074794446 -0.8851506000121013 -1.2481692833397473 0.033641599313845284
Ni 9.26523427214725 5.8224352807959585 10.985266877854505 -2.321490953306563 -0.15581630777309294 1.848807263950906
Ni 7.350781504203045 0.47780075086551194 1.8415103781485358 1.013287439592055 0.24914323876271283 1.0274891850137338
Ni 3.596121453625811 3.0517108505669857 10.41346030989731 0.01974401539614664 -0.21062708496538568 2.8123266309808983
Ni 3.9565882570262803 9.367755710545092 5.86031698981011 -0.9623340884726393 -0.08404319169484879 -0.8217276556707654
Ni 2.558701689764912 2.6497119820322506 2.1196007179564043 0.06514918300382327 -0.5252702052031212 2.0566652708115867
Ni 5.0506631239695885 8.260443494628563 10.079663340416808 -0.8490569396133377 2.3864966687539866 0.14477830479137646
P 3.56723570062188 0.8170821669865148 1.4353930147879728 -0.7027794245686155 0.33408683078464396 -1.0273187208741403
P 3.0338484037597477 0.6048952496216522 10.54041502374934 0.5972914327364294 -0.13711641737074448 -0.7759039124684315
P 3.281736760896114 3.979882613865761 8.184520590468052 -1.1305955639876206 -0.2843156728987878 -1.0242778771652878
P 1.2340004941124 6.139850210037597 9.461570144278125 1.5116119694442678 2.9082154091604235 -1.3201434596852037
P 6.057602273504481 4.91071873372612 3.8667112544513333 -1.086031918444633 0.30657422718667204 -0.5764878657275169
P 2.541571002858391 3.809166781643437 4.431253698163337 0.8472270854934505 0.7073372191426269 -1.464551525621355
P 8.219783912452845 7.677277761443321 3.4065083910443383 1.406935160659467 1.2520701610560503 0.7139462398187124
P 2.096801706280486 5.890291939281647 1.5303557486729003 -0.3998695336074081 0.8752209996032152 1.2443630222197797
Ni 3.4558111834319836 5.6333785433697745 9.518210236901036 -1.4406104414247254 0.03594016554003488 1.110643546345726
Ni 1.3016695218543146 4.193415781817198 10.464539027274771 1.460042324897092 -3.1791988837266794 0.8380428478910212
Ni 2.0485993682050725 9.327490152931299 2.6540040352960697 0.07697085822909969 1.5592547681332114 1.1017899526098378
Ni 0.2688861136720593 6.686859498897685 5.3069648436567585 -0.418506431982305 -0.2739443569667927 -1.1352860274847545
Ni 4.833874562613681 3.129868436885839 4.426709281549142 -0.8439473863009143 -0.6346459621254876 -0.08387786976157811
Ni 2.261410157792982 2.0674937841030645 8.940622765728177 -1.5809402235264451 -0.2083909965460153 -0.9469198108000982
Ni 7.753793578754156 5.795482124452895 12.95310059240227 -0.4978820429981555 -0.14842310063281536 0.8627238955774691
Ni 0.42185958276316027 9.099002814701112 0.7548731938884092 -1.0503205810859524 -0.8571898531331174 0.22906600839686359
Ni 4.433085912376285 2.650828384957703 0.6340483764354606 0.6865295383686564 -0.3019904644707315 -0.3566264066480568
Ni 5.708627853160139 1.2961625595245623 10.631299603418348 -1.992780556342484 -1.8839280189134393 0.14518556753212417
Ni 6.303004523285849 0.4614656183125906 6.626539029235659 1.0743526823344915 -0.7875270985296566 1.556938204184893
Ni 4.397604938728715 4.920184704749492 5.703167798516329 0.7018317159433655 0.399111572395461 0.42363372590654136
Ni 7.138777526813361 7.794462542467063 8.19669970204639 -0.8660948689322309 -0.04605334271463682 1.348861653555503
Ni 1.0406939203397463 7.341756465427539 2.9453035794655933 0.47148735505471057 -0.5174005726470573 0.25338710164073136
Ni 1.3798083450987908 8.907844612944666 5.478572860065726 0.4316213720977083 -0.7986278364285084 -0.7962284829583964
Ni 5.779158249744599 4.663674714936734 0.835599445089522 -1.3110085872634711 -1.9121811002218616 -0.9268112129756811
Ni 1.062158877427435 9.011867097292697 10.197954204675096 0.3858228257063549 0.49057162537967125 0.37427728696060053
Ni 7.424060691183787 3.742989418314522 5.049896652381274 0.438564893295077 -0.055513973906904386 -4.163785870060248
Ni 1.8691868510088467 5.7775164807365815 12.174809205383491 1.108706477224013 1.2775839890564384 0.7897613871768141
Ni 2.2158065055188314 5.528324089930989 5.494857332317828 -0.6835678846371711 1.5611895232620792 -0.0843003020109774
Ni 3.626330003373345 0.15196026307472404 8.284124370800217 1.5030625372123598 0.5902692357823254 1.6756678915183336
Ni 5.815464798664773 5.847024289767477 7.335571217959045 -1.2290315340690319 1.1311434660712907 -0.1677724516937046
Ni 5.930735746102026 7.244122807904995 12.24901059746988 1.6961179318425694 -0.049556213661572715 -0.48111073707708757
Ni 4.0464070940706565 7.580216377689286 2.4373871560707148 1.5456207222895446 -0.5040696598661061 -1.1750609933898473
P 5.669122200058627 1.819005008586623 8.34410053804742 -0.17274136566320575 -0.2749056924387975 1.3715195001643348
P 0.01739899887011713 0.9717396220029831 2.5273786133993634 1.2819558928718888 -0.34121084342393493 -1.2761279733362023
P 2.0203984674159146 0.9648160475577408 6.922039625758272 -0.4151058909411884 0.45130779478304206 -0.013854132274272913
P 5.924112380846822 1.450545135501402 4.865079431610653 0.4569174276603357 1.6500491625089646 -0.5785059245988102
P 3.9966943285078664 6.967874063847264 12.666331392541162 -3.5313513137637833 0.43302519442377035 0.7544583410001459
P 8.524674489547602 4.58920407273303 6.476653024033352 1.9044986439759393 1.3285751353923247 1.8208593725877285
P 8.15345644452891 0.3920647588056465 8.252268423122352 -0.8179033968286687 -1.1478589790537586 -4.119223510068841
P -0.06486676258365733 2.2063968237185905 10.60099536199149 0.10289863383845503 0.7643203213958901 -0.8994693306276186
