# total energy = -340859.95749438135 ev
CRYSTAL
PRIMVEC
9.45026102210062 0.00000000000000 0.00000000000000
0.00000000000000 9.45026102210062 0.00000000000000
0.00000000000000 0.00000000000000 13.83141225287077
PRIMCOORD
 96 1
Ni 2.0160336088145687 0.26376528705280783 10.676369884060174 0.9240724738882795 0.5854059941527532 -0.7977053246142392
Ni 2.5020416265621805 6.896696454538606 0.4810050496252735 -0.016083535825423913 -0.13736607148770535 -0.7729723406439333
Ni 4.192126286552512 3.2809604810152284 1.5515797461357674 0.5518649249725142 1.4438598015999586 -1.564690337326486
Ni 7.502203021411568 5.894193877368542 10.83656598176665 0.8487743753759124 0.2791019899083322 0.15733840084457418
Ni 6.1263867877686895 4.876504730926476 9.126560171791642 1.1326866421886945 0.7685359021391345 -2.0080166565659483
Ni 4.149789117704621 2.466933907305503 9.544421413137686 -0.6630903335091097 -1.595910214572716 0.6120634488392814
Ni 8.576376377274133 1.889428463489751 2.7752033080313847 -0.9899793609937337 0.9587929080886004 2.4020976085160375
Ni -0.11760944197073184 1.9185919686380968 12.839948526309643 1.7278440593012567 -2.1915049763330128 -1.0198049289955986
Ni 3.6445309184964856 6.935574827895798 8.798064377653898 0.6396742685780146 0.21837279034907553 1.91297351421617
Ni 0.2948216794601341 9.596456439724797 4.057901395861164 -0.4358446661504365 -0.96291515778709 0.37703145266697
Ni 1.0901726475722697 0.5074620000508435 6.6118854364535995 -1.261779160813698 -0.6046859254282877 0.690003870070502
Ni 8.561407164002915 7.714210174521741 5.1590609167598975 -0.5391598187010198 -0.1184833756505895 -0.4625471151422873
Ni 2.9715022374676807 5.697930858923679 12.026288622722975 -1.8586095947533088 2.3923191889730346 0.43238910350166826
Ni 5.996360647996788 5.247276267216237 4.572443531380945 1.056358559749916 -0.5319545592018323 0.824141921539213
Ni 0.15744607178354356 6.798432641663526 1.1403629832310074 1.0990404148891588 -0.01979389479747559 -1.0082622184633214
Ni 2.2884373793593094 3.7616858029177567 10.311303470277887 1.7064861624507706 0.9667995804431607 1.1754420308783498
Ni 4.357940564366147 5.078315052521721 10.442204704209457 0.10532292700923152 -0.18471242198215285 -0.6211420141017818
Ni 0.5819999879014794 6.383622889563237 11.754182535396694 -0.4824783068485756 0.4415890248333814 0.8477626462819463
Ni 6.345320982121161 8.201579029839461 12.115265664208138 1.0880610330595197 -0.3827565280762053 1.3810449231562667
Ni 8.443052096446893 3.1395751276372628 9.026628387867085 -1.0279388709566426 0.7075287663281428 -2.9445178431358836
Ni 9.21101809851273 7.332533037149288 9.361196919661447 -0.5002009209393192 -0.5454453945994154 0.6890852149109745
Ni 1.427858820438712 8.942299929720374 13.418129663779998 -0.962191392247188 -0.20975239566991616 -0.24172689169398373
Ni 5.123496749901579 9.441387108558494 10.699966240510241 -0.56692490462943 1.8678719938918413 -0.17722922623123025
Ni 4.837191645567722 6.563697611080323 13.745670981566482 -0.7726859197517661 0.6340618074872435 0.5596710512804942
P 8.497495049512228 8.152740081489933 13.62334585940488 0.5604665505985961 1.1602671229101245 -0.9334857967823793
P 6.982637127195462 9.547882098680564 3.312678391685803 2.5557151088655985 -3.6998837835519636 -1.3653293121932228
P 8.982236732298762 5.308258800826826 8.533635682285661 0.6807335005121695 0.2765763952730011 0.6967756415766968
P 4.681725403443471 0.8558071221903963 6.020218776673882 0.3058671738173184 -0.05350157146256592 0.8195936400468982
P 7.518854381123618 8.784130912977709 10.035920032470257 -0.5551934751251147 -0.6054783394225959 -0.24154048671479048
P 3.6482070699879654 4.353470590958769 5.765098588295639 -1.6462233610049715 1.5617672501424198 1.5004582668202933
P 8.728913038518284 1.698599345064428 7.095666972732335 1.23417065506781 -1.3204041695457582 0.9860684559751018
P 6.192434661223579 5.95768073011857 6.924004873471586 -3.5372414539959722 1.5265102267123387 0.10990437573232685
Ni 3.429414629549047 1.3206739612706828 0.2843668558225402 0.4560129135681953 -0.7580144337825203 -0.7777047131225961
Ni 1.9832695542619718 3.350675055700694 1.0219077429094081 -0.21821929549034674 0.7284752866728228 -2.095228990017398
Ni 1.6033218146348678 9.096934548885113 2.10923491692362 -0.02365414908383023 -0.05455855197217055 -0.2551789034338315
Ni 3.8384786230199794 3.925921887160499 12.830529451267076 -0.10318042674493197 -3.3289849261452926 1.5329277002029082
Ni 0.16400171777233405 4.450477519133678 10.42939676560688 -0.6627753733718521 0.8034324569060034 0.4752028562330849
Ni 4.058631901029008 8.23564722039675 1.9950700950522307 0.4984818813656835 -0.08986545480358071 -0.8149751674382804
Ni 8.089536736567009 1.5361777109151669 10.467474701865541 -1.3497129458122046 -0.8325337451473339 2.3271383814003275
Ni 4.914315224801568 9.23563602816647 8.327035968464498 -2.715911033763626 -0.725608506647989 -0.1413296841211437
Ni 1.2791778656432082 3.94175107417394 12.546875145116662 0.2521372883940303 0.20715223904290775 -0.21080937617952084
Ni 8.630828780600371 2.978363126883656 0.8025038705900303 -0.7643714863487997 1.1626505355406365 0.5363046086404119
Ni 5.245310612948299 3.0571405017756232 5.827630019668319 0.3814835749010526 -1.2845586206020587 0.3238065319045585
Ni 5.7486882102366295 7.204652106602491 10.10517437944972 -0.5312264227865561 0.3011371153315007 -1.1552311031481137
Ni 1.3774889298228068 2.342124311552359 8.814607059365557 -0.8906535321082015 -1.2060522995650391 -0.18468593961959162
Ni 3.606493618359709 4.366615903875602 8.271627198734823 0.1465027436816509 1.0748717880627554 -1.104011642851505
Ni 6.712274613005888 -0.12246782110124531 5.478636609630783 -0.15396717037949612 0.39831041665040434 0.12829753352753387
Ni 1.668037201302357 8.30487038151523 8.338861079933109 -0.06767734874231571 -2.271077790961334 1.0644513640603797
Ni 3.465939887941256 8.293312712430192 12.273275916567624 0.8427839621204325 0.7016530242736561 0.26830129974840244
Ni 0.4097292918385419 4.332869022189037 2.48416267795876 -0.9371521898903732 0.9839249272695377 0.47392861750635157
Ni 6.178741233174339 5.216534568496999 1.3025984472404684 -1.9239960905789188 -0.6380285054444753 0.32278837505268926
Ni 3.9722281655878784 4.281648608091812 3.6426540966810412 0.41753764031113255 -0.9259738046760505 -0.7211381295814613
Ni 6.987437859734464 7.966163580471204 7.913725027743514 0.4158954767220192 -0.7190907601341292 -0.23304453342863732
Ni 5.680684132774706 0.9687462452225952 1.7636436008113605 -0.953835564083325 -0.7578444838635593 -1.5856448280909659
Ni 4.14115157923878 0.10072655086654525 3.9972089852603148 0.3484842371568966 -1.0855760618541368 0.8216487228037139
Ni 9.196587550113016 0.33409696377527515 8.780097541624075 -0.22201887174209503 -0.2524944146231329 -0.4566564606894652
P 7.320380001627326 4.076738600920204 2.7329351260880905 0.7943590338498255 -0.48600663171680814 0.6832539529411781
P 5.411389498067233 5.196736271904068 12.297591437872452 2.246872140249408 0.05981825770921311 -0.9056564332749371
P 1.1848737120867132 1.3189256630035264 0.7088876960273136 -0.06248423457715045 0.3762341535766553 0.5816208160787081
P 0.1291236398556134 7.016053249750405 3.3527068617949563 -0.18118461133455246 -0.024581803104422182 0.601667450316938
P 2.2733075116527304 7.344893978411126 10.753259096823612 -0.558738769274212 0.1996055370439014 -1.6876487180292934
P 4.995351212049483 8.78203295505712 0.023087932413455494 -1.4349876959213093 1.9709755446522508 -0.7502473882425917
P 7.340178298220256 2.08688221480846 12.607470218030207 -1.4203786877588829 -0.4053027888078375 0.24488420637604275
P 1.9695950267345392 7.636689684329944 5.0321306824599965 -0.04054552552253017 0.3810495726874276 0.5856031977652237
Ni 6.6829977047267 0.912074920636205 7.85379430817149 1.838011458886983 2.263468354045192 -0.21167609505519028
Ni 5.73043975643188 3.0035008208870906 11.579159923358645 -0.5937823911419065 -0.518191701089785 -1.7580856317946174
Ni 1.9106537494791171 5.082766125407292 4.5024567891814575 -1.245777643179119 -0.06509056185174596 1.2188137129957655
Ni 2.904887348358579 6.5624785274237665 6.77206641374263 -0.5399098094931669 -1.1714879313266082 -1.464665168381084
Ni 2.7434012900387685 2.5242686402073224 7.017754296713043 1.5757705064000473 -0.6336002944697927 -1.5808376365103096
Ni 2.1031461138234646 1.348533330414339 4.850482492502469 1.5025084644811026 0.9187541469991596 -0.11949150520012967
Ni 4.888695567492053 7.914499004111513 6.244453622367153 0.7902226430839489 -0.22240967942261047 0.43908579879555354
Ni 2.2768324589697535 6.851543107941459 2.816836432441961 -3.381769416936176 0.6244587371798407 1.2016978792510853
Ni 9.400127269453607 8.996960238786489 11.396723581641762 -1.4599723908911049 -0.7267032823740646 0.5506045702028518
Ni 6.299525017782573 1.8271512441353766 3.813680193382982 -1.37610891930723 4.5652800837552725 2.2169714960352334
Ni 8.063661922213099 5.478845460396752 6.662314863713197 0.6842862508604345 -0.5488040266590032 0.9209323855974011
Ni 6.509443663233061 8.010305749151673 1.1576862564932993 1.376362687189249 -0.2709572493140108 0.9019746135479756
Ni 7.637417354419519 4.304433187130264 12.576128427743594 -0.17546287835942687 -2.057528133032515 -0.9201865085703119
Ni 8.525269366307752 5.168546143628787 4.604546067670294 1.079056258457748 -0.7545629848988101 -2.5427045555385432
Ni 0.44744717315677834 6.877106063685554 6.861473442098906 0.8047802291831494 -0.026685736821302427 0.1856894411834415
Ni 7.648219002632271 3.0580477268223634 6.101091274408166 -0.18275041315977558 1.1613212752062514 -1.3403153066473885
Ni 0.7558441524048577 4.03332410232931 6.840670582771929 -0.4205494305542628 -0.05598731399889712 -0.2526368537382681
Ni 6.126925452640191 3.026861865840659 0.2748561132492105 -0.06279173851524024 -0.570131841602502 -0.037392324605529145
Ni 1.4416467510969868 2.115355850910847 2.8226181020627505 0.5339011414052418 -0.8416143672923634 0.07041814471224646
Ni 7.42366190304219 6.349828756572153 13.402016023913358 0.30112400270537815 0.6629820900660195 0.3503891674890933
Ni 6.036675461011319 7.492525954246337 3.554825261895657 -0.2624782653087222 1.0091430784063782 0.4271736207389998
Ni 7.763861845308976 6.32405789508818 2.444328883224219 0.4833164864791547 -0.47438601675874426 1.1315638414381608
Ni 3.952798429170186 6.563470804818639 4.455056170541447 -0.027750687750707048 0.4868334984934777 0.24430262284095994
Ni 8.195426909991253 0.34217032166517525 1.2063919561640897 0.3074342611941222 -0.4340019565147429 -0.8202058197096004
P 2.6599932873040633 0.5459434624500865 8.182829712206825 1.8142768342742044 2.3825052882064064 0.38562742186609716
P 9.286194924000446 4.879339809197542 -0.06524932640853974 0.9556152816915673 1.2911835821177442 1.2623800276224904
P 0.5317850815643925 3.196295593580351 4.574117172586964 0.17165250347440117 0.4878488271318695 0.04514368641617387
P 0.798736051567786 2.2317452641989313 10.961117585397128 0.2527908628176292 0.0063987044374922055 -0.8768911882167866
P 3.913390841202396 5.983413790558928 2.0400779076314635 2.5081095911724938 -1.7189655258647043 -0.7404967366137312
P 6.164858799907029 2.7828277785283664 9.123074915570413 0.8490425414356346 -1.1733671506271919 0.3359025438371441
P 3.629438851833521 1.4187865699713067 11.786714113531065 0.7587453984112739 0.001462957698771674 0.09631738107651155
P 4.026510464217853 1.920170162208989 3.015413819782102 -0.8432968972011089 0.2748856378341395 0.7730900971687201
