# total energy = -381170.9050015997 ev
CRYSTAL
PRIMVEC
9.22432743225644 0.00000000000000 0.00000000000000
0.00000000000000 9.22432743225644 0.00000000000000
0.00000000000000 0.00000000000000 13.50073560640899
PRIMCOORD
 96 1
Ni 8.897076164540541 6.982889815138163 1.9110021115024016 -0.6515414523292457 -1.6395462060951116 -1.991252549733732
Ni 4.753923285154351 4.432501588674935 11.08333498000204 -0.7753382697729486 -0.268814234829079 0.10128372394285137
Ni 7.113746126983679 3.2479687796145926 6.673777983889105 -1.3385738984762496 1.311853708872586 1.1981672403900074
Ni 6.546385407070939 7.008736381174476 1.4141078752672502 0.7512061526114353 -0.6662941851583879 0.3616752819258739
Ni 1.3405346380418288 8.033513059905447 8.080014740384483 -0.20454565465799612 -0.3114127862258959 1.2080171366008938
Ni 0.9748361689092007 5.202290178561581 2.788590806308166 -0.3912347407505456 -0.1551377936488296 -0.15466625332904976
Ni 0.42778926331664985 9.044314882267747 1.1708051646723199 0.15383964366269634 0.525061945847057 -0.5506243676971937
Ni 8.753075185813604 0.26018968719831315 10.071022212772949 1.2205294101352915 0.45694442424352916 -0.13385008791464692
Ni 7.547003571723 1.447970382019322 5.562411619205431 0.7827795565423422 -1.207513457491598 0.12867959945730095
Ni 3.5597602780419337 5.154369796492115 13.205933943148617 0.4523827730147757 -0.2823071271091912 -1.4320895484379077
Ni 2.8297746619049993 9.040477561971134 1.2700543178727868 -2.067667535459362 -0.6198101826642357 -1.3232017868955535
Ni 8.734930933353423 5.082881257312448 6.9046140156838645 0.20262632614809617 1.0045891404871086 -0.720307920370682
Ni 6.389857791414196 1.7178926573064695 3.5655042668609247 -0.5723658731393433 -1.2004568077551325 -1.577812733641057
Ni 7.817119557890505 6.033153041726751 9.78292985690824 0.12146534109704887 -0.215138599682494 0.14513028881415652
Ni 3.3001415767242945 7.89391208546092 3.3049123989776783 -1.181210557931011 0.5692365834817422 -0.25908158092234734
Ni 6.482737546381946 5.698798837901545 7.898591586870707 0.42724175497277384 -0.8210478559949215 0.05649047888756077
Ni 3.305464013770316 2.0802703684901065 10.837242832729956 -0.5028139330821341 -0.51534626122119 -0.5837116371694657
Ni 8.595385304874714 0.7444936386429708 3.4263515947395136 0.5366511933465532 1.0306135895753281 -0.5478007822054695
Ni 0.8629552214438776 8.07618479954998 3.366070613637692 -0.6392904028760344 -1.776108293624283 0.5044041603873893
Ni 6.519339678441935 8.996523640785183 10.495080235560803 -0.12788332880825073 -0.19234936970212035 0.0721361558446177
Ni 7.678846886625577 5.5842695859719 13.103543906388062 1.2093625948851945 0.8649098474851943 0.23587326112668408
Ni 5.562804575562729 6.85888717872626 9.818855845752504 -0.390387819369218 0.012228423745391844 -0.40177780637371446
Ni 0.8958417943320514 6.8489064562240145 12.830383892100649 -0.8081208635206082 -0.727921728162198 0.6586196993322657
Ni 6.484462495649894 5.236383293504555 5.482433008869512 0.015014471130961238 0.08333588121517906 -0.38171780239904585
P 5.629570258992718 8.673367770710184 7.747464815044894 0.016408780375326577 -0.21890526581377784 0.17410482166963565
Ni 2.226392942573344 6.076396689684723 6.787292559778779 -0.9102759343248193 0.2230740524794868 1.2360218493439359
P 0.377632904228196 4.4877091895769095 0.4609876184789232 1.8613359925455364 0.9645778902014935 -0.952311928349947
Ni 7.403131733582967 7.685792805335549 6.205087129401286 0.13152915309095414 -0.6735614082437626 -0.8957857111284443
P 4.04219261340923 0.768376345325561 3.676466471293694 0.7380621590303095 0.69416674319894 0.07180525486776021
P 7.734257422735545 2.404772990399975 10.647922732326927 0.32564589910614244 -0.9628575650762773 -0.4969921841940344
P 3.2077599354488937 5.71910158302857 2.8606982978722137 1.1173332996610756 -0.9429495132984407 1.7361188977155393
Ni 3.39642510858976 8.413278628683104 6.966366277043642 1.75029724609845 1.0218340436104854 0.7441312480425248
Ni 5.316920898095221 3.839912332677501 2.999323338452841 0.24927205103109323 1.3362107975607118 -0.41441117886700884
Ni 0.14468265653924473 4.697913167748037 11.215978966543428 0.7323365694004419 1.06601536611339 0.18494536392856536
Ni 5.552814628732848 1.999206977224183 11.551459460773001 1.5648014089830535 -0.7052363707495403 -0.4736673934251649
Ni 0.19003498579482495 7.265781495081647 10.759357222334666 -0.7532460658595996 1.1762329022107614 -0.22804810865531047
Ni 1.9680379741418483 3.5373912835244257 12.25568429712064 0.9479063430830836 1.0081884278025925 2.03336490552275
Ni 4.424448750648632 6.878396631676581 0.9433867462667292 -0.20290657639267637 1.1494119253631754 -0.01493888069801943
Ni 7.983203576978233 7.789917015691688 8.406287510767715 -0.12922261644496455 1.0549709353737702 0.31570241474018534
Ni 2.4817315558678397 4.157902579276292 1.4734027757447747 -0.49123856953970885 -0.6660967244356012 -0.41527712641173
Ni 3.7107901944275694 5.193794572808747 5.330967704219453 1.555888679874456 1.5344243393530927 -3.3240247539265395
Ni 7.098073994329969 4.4177057671466535 11.139214111955921 -0.9769227849200917 -0.8685204476545881 0.28262234435676487
Ni 1.371039489534365 9.188657161117218 11.831019313574332 0.2933806113145334 0.6164150409397577 -0.28348186414358273
Ni 4.579675736108687 1.5230195116665173 7.046898347037727 -0.16628352585300393 0.12432312226081815 -2.371016827950833
Ni 3.2176853119853224 3.036178217090059 3.6728348535033666 -2.402155458337166 0.7501460867780372 -1.1594361423683965
Ni 7.690275828566687 3.7311944071585916 4.133183226077109 -0.014017911545646826 -0.47498122714058194 0.5781074036088107
Ni 7.996412814153108 1.5646212293052648 8.184834465044382 -0.46464487821158046 0.021099243872460437 0.22749455014468561
Ni 9.298860203385539 0.0609386756622747 6.738770751547439 -1.969854029453298 -0.25083708152536804 -1.1541268143403414
Ni 5.142682573377194 6.847891780184044 6.396148782862007 -1.4524912520227116 0.8465061481670259 0.8863723882343445
Ni 4.922627013290727 9.262424109222998 1.672552319676816 1.7566815523582393 0.2708446349955465 1.0280584272536424
Ni 6.030828511162459 2.4945072496438185 1.0924039143621707 1.2329182707179476 -2.820717169037439 0.9804917332182728
Ni 5.743057161899484 4.656154636539476 0.7564907991664642 -0.2036971906147718 2.6264826664974636 -0.2212657956261544
Ni 7.251031795191546 9.197503291320224 1.470391955204356 0.4421492682122256 1.2396928704376198 -1.1658533587486501
Ni 7.551910914025397 8.10505694505093 3.469553733223122 -1.8690567582285615 -1.8298224953182873 1.641505643814328
Ni 1.8303741085009015 0.7251336198003536 3.1507609701199915 1.0353919848005781 2.643644522988731 0.21814987570499203
Ni 5.160919069113736 6.936805074268277 3.9292942226056464 0.9241321234816213 -0.308847596601881 0.49825896672159997
P 6.66025973173842 5.625502330505205 3.3239218933701244 1.1737314759451465 -0.4389626429541279 -1.3297120772102453
Ni 8.278501977592253 3.004898522076091 12.968037610981197 -0.27415930119107623 0.5113638795346742 -0.4651989509428375
P 0.5709240776785593 1.4426294963180282 5.115145188085186 -0.27728987640025793 -0.12747169519212884 -1.1601910182565502
Ni 5.6452700646293374 8.729460907065222 12.79343215802325 0.25845346042004524 0.5447823070941199 1.5946202921166988
P 2.3552106780112845 0.3592847941272574 9.607271908167018 -0.3015724030967064 -0.12402693117663802 0.38013220307948087
P 0.18215556512808034 6.970658356692713 6.231291599349879 0.9427044871671701 0.5939423137585383 0.030567331263895745
P 4.766357678807794 3.180944815010792 13.105083446670527 -2.418085242193545 0.4517531098505768 -1.0212869128577635
Ni 5.572250287062081 6.416986538991925 12.125740271278334 0.21171389027166115 0.05595157566495525 0.49989187433933263
Ni 1.4290051643995292 4.6312674005773165 4.9697153610074185 -0.9082103100450424 -0.4500474400133797 0.23682868306141794
Ni 8.447399416608986 3.935753096816434 8.854147066154962 -0.3795408493523851 -0.9838010000971638 0.9575778047345768
Ni 1.1457168383676932 5.904335306288811 9.211795464559577 -0.0722971069025142 -0.7565954419478066 -0.8143200503527847
Ni 1.5447981492153162 3.747512242746828 8.274236648493327 0.3638126399838509 0.8426875457518842 2.348415031390917
Ni 2.911825056227984 3.55866258305324 6.479988696746393 -0.09609189532926678 -1.7058295027033783 0.7069584956469696
Ni 7.975851787852273 4.3819153759186396 1.8058715270011665 -0.8509024774625088 -0.13469829484755513 0.48426908020041115
Ni 2.8351247719339288 6.166730530224913 10.872628275974744 0.2029708539717085 1.4894200067282606 2.448744876060931
Ni 8.717220224292138 6.048539220223743 4.2689192072421145 -0.6333251864315351 0.49431180914839384 0.7996141116011777
Ni 3.6010206955581463 1.001245418931315 12.90625767663851 -0.004519485136908345 1.357357863951972 1.1804433407476833
Ni 3.367903487538982 7.504442524010099 9.19815914101515 0.1422146578292583 1.361972737016164 -1.0325480875938797
Ni 0.8417770876241878 2.5130665968476236 10.673182631125586 -1.329185515282814 -1.6565363128952049 -1.4804555984461214
Ni 2.695671386731582 1.5042295562718102 5.399821775426253 0.5549829017762056 -1.1985220526262648 -0.395662437504596
Ni 0.3959478067496447 2.8228564161779346 3.0842434211034115 0.9106741982045027 0.3507709763085443 -0.34297102064815127
Ni 1.1495080370261246 2.1017169302440064 0.5253392953665498 -0.034442497948585844 -0.27927579648203515 0.5942341339673443
Ni 4.952347796934196 1.205250648930992 9.094608683837977 0.9784597903899084 -2.287464202739157 2.9868901374545076
Ni 4.9193616013075525 2.7405108433705956 4.971564838698454 1.3546656618317896 -0.11353605894764317 2.555867318172747
Ni 8.011946581892277 0.6840327831522454 12.418476153675048 0.19814617888955552 -0.47088725957686645 0.004623614814940424
Ni 0.40582337191683837 2.933271617981884 6.638257865460829 -1.3908117727350433 -0.742186208501012 -1.4447635443611504
Ni 4.021880643954569 8.90544262970647 11.212590871002694 -0.6341052591306693 -1.396033426145299 -2.196265888056766
Ni 2.1977145079527527 6.569178720659707 1.2359473664383587 -1.5780140510185856 1.475652263520207 -0.05166528958477553
Ni 5.721333870316502 9.016863283222753 5.533803289474874 -1.2051737536148277 1.3167169505021583 -1.210604951932728
Ni 3.945521659783049 5.289543093671318 8.35174406145554 0.035940936870983264 1.0849284009678088 0.6911521247423322
Ni 3.7679718014436667 3.0441572604952727 8.744345282138811 -1.0359473430834159 -0.009929343298569995 -0.3265193028500312
Ni 5.978877097916022 3.5363766074844563 9.138229606796264 1.0516526696338147 -0.23088609232473783 -0.48150977228771913
P 2.6758390823139964 4.2581064503870945 10.28527936050737 -1.2585650247517743 -1.9025430629114655 -1.3198809500524364
Ni 3.617024904006756 2.2304793197161303 1.3946528458499814 0.5456703661260279 -0.8514490939945982 0.35463662991153766
P 2.8370987780480514 7.801143022424804 12.836918405798052 0.7786156549726397 0.06459742426541133 0.21559599893488673
Ni 1.7908847618908175 1.1828724300858473 7.524973110029736 1.6935517137772897 0.6544259729658923 2.07454729329833
P 4.974624548175344 4.2136267425258875 6.818047390550252 1.4564821183496595 -0.8112537527226351 0.4466594973777533
P 8.141456141902925 1.9874644081434456 1.4378282337834454 1.2793603642305709 -0.6587785935076332 0.5411727353659905
P 7.5311469525165675 7.747236051719518 12.529209594782442 0.39252851986130466 -0.5722152064940919 -0.14915946457820764
Ni 1.916160355516501 7.9993922719795645 5.409245348539279 -0.7356751468553717 0.3477964670612526 -0.7899267091100847
