# total energy = -381176.9978999759 ev
CRYSTAL
PRIMVEC
9.13771565195043 0.00000000000000 0.00000000000000

0.00000000000000 9.13771565195043 0.00000000000000

0.00000000000000 0.00000000000000 13.37397051108627

PRIMCOORD
 96 1
Ni 3.2183217149860184 4.137438840107024 2.8547009424375243 0.8597468152270162 -0.2452747569462421 1.1418166295144208
Ni 5.48949179334463 8.567275442174054 7.672526777054765 -0.3964311973498205 -1.4243914084627016 -0.7080707548745417
Ni 4.906094339913695 4.914692930307281 0.6861236523732266 0.06970903446036382 1.139559458049128 0.4296531926277439
Ni 0.7726779222203329 2.3803109536625366 10.243485201762683 1.7419915544462323 0.9162882019571703 0.5017111869362585
Ni 4.4831186218172965 0.5680177642795594 9.34364408773123 0.12949412493879633 1.1657764827641277 -0.5518294437488883
Ni 8.619954372693739 6.569807359627436 1.8292116698438965 0.24735580784498692 -0.15994858477391163 -0.27187898979733177
Ni 7.219928412478103 1.4564787672842614 3.2163196414948017 -0.8812363525593597 -0.1978214485602851 -0.7077786775554198
Ni 3.9808823584775745 7.010766102053886 9.530143949659024 0.5806607661582839 0.062074400733241476 0.6568137564717785
Ni 3.0899824991752656 5.28362819825738 4.95670083653193 -1.194417286429272 0.12563721308655137 0.6660188200098143
Ni 5.748619132750918 6.474829943526549 11.996558683788855 0.33468049850458487 -1.1901019468833696 1.7917058909522239
Ni 3.1040545812221554 0.4050676230343899 1.645840561742631 0.6231194495431268 1.2991437175050853 0.5985433028656595
Ni 7.184273046148906 3.7306003277864743 7.481934132303072 -0.7173123280774678 -0.9061711681278264 -0.278577741973746
Ni 7.875212274651166 7.722155538102209 12.91517597586573 -0.4880892252774498 -1.0501267199075914 -0.5214541738911406
Ni 0.8153090206499154 5.983769106383805 12.551458343531717 -0.17156971395260776 0.4709147703806922 -1.1250252689886948
Ni 0.20021191797945823 3.477960766466739 6.386820035581995 -2.133452295164655 -0.2055782096875685 -1.2048572508156734
Ni 2.720846201481641 8.487969208352657 8.295619380888228 -1.1718352873636981 -0.02071769216332561 -0.13915555928796033
Ni 2.3235383265473923 3.498392698581573 0.918795477531363 -0.5211903787067927 -0.7479261963085828 0.37664501586182875
Ni 7.656236057656586 4.78992656130194 11.918709001836469 0.22675432954455144 0.7832819501000574 -0.9309257493646872
Ni 4.879832545236578 4.659266365725012 6.3558322143888715 0.8750988722030542 0.3177929787206269 0.44830166096686663
Ni 1.5986433468203016 1.4548522539048157 5.692844344180918 -1.730594111242568 0.25130502230072205 -0.6826384308443663
Ni 1.2699414407224456 3.904536744515393 4.437483042493547 0.1132691784395017 0.6071269307696124 -0.5258073086535139
Ni 8.146273470650465 0.9562071128017356 10.24749757268917 -2.6601317220104765 0.6977151226718307 1.2640676997375586
Ni 8.557434122456845 6.603571218824356 10.564768196552832 -0.45450007646809465 0.7310379051936764 -1.0842041212072746
Ni 6.129369466991034 6.287186953375335 9.787124839667383 1.9145442011373994 0.444961283739724 -0.5787702340037904
P 5.426341040730311 -0.03208982969627628 1.0082244727109055 -0.4153254631511621 0.49986487775613914 0.5957037765343354
Ni 8.66824719971829 2.3791413260638348 12.416501594072681 -0.3992105598671706 -0.10487246973537423 -1.8008345927263696
P 2.8581769294574184 7.630284945310375 11.870816406755846 -0.1193236121636977 -0.5833714802212276 0.37395229952101405
Ni 4.960326682087907 4.816371110291354 8.699098868948754 0.26063632700397693 0.7632204034634921 -1.2752684535493843
P 3.106201944391648 0.2861338579060161 4.401453943595703 0.5603027713272221 0.6022837437446983 -1.0967097098734533
P 6.223314321227443 2.0973707273639155 8.710319983723805 -0.24326055472969074 -0.496129836193739 0.3049459475546296
P 5.161310737036821 4.077760419426354 4.32821789425726 -0.26912456698064624 -0.6554184187861486 -1.1918685518654892
Ni 6.138406667734134 6.973429396051555 1.2795470073767898 0.9615763843710086 -0.1986282607322966 0.7374566642358268
Ni 6.701929589702742 5.490305050034354 3.4809908329646273 -1.6543133371019574 0.6183168859481609 -0.8030822726554363
Ni 0.7924135604053144 8.319679899873723 11.799399676596323 0.3111420490630125 0.49830910323324507 0.19240901929546217
Ni 7.484903889877903 3.4502734881537034 10.010497211644271 0.6044835796094944 -0.8392384108610191 -0.605242569262706
Ni 1.4644742684472665 8.16601093637857 0.7516237116721268 -0.19514441594875423 -0.75239528782353 0.07517777088441892
Ni 7.323376490953968 0.8030553440103839 7.196867559580872 -1.1399312395662495 1.1421143632604975 0.23887990916349183
Ni 3.311572102835696 2.9044320458998554 5.279227474417262 1.0682625102763539 0.43107578400688334 -0.13947746140375336
Ni 1.9266964751095024 2.160941814896518 2.818724842290247 0.4209932029599008 -0.9952848323670472 0.5053683240728716
Ni 0.5502348559214743 6.840402532130378 4.2475729850982855 0.13528013549295412 -0.9868649837344681 -0.39779439624593427
Ni 1.6290171135241065 1.6844373587282515 13.093237157423196 0.46818323038214205 -2.3043357816835157 0.25761476656883375
Ni 7.980524447112464 5.51955487771753 5.34601777916098 0.7764793253559272 -0.8453370675595893 0.7089996944467144
Ni 0.016643435220911672 4.225955891268203 0.46034531987494287 0.276686181377988 0.9190251412723592 0.5828204928137641
Ni 5.372227488859092 2.080977665550851 6.15631933165395 1.7608698794079738 1.341438107397922 0.09144976857156509
Ni 4.824485401757352 8.498495856740979 11.461880788701684 -0.6595504386766512 -0.20166653333798815 -0.12737116505852258
Ni 3.604426750576444 2.5761230615734387 10.731581763959964 0.7395649688280811 0.9488864476081657 -0.3001433839596637
Ni 8.603753202908587 4.438270713579548 2.994793088072114 0.976033697446919 -1.0194449745530185 -0.5030088227017595
Ni 4.8924700059319335 8.380582774446786 3.0753310859583944 0.5354219489251424 0.6893256130565548 -0.7566396649221807
Ni 5.403049003628025 4.168315181169647 10.814205902321119 0.248799739380365 -0.2077055404432165 1.4953281446825795
Ni 4.302520810405142 6.1168416588830565 2.9718437153053854 1.4402201479648422 -0.7590680718580153 -0.5294125095062688
Ni 0.4109550532050462 -0.10357235140822744 7.307042824292401 0.1586890013351977 0.6374685191759473 -0.6720652833142103
Ni 2.6165026268755187 7.589183500474721 2.9016834210429048 -1.34956382182885 -0.5099646851943024 0.32371320085980376
Ni 7.219169982082069 7.865900942439621 3.575022495499376 0.1222659826214733 -0.37014295307725287 0.49408838028367813
Ni 7.65932460553441 8.295821324403315 8.752260270852904 -0.21077080963210154 -1.4345832613940388 -0.14645106450810907
Ni 6.498679381281342 3.1217726117993747 13.036826383846401 -1.4810886040444298 0.21629096811938237 -0.20682339494857926
Ni 7.269454831110661 3.206470097833541 4.87562828228218 -0.376781541439693 0.24326441138443267 0.07789028471957553
P 5.817745951377358 6.92678135783768 6.198420442577871 0.2177115026159928 -0.26635240355214773 0.27113774075593305
Ni 8.159514020576403 0.7141280094180976 5.103841815991824 1.486073458853531 0.9611089578162868 -8.767461779984901e-05
P 0.3857906981732747 4.658105875841924 10.681361792712238 0.6607411165506427 -0.9872082260064999 0.7623164035919839
Ni 4.820894279520711 1.6161420722227644 3.7130422072325144 -0.7561141314360139 1.099476988205945 -0.3481669630267939
P 6.9115853367701625 8.043931055763998 10.779660768439129 -0.19258051187631994 1.3389860463130037 0.9195511889791583
P 4.1088560656637325 3.42711851678564 12.766042974401794 0.09299731556434306 -0.6285663315903111 -0.8472754222328828
P 1.035230077439072 5.508214972639485 6.319094028759315 0.42777782998190195 0.4881481035398432 -0.4900944286329366
Ni 3.4675894592438694 5.311260650276726 11.666716390782264 0.5598003777695069 2.0618488718950556 0.6417666323306689
Ni 3.9806265024403586 7.553509858714295 0.5761951059833004 -0.546808079274897 -0.08220793825832294 -1.1891020448639456
Ni 0.2931507097266695 4.617726310539845 8.532459831909863 -0.735985736117255 -0.9364705904423163 0.6511892111961495
Ni 3.984034870364703 1.15952128523244 12.864261538231274 0.8717494961148469 0.123730997202774 0.18591132738626046
Ni 4.13673523600468 2.8596024130933366 8.092643303935272 0.04770861892987267 -2.094391581717767 0.3471138391719312
Ni 1.942413345967067 3.6704010573157557 12.10253425440379 -1.719158872822433 0.9056865151819241 -1.7714641099840522
Ni 0.7376165074061032 9.064367171622607 3.1758368200062734 -0.46245095588405516 0.5224538188002487 0.4213457012033131
Ni 3.1759775408267426 6.347331397552364 7.425121299239223 -0.45660478151592326 -0.9770757655581882 -0.6226605076288373
Ni 5.848220232952927 1.351714857759856 11.055271633043068 0.8560061172376612 1.847114963850148 -0.4693535965411594
Ni 7.83893554366016 7.812490994670745 5.800558822077361 0.16460433837836813 -1.0716098294820318 1.825757066999662
Ni 7.3569027695449005 5.996552770528999 7.585890267767124 -0.777158867921455 0.8103633796978816 0.7745995918347112
Ni 4.443095427424195 2.6837470760852966 1.448253909459323 0.029578742098381315 -1.8736469487024054 -0.1877920893487411
Ni 3.6286142838089868 0.7666863220916673 6.6437872190169305 -0.3542576493055641 -0.6535512836704229 0.23569199835381344
Ni 6.499867284311275 3.3903300737202016 2.0951795031594713 0.6894125163434062 0.9708999757647794 0.5574321346476465
Ni 1.9414447481118913 8.208830271749818 5.648750297481395 -1.2958902435647939 -0.795015693597218 0.8543546976771673
Ni 2.1642405302334837 3.7705138695921963 7.374273566928756 1.1020570902282956 0.09280936792325306 -0.2634861377479462
Ni 2.861146687032249 4.6031242409872934 9.550780566603631 -0.5932468303534105 -1.1567357127180982 -0.9181404246745608
Ni 5.803043366953043 0.024013916635860263 5.169240446647399 0.16167868009114092 -0.9972887501709534 0.5320440335918449
Ni 6.877830615288857 0.8865594443852489 13.154703829049696 -0.33492269642237804 -0.30408539932654727 -0.28025950055154314
Ni 2.5003713991262235 5.7399291652011835 0.6835586956001346 0.31220442888925587 0.8367518969937395 0.06811032251467625
Ni 2.6402424120429333 0.6096619894227365 10.80483060610027 -1.4579021386256377 -1.7137235607394743 0.31441686315954237
Ni 8.887141177272337 2.1844166063111015 1.412879984771065 -0.13885653999030279 -0.9736435999481876 1.4381532381334845
Ni 0.6070157069806721 8.833374858594484 9.620445596679787 2.2066724281020704 -0.8797559113590914 -1.204005187228023
Ni 0.49115221429889233 6.799291949579108 8.006260823141726 0.31775621194542053 1.1416232825566919 -0.6217824758992582
Ni 3.9434177244566357 7.300130142429756 5.089597944891376 1.9477463989209807 1.3292685619149236 0.4841389823804501
P 9.178926712286145 2.1992197056071796 3.891397623232782 -0.19054805482732345 0.035364495542222964 -0.22703766511292514
Ni 1.7647213281204386 6.487942565433879 10.09848427529979 -0.3036693948350512 1.1619828200496505 0.7330235681651376
P 2.1568298428698296 1.4556837860257683 8.626130554677825 0.03699226095363307 0.4669560428432603 -0.04569904469901162
Ni -0.15481848811950277 2.1125941615782775 8.105709323492965 0.8350958494475553 -0.5262881049446743 0.6376857773930759
P 1.4722321890042855 5.43776318524889 2.472124892617559 -1.0523386399572456 0.3600673140088057 1.2597071087760177
P 9.029762642589121 0.36643427518631017 0.06149865363115173 0.3172039389863763 0.8781127193287135 -0.16096237075040665
P 7.171196975104038 5.1160607693120195 0.5498611233528264 -0.5713482305081063 0.7468193363976493 1.6787151629850896
Ni 7.813276838213624 8.981104306939974 1.7495024627638842 0.09010790983168997 -0.41294565006507594 -1.0147020605513943
