# total energy = -381168.0835386504 ev
CRYSTAL
PRIMVEC
9.31083191317103 0.00000000000000 0.00000000000000
0.00000000000000 9.31083191317103 0.00000000000000
0.00000000000000 0.00000000000000 13.62734365823718
PRIMCOORD
 96 1
Ni 4.655136527628 2.506578314177373 6.182166930097853 0.4434744147815523 -0.9656459264546917 -1.305343932778526
Ni 4.585789453087981 3.2979990091158298 8.496580850878805 -0.18307900014378792 -0.4261935162139176 0.47255153465316685
Ni 8.76302892178532 1.7984616305049685 7.2427153533075685 1.6411228065536123 -0.009308678995435582 -1.6282068698228926
Ni 2.77602447289295 3.3365737848703008 2.735130368960724 -0.4581559280531271 -0.4225340650844594 1.2628975906888573
Ni 3.1609528772476048 4.436648550834755 6.393799341506589 0.820763234874967 -1.6013504117516808 -0.7279255848169399
Ni 3.162619516122828 1.0393774540785272 8.020863457650321 -1.1308290201546654 -0.07519062640022535 -1.4301193120854143
Ni 6.097542642896009 4.887357981186353 13.137331212439165 -1.6060735282589629 1.5316187515834976 1.294138808091326
Ni 0.251433423698777 3.4574283804032553 2.5817549004479923 -0.479396068378826 -0.9833811389509258 -1.6465159525447257
Ni 8.488359386483149 4.052232242223884 5.4813676290625315 -0.6694206466025117 -0.8300729423116672 -0.26493161194522113
Ni 3.464718761628394 1.1292176692015996 11.634576010391 0.16336506665462833 0.280023216171021 1.260453757134055
Ni 0.8133020805287487 0.7065608436944729 9.062673832053406 -0.5384576504276727 -0.3612430794844617 0.5293353764114304
Ni 2.0757661311796984 3.2155609051983585 12.564287695396661 0.9279509830070792 -0.5934178087136361 -0.9259321528048376
Ni 5.2382273631635385 8.467624164275762 1.4517886403772977 -0.9279931490989244 -0.8952465507955227 0.5493010209000798
Ni 6.688985294471075 9.238458610314114 11.694876680846289 0.8183147733344746 0.6011948815558936 -0.040632685919697764
Ni 3.22478793941817 4.910662992944364 0.9963427899372855 -1.1322588106226563 -0.5435085825880188 -1.4046291382341098
Ni 0.7382707432327306 8.753801887565508 1.0680501603145622 0.2639039420116551 0.3026700070362594 1.8620888115511611
Ni 2.561242207118358 4.441061885063 9.615276349170406 1.538771560578195 0.30364522646533515 2.2249691695287295
Ni 2.699517368771664 7.7699728554399545 7.6273327758832705 -0.1377630498158079 0.8143611880033652 0.8790658272706021
Ni 4.7558145508558765 0.47104242462932294 9.362952809960614 0.49008491555123995 1.8656176506400255 2.8012485187898655
Ni 5.229652087163088 6.000058234943002 1.507416204399766 0.7074074102589301 0.4793595587139357 0.5117719136063703
Ni 7.059872964614351 0.3389114808182509 9.137256387261235 0.9842162332577116 0.40876786453830244 -0.6078031309010307
Ni 7.819608899260155 6.239644556380136 1.3606700480611071 -0.41373703561811975 0.056702337788050734 -0.3981106419347724
Ni 6.59395894608823 7.462035718455255 13.212513385208807 -0.4353060200381471 -0.7280181445307462 0.08268127835031566
Ni 9.020985514176731 6.7316009711855855 3.386436081900935 -1.255173225461406 0.886099594188932 0.0973962159629871
P 7.936757783774456 6.336188570330922 9.915636331313447 -0.16343191533682178 -1.1591687476396229 -0.20770194089879065
Ni 8.30282244309446 4.6629110721018066 7.578546810997753 -0.24915840827136443 0.6907970553957586 0.4936451220986724
P 8.489067009692741 1.0252994765403278 11.188825529005568 0.052709928799206 0.8614504281816842 -0.9784361362408247
Ni 1.1636863681740957 5.281857920533911 12.911348947206438 -0.0235998988071271 1.291325764122563 -1.5005788515585576
P 4.648870337890428 7.6791643138195465 9.312109151268256 -1.009242837209036 -0.21707618302483905 -0.02662891544143801
P 3.038152317888272 2.2276444179542407 10.016342287036439 -0.12106990543084312 0.984001546143744 -2.0172733992775256
P 0.14633182432777952 3.6462706690472766 0.1319624177572087 -0.8835711713401235 -0.8832148164419692 0.9692025334576985
Ni 6.609470791709024 1.740790338923218 1.0307937983295419 0.18955586611738323 -0.22832733045862613 1.3434104006329444
Ni 6.33427053899966 7.09799150961527 3.4033333792794562 2.4869185589171754 -0.45538067930083503 -0.31112430845119965
Ni 2.791089398591896 0.06728844965000857 0.2090961408522517 1.135326908025019 -0.38917040202234915 -0.7605066040767547
Ni 7.774730690441291 6.8734887355404926 5.531870511314481 -0.4973786209991757 -0.872331336760246 -0.5178883109167532
Ni 1.7511253621159437 7.421617398023162 3.4675455301340805 1.4765673191353086 0.34093496405472895 0.7140246584651316
Ni 8.563888853275394 2.6060459292835794 9.20408488182501 -0.9806326296715112 0.5488582769357063 2.315189693678884
Ni 1.6594788456420706 2.8478202961714256 8.291120589807417 -0.5141679246423725 -0.5706116094523979 0.3334751653425741
Ni 7.160429947030062 1.2769619466990516 5.775976310461298 -0.6692283280860474 2.468121737925646 -1.0912880246372496
Ni 6.052841339879545 0.6990618998391384 3.2222395647804682 -1.639161311951867 0.6348591065775583 -0.4165616495511084
Ni 2.2802692387517958 2.028038807859057 5.899085989433242 -0.8435673772536763 0.33236187767373726 -0.46746563548982717
Ni 7.181798305793399 7.052880530003779 7.962320672220968 -1.5387443068846853 -2.2084734858665516 1.5360011969219094
Ni 4.209892555487329 5.823385203337623 8.255785052403171 0.483854875481128 0.03503076635188805 -0.16748165992616315
Ni 0.8702685421504188 6.8582282823757375 5.62574883414808 0.41189021221736805 -0.5884018435562834 1.0341827949838254
Ni 4.993631814269031 8.741418481397648 7.410535646127682 0.4251398781384227 -1.0711146350131682 -0.6049510061642163
Ni 3.170133357308891 6.607738977011864 10.843440226902722 0.8742285537829588 1.0863885304531031 -1.677316997085982
Ni 0.9770321249807872 6.373497072973492 10.658735671868474 -0.12123754135695892 0.767033349451679 1.2529988435179067
Ni 4.193114436754635 1.5364268938266983 1.525009020906663 -0.3224965548438833 -0.6933897558235994 1.3968505227299557
Ni 0.9213933879602726 6.299857705017394 1.2609780419108065 -0.7606703833481286 0.13584269286464346 0.8859373575794548
Ni 2.0125269622382636 8.622053618937517 10.514190596144914 0.43641622238319033 0.1036105723038151 0.5924631581098505
Ni 4.629457253785173 2.720233969315641 13.113810189385594 0.33408837344654074 0.40009939023002705 -0.3268993118972693
Ni 6.463970424652515 2.2881462023743597 10.611966433130293 -0.3114171571012701 0.0981948006048825 0.13466358495487776
Ni 3.497288050933038 4.99420908583475 12.215332620418057 1.130495805184963 -2.047287686251429 -0.03590648408862203
Ni 7.948014579305993 5.566666951562998 12.024971735122923 0.9791894694670814 0.7670107237438597 -0.6038060939264955
Ni 5.881885158941133 8.935744849916006 5.330880380544739 -1.7196561241738253 -2.0768342895602943 -1.0907151828529151
Ni 0.26374048104665526 4.769445608472228 9.451271635183064 -1.23381070062523 -1.2544242631105236 0.1128886551716314
P 4.063572835240767 1.4003211559606943 4.123675184980734 0.05830387794721571 -0.1581853222259018 0.44779901029883523
Ni 4.894434213282273 3.6900781322200458 2.0088612877959426 1.8796728431815113 0.06723846143268421 0.029742007149122975
P 0.9359992896561545 3.8297219861340106 6.638532690710334 0.0822598745421809 0.6199194545485904 -1.8095825141223285
Ni 3.9135101606487304 7.011801140520619 13.235897539036312 1.4677471497405175 0.36892887816449366 -0.9610441660166223
P 8.9162386574937 1.1692635563654856 2.433353278232156 0.07659599138818421 -0.6336108359927539 -0.071566913604709
P 3.1801611230553464 5.394248970046877 3.0946876880019927 -0.09544474866357111 1.5143705060260113 0.9870200212550938
P 5.643714083923183 6.813443181873927 6.143110784344225 -0.1693030294056181 -0.014351897846297864 0.05848616916135088
Ni 6.473467472991777 2.9831904783327223 3.793730035094551 -0.2934993962805848 -0.22833735776095515 0.41951044776678714
Ni 8.999319208798827 8.440697238984445 12.70189713258305 -0.1503524564450443 -2.0106661783736532 -1.1340709241307307
Ni 0.43141366272582815 9.0330244195715 4.96119753202411 0.8754770814780793 0.17809414533468682 0.7727661381703982
Ni 1.7934430922158884 5.549348804591404 7.72700336712065 -1.162863679992707 0.8038019244302802 0.3295753160675356
Ni 7.5757302844069425 8.643654748493484 1.4709084332838405 0.7372926278541366 0.5200367247183237 0.5085310380715693
Ni 8.864638028183712 8.128933350168923 10.297433502965657 -0.6430812373770344 2.3124874642563724 0.6220673541295286
Ni 2.8378390845834955 8.987643425840558 5.516103548904965 0.6564293765491663 0.33103107467745574 -0.6230582572878882
Ni 5.626153855327255 6.35290151324168 10.64640254419182 1.0317618442471588 -0.3143536140217747 0.8915691019439355
Ni 2.998711634785221 7.196407000738793 1.5779643762297506 -0.027689752605784573 0.7457173615827222 0.42967478989429875
Ni 9.186122425299418 1.9995383520095675 4.548561954681246 -0.1991676781755344 -0.07073850416614269 -0.4927290380423063
Ni 3.499336433908173 6.63136055704785 5.746595981015671 0.32045484182350614 -0.051762220173956014 -0.7194466008116512
Ni 8.650218884845621 1.1453905838734597 13.581241873479657 -0.2727883889854786 1.6469409558972863 1.0372259526855234
Ni 9.17442802067774 3.443201429557774 11.510362997861995 0.4568536643019358 -0.5069737208867784 -0.6472921901345884
Ni 6.050597429438601 4.669028288532096 6.4826088475599 -0.024351689371487094 -0.2759819562221118 0.4763693657373602
Ni 1.1624200950621941 4.7515036357763885 4.236182619890014 1.0251052581625895 0.775976931798212 0.646479464425306
Ni 7.835446623990628 4.8479266089150075 3.5954651847649095 -0.9773020226363814 0.8820035697426873 -0.9527677849404431
Ni 4.561646466476505 8.494727995369479 11.413813397412186 -0.08535573985868525 -0.893865611287596 0.5497303951280145
Ni 6.814467373361494 4.484478293304153 9.546294259233228 -0.15483620324801076 -0.174847356262615 -0.2117570848047708
Ni 7.281489380860529 3.0447443867355237 12.79198687799582 0.3610091090967847 -0.5794834580207311 0.09094763212416596
Ni 1.1599154813335066 1.0874399673405544 12.175295113002704 -0.0689508161381006 -0.6080795244908689 -0.6213078502556848
Ni 7.797421187306762 8.870578338811603 3.9352360553495465 1.1278223721178575 0.03127207064040421 -0.5980856465029506
Ni 7.891833020797067 8.775170246328846 6.957262943807654 1.4119938061292971 1.7317529074373594 -0.9066997869377869
Ni 4.23965928444872 7.554510898950887 3.5090141123825145 -1.4365434704442033 0.26989666925998035 1.1420259173117493
Ni 1.9731793874522643 1.2170560555080632 3.327279712662212 -0.35269441858350226 -0.9242156843343632 -0.0038491985427611124
Ni 0.3734071812026919 7.470666859445937 8.228912129935743 -0.10803646928565266 0.014178862603543322 -0.5262176567180551
P 1.8527158468509262 7.520693958197752 12.832882844094385 -0.8656665231455608 0.14964103220031647 -0.15231909325311185
Ni 7.255298011273919 3.9391987453232615 1.5022235535577992 0.5814994600094954 0.11623366038446435 -0.09928880500000965
P 1.157476043426755 0.12421115036266442 7.035347302819795 0.05756134335423635 -0.3450225038605413 -0.33720635025023216
Ni 1.8898753761862128 2.1925891365843198 0.9334332244382129 -1.119778932988091 -0.7178897978474926 0.15487631245732683
P 5.332732304970895 4.19787227175597 11.296644960151303 0.16170876199812798 -1.0760341838019727 -0.47350412837442324
P 5.436827403434566 0.4443957553723304 13.503716164369825 -1.0146346976485687 0.34913498336701804 -2.2926951121207932
P 6.348972342262105 2.314868289368164 7.5815588650543715 0.9795633078667324 -0.053602872927120584 0.6613607524125126
Ni 5.07005512090497 5.048537788834349 4.2825701145282835 -0.37264309379128724 0.28368086752826627 -0.38142109709423344
