# total energy = -381175.1562371894 ev
CRYSTAL
PRIMVEC
9.16644311244772 0.00000000000000 0.00000000000000
0.00000000000000 9.16644311244772 0.00000000000000
0.00000000000000 0.00000000000000 13.41601605334617
PRIMCOORD
 96 1
Ni 5.896030337306337 0.4147824650175842 7.280147656107062 -1.334841428017011 -0.9672346110980502 -0.8723056257286331
Ni 9.091874043696393 9.053127488890341 9.054267794406753 -1.3698871067672345 0.9220634138780507 0.3284656279431246
Ni 5.568155835565701 4.369450910431514 13.304046207494899 -0.10740577768018922 0.7741661038417184 -1.4519418072771446
Ni 0.2527930832970853 7.785976733442269 6.444209298213686 -0.2448569526825331 0.5307674808722666 -0.5021637010926447
Ni 7.780119376328225 1.6594653518862585 7.512566486419192 0.4118794135840906 0.39492555933857143 1.1727372303526773
Ni 1.5614302433812373 7.3357210504346355 8.573438357223555 0.4261292386348855 0.05224481623732938 0.31740782746706625
Ni 1.2058089185041168 1.6673026607008254 12.177932178225412 0.40213133305839127 0.17401997526531318 -1.4961444699362878
Ni 5.533845839199708 2.763260925598194 7.3807411188695635 -1.6589886310904398 0.7299513569977171 0.49639620248124827
Ni 7.596744682953475 7.254818024004965 10.454765546952075 -1.1563523612367506 0.0010554378477078599 -1.5581643632825102
Ni 1.567305933381398 2.2647897521056217 4.721740233257061 -0.07272365291697153 -0.46232522893946826 -0.890698269303208
Ni 7.743536102083854 1.134054002246304 11.149473766718346 -0.1306704046350846 -0.43098142452086424 0.4904381851256005
Ni 1.3015340833585287 0.09631456714303975 0.40857953300025385 -1.498828444526354 0.2201622781493305 2.6392726191732807
Ni 3.56112646225028 9.301373099786368 0.39452370921515806 0.2074674562904814 0.05270684347541245 0.3466597823536482
Ni 1.7068925282682108 5.558356907936727 13.426211977350034 -0.316217663813707 0.41361773643143607 -2.4645533038480973
Ni 7.492861383777466 4.301380904283006 7.153781822042764 -2.9553959235009684 1.5048108873620343 0.5026673802019408
Ni 8.57568413577276 6.442423675105992 8.20151909658936 -0.589592521430275 -1.1467678028721087 0.3729863360633189
Ni 1.8894147424385694 1.2131787387227269 9.294736595012393 1.1060957790740433 -0.6932498878116253 0.04529589572332199
Ni 6.751076145754059 2.4430954024693126 9.527732911237175 -0.31302563923897053 0.44824355403542154 0.1657086271861404
Ni 5.487610300415292 4.049239555087342 2.6998658054092526 0.3503318318885967 0.3153566013649924 -0.06915059085373253
Ni 5.94928737147316 4.7200031922975745 8.87811534151738 -1.1144238393237644 0.468383005097774 1.6709951686330127
Ni 2.5924625920989826 3.496924695072237 6.424862603495527 0.04240134778434634 -0.7591565178067635 1.652338986984406
Ni 0.6687516029590074 9.303573046120281 4.246450994258103 0.3351980615709517 -0.2608445863600411 1.776431995512289
Ni 3.42654474527312 8.048916152560224 4.245175942028738 -0.4176597677112936 -0.182495359726176 1.1777349406775846
Ni 3.356228960575409 0.42773556570280585 11.347199443344659 1.0324300739587768 0.972390701377693 -0.4666426253678996
P 1.3869103340004894 8.60349512401065 10.447655137072006 0.8101363512887403 -0.5670858556873266 0.3801941666656678
Ni 2.1492742366890463 2.281005189875176 1.0758920043991596 -0.02674924306938619 -0.7292928974781118 0.1772711352127592
P 2.0629263430829403 8.834480322628512 5.991834333571048 1.6968028737247358 0.29510196488101437 -0.790525004815716
Ni 3.758369983971743 8.199080822735938 8.64117562148906 0.007214001249935963 2.5980300675837253 0.7774149497963192
P 6.876298924369029 4.6260838167255836 4.9016087621621365 -1.1777488246346555 -0.13331375579520266 -0.5524593640234033
P 3.1160131537981686 5.9943037733308655 5.687330595051019 0.9983542153209903 -0.30393344712971526 -1.5663697819114377
P 7.659910642065967 8.288196982145552 7.730012848640426 -1.483454018952813 0.5721169903533309 -0.5571624259260275
Ni 2.958515329176077 3.375643486972196 2.9630206359390705 0.2724711148553759 -0.24976595994837633 0.5937083433708613
Ni 8.750891528382855 6.042271769853238 11.839339354617088 0.6768884157344666 -1.1260809639467186 2.2245868464886462
Ni 4.666746158130752 1.7494431569433215 2.1537942097609326 0.42083482300516556 -0.6021096800606791 1.6144524963512776
Ni 4.2916553081984965 2.4378521970401525 0.10165402022430901 -0.2912327117335952 -0.2700946442033994 0.15790275798847642
Ni 7.9788845275973115 0.8088762680533232 5.400576756868451 -0.40760598301971734 -1.4951795349198573 -0.3820049946221615
Ni 6.211236814740856 2.2717012501713336 5.168453086022788 -0.3149344262259092 0.6584577198331046 -0.4809107052511395
Ni 5.027372360917526 7.578301799520833 10.896528520466497 -0.2271901315303894 0.21191186521508024 -0.5251138821309149
Ni 8.104932286087498 4.627559614057917 9.73392288138322 0.7300583148892266 0.09355447361939372 0.2378632949735194
Ni 7.8573741584208205 3.155566355593322 3.4681741464209046 -0.16837074739933586 -1.063770278832955 -1.0749851737121678
Ni 6.490932491768786 -0.055074739825219196 9.566988203632944 -0.4512563727198164 0.9605266029502555 0.12629850081963412
Ni 0.7522404829753313 4.053245290703677 11.581523060524232 0.5970194100219653 0.9839395825575572 -1.0575710920007786
Ni 2.9436840243082765 2.919117956912909 10.572343512056696 -1.4474688591074554 0.5418368513125507 -0.09553396594326773
Ni 4.969229612600803 2.9344809154780713 11.538363780030073 2.2709230105510243 -0.9940046801030429 -2.013058332754914
Ni 3.5773052342476026 5.7320426709992 3.4096271579653252 0.09751242982587723 -0.4465592243544632 1.1371616472409125
Ni 3.5192724832475752 6.088919798575263 9.132174310600771 0.8826401748854218 -0.8727329430740389 0.05675633095443774
Ni 1.4670800449855212 5.429705879618077 6.851774105967421 -0.8200104158693425 1.2701720128630833 -0.5752995018463705
Ni 8.335844153160895 5.3304241348571715 3.186612181586371 0.04300324303440336 1.3859708997029745 0.11797069768022908
Ni 5.787178825992908 7.152548018807161 8.462366733401485 0.733792070900046 -0.5143610144897851 -0.09690256415602021
Ni 8.677761645666346 3.1123740759041536 5.657467240212449 1.217005456142433 -0.5877791223706199 -0.3603732752849987
Ni 4.9400619907903325 8.294026839930423 2.5995812517778045 0.030092448510006243 0.7921034050464293 -0.7711419723034137
Ni 5.695358565881192 6.825397666068104 4.170287935533711 -0.16696024020505437 -0.9436077157077297 0.4907711429849871
Ni 1.9583005620192364 6.2630363844614605 10.981599528554629 -0.5046070204268148 -0.784350757684204 -1.3245793839693705
Ni 7.361652917845641 4.825298123704511 0.9694411845226133 2.040229750963383 1.2243688384860398 0.8612254566550717
Ni 1.5508888338645686 4.774085206339616 8.972604869847578 -0.728121759988146 -1.4232431537908714 1.2745385173618953
Ni 7.8759178727271 7.70357957679415 4.084224201662402 0.8212237194511535 0.7517357998626601 0.5193684950067056
P 5.703067544492948 0.35957297847941283 11.898262167238045 -0.62145825979062 -0.3327457433757173 -0.40112526039138013
Ni 4.340420785266913 7.790651619401836 6.485516957210136 -0.42743715881303157 0.09404709698509608 -0.8088870522626714
P 9.139521214711737 6.683336131555639 0.6758317635769858 -1.3532569544097208 0.39558196197564777 0.15109756214118494
Ni 2.5228892892889676 0.49310055450490553 2.80669794931701 0.20597467379503884 0.5222843831019198 -0.890120542422867
P -0.03080383189631828 3.3593638841012363 7.811917767296333 2.8106973229075916 -0.4577959736105471 1.7884609016523652
P 5.119000125725024 6.412843563357913 1.1080744693313969 0.47028253611333204 0.007393721360909848 1.3790075810112639
P 8.516111422338993 1.4122372161696688 13.195697933905354 -0.16379546932382757 0.8870395895046981 -0.5060450384249221
Ni 0.6991090290784024 8.003835585601113 2.426044901737177 -1.3414370789566576 -0.6068369103330195 -1.7461544275746703
Ni 1.1821778283006623 4.672823509878188 4.448026576968764 1.2199899926920539 -1.2911930951994408 0.18062462506602442
Ni 8.784935697900167 8.380209737561485 12.140152683161977 0.667508002960831 0.34494691342759953 0.3832303823888303
Ni 2.1212065880455326 7.997043251295156 12.293940848278506 -0.2189525741119455 -0.8629648079436816 1.0261013035272715
Ni 4.195627650723171 3.6945257080729608 4.9187811765869425 1.1469529222997215 1.1208857928990243 -0.19534624754691518
Ni 3.874719645706594 1.286207790565598 4.797594382850399 0.498322987190316 -0.21925185051991916 -0.0017239246696421926
Ni 4.9381462041912165 5.47631724256787 6.884240730634456 -0.6624125907157946 -0.9863222238571207 -0.42501389408351964
Ni 0.8665936934121561 1.0446811824310673 7.09306146993814 -0.5707792453785138 1.1585604246316628 -0.5164613486622396
Ni 6.760242588812032 6.860835134930229 6.250347277336308 0.19381875515879524 0.7920812935592423 0.5501001197626074
Ni 0.14326508848597744 3.4601122597514173 0.3513277629487661 -0.09371491045665796 0.03217349940875104 1.1693318042155538
Ni 7.044466488710601 2.523008453048721 1.0135180259668763 -0.6194733681501072 -0.7620731772329262 0.22618894395938466
Ni 3.2239938530210908 1.1511127527771918 7.2095660445606695 0.9137235265537876 -0.23665873314245695 -0.11658744417945728
Ni 6.4942782434849455 7.133894307184185 12.86214940391183 0.2956118146378973 -0.4563124470864851 -0.19606178555670103
Ni 0.12241234717339468 1.350418724186699 2.3674300816029685 1.3121691832304756 1.3107342505561619 -0.4511221611347973
Ni 3.9037314379850785 6.661345834659561 12.848196244288985 0.10222140526577234 1.0369277047188141 0.5329061244818241
Ni 7.072167479631795 6.9849946061504715 1.9931642115459312 -0.2575108940011178 0.3117498578503405 -0.6659789679108142
Ni 4.39904018862265 1.3954259596013463 9.445680412848034 0.7662589331794997 0.5164145545847042 -0.9059765356185171
Ni 7.156113765156712 0.920155053488504 2.956004640422498 -2.109585772959702 -0.8199499949450523 1.0926437673341955
Ni 1.3244043587881715 6.9570186219375385 4.3070778486435355 -0.1784831532429894 -0.30638987909000787 1.4157332185670715
Ni 7.603014530005128 3.389338152900808 12.05414303130471 -0.6637053413852892 0.5020929957557094 -0.5722188060385177
Ni 2.8353000015908036 7.263406981150286 1.7224690649566246 1.3359667998707057 1.259494221434263 -0.9240963851476796
Ni 1.4246485800701643 5.613612226690189 2.222429785446117 -1.2560268317109529 -1.2438531724628965 0.9515963903401612
Ni 5.817483086742567 0.0405055952288769 0.6963086807241916 -0.0974545800047483 0.8293949424080361 -1.058873612862286
Ni 8.000563165429417 9.079875169733507 1.0541262853580027 0.9354668317681502 -1.8603546024688733 -0.13906042847099276
Ni 4.0214835655078005 5.1120336290009645 11.301236147919063 0.7159439869750315 -1.044129364673576 -0.8009986506535302
P 6.668147335408577 5.308507169505558 11.264985615557698 -1.055172252751299 0.20198020792366503 0.16714561674298312
Ni 8.61850975773961 5.689134551044829 5.637598058239987 0.38928687299555537 0.2876174835785111 -0.8234186702199432
P 5.884315623078248 9.243624508521137 4.655008527795017 -0.16448992428769088 -0.6570554401689395 -0.1900261208855824
Ni 0.1419643702160511 2.5849736081206185 10.030511396322689 -0.5532741466152149 -0.6218135862475097 -1.7862294412186852
P 3.833140659995629 3.9984299612169982 8.827121502141571 0.11497716226954392 -1.2284856888678908 -0.6462370093971966
P 2.3965573710639836 3.4989688118741653 12.716478124123137 1.606343494090898 0.30969503220384087 0.351868066027465
P 0.8031875734915452 3.447233407254965 2.559306650913989 -0.3427540195413388 0.1754939887076784 0.5257749127536816
Ni 3.6119177232345088 4.783178317853125 1.0386918285369877 -0.1140281680927133 -0.40677500247798976 0.9686877986048092
