# total energy = -381166.2836418007 ev
CRYSTAL
PRIMVEC
9.28088532987765 0.00000000000000 0.00000000000000
0.00000000000000 9.28088532987765 0.00000000000000
0.00000000000000 0.00000000000000 13.58351380654153
PRIMCOORD
 96 1
Ni 6.847706126525697 6.782795616571602 8.556445138190902 -0.5754586531320541 0.26457140039232496 0.46474437990392214
Ni 6.7491988127349085 5.771810247638289 13.472508596656985 -2.758379487340482 3.5748296966623916 1.9258035761013028
Ni 7.073194509403124 1.3294867816591731 5.0467503849482975 0.23713747255108833 -1.3580464053785644 -1.0572250215152694
Ni 2.409995260410349 1.7833963070859575 11.513100304829901 0.5693129452456324 -0.08105634115238299 0.23332709766606266
Ni 5.235365811570701 3.3176194126781247 8.006135987965406 1.3678176258327153 1.2660273945670906 0.028395520423557547
Ni 2.5871302322410434 7.033249580200603 9.877781446609916 1.7611210761868314 -0.0915577549043391 0.5808458855858963
Ni 0.5422329240656385 1.188872092452066 2.7436523584028722 -0.025348506067117638 -0.03901469070030055 -2.444244674197732
Ni 3.865980505134196 3.705848114692679 10.410608193689784 0.49270435545195795 0.20700388639050155 0.49700581104078917
Ni 7.945801882423429 6.816132555627237 11.92234464292396 1.3202049090507586 1.9718638607944752 -1.0569180317978122
Ni 4.260037602952464 9.088585099777978 10.73939746748 -1.1358781525427988 -0.08300009514231511 1.093342336063117
Ni 2.7604229176661055 4.1583562264787615 12.828677824082986 1.9656865283391693 -1.23395879616732 -1.0105217039214596
Ni 8.635046809752703 4.119330104894979 7.679820070037752 -0.400459087562291 0.23188239479973616 2.391729635018152
Ni 1.0245818655136318 5.714333726599438 1.4851123743263543 -0.4041817878295168 -0.5415959389463382 0.08605867946298082
Ni 5.845351980677502 5.823374844908085 10.60534157972908 1.2928280596997026 -0.10851598002523247 0.8850521267610241
Ni 4.847935265669395 6.8083830166207076 2.3745070122029612 -0.7172241392390357 -0.14931450209883318 -1.1644207400671818
Ni 3.84926563118119 6.371670971168892 11.971381127109472 0.3846637724012472 0.24474279570217203 -0.22556159478803087
Ni 8.748561314649551 2.0682637924349745 13.402010065821653 -1.6006315313077855 -0.7235523954499088 0.7021119661879456
Ni 0.6866629851117692 8.175448101797771 2.547031240346896 0.8004875153450666 -0.7032705052724211 1.0090070670491462
Ni 7.534770045871098 9.323391491233314 2.4151897717659834 0.05392554637386197 0.6009331432540748 2.1719221691050787
Ni 1.6880723368631207 5.11590225936465 8.457815316717616 0.6020029792794859 -1.0996741918184159 -0.30952199696108634
Ni 7.751320936457161 4.637389107702763 12.00013794939897 0.441818110125052 -3.865634833940265 -1.6633006282022322
Ni 1.3420252573451876 2.901603740860516 6.845058290024425 0.03443504174941812 -0.9972455556378438 1.0037126514194261
Ni 0.41654746653027236 7.641444538495116 10.480522956856241 -0.5286985141583798 2.229080877704258 1.0703055088483115
Ni 5.161517809325242 1.7446671738233837 9.632300181184146 -0.07722514033175087 -0.9440530307752644 0.20767545853622946
P 8.575936852947207 1.725483584450333 6.588737878963055 0.355379164504517 0.4725101398922701 0.5055344173370907
Ni 0.7685593708619741 3.5691406780864687 12.4930151268338 -1.2943825486710159 0.09674007043622695 1.2293428946618634
P 2.505319230633186 7.1062251792525135 2.1914285615940847 1.4984296664260388 1.3568593270489988 -0.0738917050831437
Ni 1.4729785452279864 6.368636121761545 12.103997549591037 2.3596049865694653 1.0739058246050601 -0.7984424598905798
P 5.772766178797178 8.821184240070025 9.235960913735093 1.1095461995164893 -0.14122221200900192 -0.4782871515853634
P 8.988128800129259 0.08012466479649662 0.9403281349638356 -0.8672456947072227 2.5188195213908298 -0.7767035255515914
P 2.637506876226007 1.0259554364992205 5.4310959646630526 0.7542058586697076 1.2938665282665458 0.6306980332213331
Ni 8.41252831008736 5.75419512783662 2.7970898382732887 -0.5349748340853947 -1.1380389076395432 1.095310001312449
Ni 7.707143923677421 4.2416057652674715 0.9513974465483724 1.772815481805624 -1.6362335967821113 0.7736228297437386
Ni 1.9705453538723956 2.6506300476694 9.361499733286863 0.4047291756925545 0.8739709292461979 -0.7682659363071995
Ni 0.807190126743148 4.956920698667815 6.19830682292904 0.6622092164557369 2.076403115560147 -1.0241794039142105
Ni 2.8763411717877325 6.720558001508381 6.76369277089838 -1.0091860158291717 -1.3578412313462938 -0.619254567271082
Ni 0.5494339627664366 1.2162228606583456 8.314087818668844 -0.4545939217334817 -0.64452002670609 -3.571715576513442
Ni 6.116632250331238 8.22626094737951 11.741073180631938 -0.07753444404205358 -0.36189074037078967 0.41535940171289115
Ni 4.720564399411171 2.6660177550620068 5.454283327841393 -0.4750377914101303 -0.6960084243933691 0.9698381101591685
Ni 1.4022303585851392 3.35078929580308 2.2100237428557414 -0.35705166711093345 0.37816813737457455 0.10581786436777905
Ni 3.49843889586881 4.396243871766635 6.826041756582053 -0.3757505290720174 0.2658734070332002 0.9042330705648491
Ni 3.4397837024301645 1.8693373025356188 7.564930137978308 -0.030638550821463363 -0.8205017536834643 -0.5794245797583375
Ni 0.46851671038771536 2.297093293925994 4.607758954131209 -0.21725153226043878 1.0423007961052695 1.7640022543893683
Ni 2.064681370810399 8.989428124034546 6.985539334486988 -0.1328391301516293 -0.10660950703113897 -0.03324436387542662
Ni 9.08580083426665 3.217951988257616 10.486254831455561 -0.15686660341447822 1.2404302628242767 -1.679465925108185
Ni 6.273711229595332 3.4267533398371492 4.105331745992525 -1.2747658028813529 1.7844219556963008 -0.6572238474260035
Ni 5.730649522495821 5.5275466343294735 6.876490791470312 -0.47318505447210757 0.08552800377049141 -0.5798356991538273
Ni 2.5903785420042595 3.5286388957816825 4.962369506273483 -1.2371783315458822 0.10778655805837566 0.2982600508940218
Ni 5.85518043793249 0.7030613808849878 7.207439727208817 -1.1002555182431826 2.873030119508542 1.524917428303922
Ni 5.881046264532729 0.1360948981937181 1.0207043117448555 -1.433635809879105 -0.06502705560366219 -1.2340796380159005
Ni 1.0077927444803234 7.278042203956571 8.347190879421527 -1.768613785019451 0.7681965165218447 -2.0409164926177628
Ni 0.21251927412565969 1.0869586938524192 10.341644721239698 0.08641272036828988 -1.8822166926492874 3.5663846512188324
Ni 6.141458617807246 7.505117618175454 4.162437031629865 0.951230008139678 -0.7951640462496241 -1.173345039140005
Ni 8.394291370988162 -0.1054280697634465 12.216115281289703 -0.33169184818990616 0.34904705163890204 0.09578773382528664
Ni 8.79920710430061 5.604475890407469 9.890495331023143 -0.5362272184352571 -0.4404623674281059 -0.7857718064014467
Ni 2.4879175711873853 9.536759038251427 9.258441073473556 -0.23654200505893455 -0.4666619086416092 0.42235640185601453
P 8.045654924544692 8.465624253388388 4.362209938244664 -0.19222698519164313 0.8818804139012618 0.23800933363308044
Ni 2.2826707985773145 5.786260585642082 3.8499886121256313 -2.2074247328870626 0.005707334797422429 0.126282302869718
P 8.227597394824947 6.486494080856064 6.950086353642744 0.7820645327531885 -0.9215702762917161 -0.3380614991616759
Ni 4.734838400599247 0.3067462437370332 4.783298541823913 0.3779339098765814 -0.04640918339215878 0.10512495206581249
P 0.2588791510662803 4.450648419857986 4.172393565098374 0.7156053726886902 -0.04697611163922232 -0.6951154802654544
P 5.056124078836435 7.0883873182099375 13.684167532739645 0.8842476285818578 -0.5018595395886647 -0.03491198138583665
P 4.4693494032090735 7.334479265871192 5.403168853495928 -0.6916411485636089 0.725138508990106 1.2978959611409133
Ni 6.702265377098954 8.280971764677107 6.34504968052658 -1.192348062605069 -2.6668297028559427 -0.9170255943438272
Ni 1.0291944653773988 8.269463467230285 -0.09769616443848834 2.0456136409831154 -1.7082090586791485 -0.9405663577782446
Ni 5.201778288619046 4.447502199830185 12.525139982303504 -1.0938776397412968 -0.7396816969116036 -0.5513884995567278
Ni 7.52751239377157 1.901857523707931 8.751409618267639 -0.1378149860996659 0.8893939486694875 -0.5287499362216055
Ni -0.027505758986410417 6.7356858441199305 4.701810515015369 1.1969130562679322 1.0511027106676156 1.253965064085918
Ni 8.831625235737507 8.636754492599652 6.652919839441687 1.6666345776714717 0.272745194452369 0.8664357972114175
Ni 5.144060464569215 4.1001372346368905 1.4325305920564193 0.7649366148236504 -0.02517778481720825 -0.6210630812347304
Ni 3.945471285482614 1.9438535285037966 0.04144379213611894 -0.07872435058509668 0.1089425260396898 1.0553203482933888
Ni 3.5726766952858555 3.9343342234373018 3.030088313323271 0.35377788145566813 -1.0268512943194186 -2.3587408387969573
Ni 3.4270874516985086 0.05866911476620219 2.098612286508451 0.519555414206531 -1.235254889270924 -0.7308831247833671
Ni 4.299917565959721 8.150760947597329 7.6752965666703465 1.0808370045072546 0.298792269248408 0.8201541405360584
Ni 8.137006675971369 8.794780122137597 9.034123010199393 -0.8626256794367079 0.0022384024122155 0.27737343725299973
Ni 1.6675523000446326 4.656424202915209 10.708073552389056 0.7208933605605069 -0.005095926465668642 -0.9289447143789163
Ni 7.396958183945395 5.317510925039919 5.11745309525446 0.13968237832570782 1.034927900679966 -0.6180240372980904
Ni 0.7532774655587979 -0.02358644123496421 4.791746931473785 -0.49428352701361966 0.20190204638756196 0.0027940178053693816
Ni 1.7182630558909553 1.2259770708330318 0.15776576475688858 -0.32181161296171673 0.6185446856882508 0.8351642407916455
Ni 7.141325486465322 3.367661944801729 6.150682889446276 -0.8583879872062765 -1.1895211346792354 1.9771641899614658
Ni 8.34113046149187 7.265485166500481 1.241001895620662 -1.358183445177061 0.07688652604540953 -2.8216849322673467
Ni 3.8495533386173606 8.721368321488914 13.498766076605817 -1.5702380066175925 0.7365863458157315 -1.889126018174611
Ni 6.235659600940514 2.489105524472219 -0.1879007984744965 1.818130917912972 -0.40763555070607216 1.7450007735862012
Ni 8.111623455393094 3.1140710420299644 3.0029751357739576 1.3800812736914168 -0.5547712999860316 -0.6867735360586624
Ni 2.93676901426859 1.7169544511006312 3.447318852992322 -0.1819348592370157 0.48641183757502676 0.19356113062203437
Ni 3.219112098887336 5.565821004225198 0.7517451914390637 1.7612766279280891 1.4004261558963558 0.9639518265817205
Ni 2.7413878224536585 8.339626958115753 4.2404335894872025 0.5857721192429203 -1.4072753176077055 -0.1902742323406465
Ni 5.496056591396353 1.8850312791344714 2.714991129229261 -0.8414603582130025 -1.1623638575381532 -0.7712779836606459
P 6.994576132248256 4.127924204439945 9.714874071542107 0.6251192535819751 -0.5423009354331628 -0.43057030512537464
Ni 7.211758123016886 2.0814333683035566 11.181364350040194 -0.6094139270315763 -0.32952517955589056 0.40990043548084887
P 6.382139809491486 5.190427766217866 2.866650999719807 -0.8055147933563289 0.3332365669692067 -0.015437674711308896
Ni 4.402675525097803 5.631975152774354 8.940682131550718 -1.2567588247809711 -0.027564282771513817 -1.1399052714243207
P 9.305293765409681 5.707280253970741 13.208934245850104 -2.845676410085938 -1.4048877912121354 1.9624693069534522
P 4.987779641418369 2.1915139457364323 11.799644846105242 -1.181282805929843 0.19770343492518208 -1.804882280433182
P 2.0722267303460984 8.845908517810619 11.503592038108717 0.0046058742031275515 -0.3645325488690109 -0.06897395606655218
Ni 4.378062617977663 5.396417009630958 4.40600272238384 2.678175723996381 0.3148225832383933 2.1050711729188003
