# total energy = -340861.4100828148 ev
CRYSTAL
PRIMVEC
9.30833418688664 0.00000000000000 0.00000000000000

0.00000000000000 9.30833418688664 0.00000000000000

0.00000000000000 0.00000000000000 13.62368798334388

PRIMCOORD
 96 1
Ni 1.8139988193906647 3.894392849204933 6.365817889051768 -0.5930563116091592 1.0407591626497625 0.3264707090002829
Ni 3.0718619162903753 8.399552033080704 3.450525873785509 -0.14400080319540362 -0.24080669387255949 0.41025987570279665
Ni 0.7953543210010473 6.143956540930469 8.919727799706378 0.30520511475328727 -1.7454221773943357 -1.0236849807762949
Ni 7.226096908790842 7.804656407860659 7.135910322440788 -0.6298552256050637 -0.26788966613228055 -0.13676520467891284
Ni 5.667062665685615 4.97518350863694 0.534056354269675 2.4282048471260502 -0.7907062675885865 -0.05241168083249684
Ni 4.754119884738476 0.9763604604123902 4.377290599872521 -0.39843460093309446 0.02285813554509612 -1.274606137375037
Ni 0.7561671657418724 0.3612778512709748 5.767764876942743 0.19050588873547836 -0.5601014539496935 -0.6545051629432599
Ni 5.0716364654282104 3.136778237527812 10.786295435298424 -0.7971011153713369 0.5205404038276197 -0.8042724363087955
Ni 6.940023880315053 7.730245585954712 10.740016260373231 -3.2931337207746383 -1.311586057033496 -0.4098428427700361
Ni 6.554891561531148 8.974239265211207 9.090719102579241 -1.6535782587081458 1.069465015224887 -2.1003683681264924
Ni 9.408119329094118 7.301401330759708 6.322385202660332 -0.6331922603980967 -0.7057932716942749 0.0473275814413701
Ni 1.7642643908888542 5.826551660248598 3.127413122701746 -0.07230764842547546 -0.024911161419382905 -0.30396301481607
Ni 7.400581629409678 3.271991097048175 6.741300257989552 -1.0707310264215042 1.417328330968333 -1.183098261872027
Ni 1.7357529638813594 2.4725262157577026 9.543352666949257 -0.37338382861205377 2.0222867933317175 0.3568377513279145
Ni 8.449277153248527 0.5609285836617537 10.797971809453891 -0.38696516684091414 0.18294761677224622 0.870977650945829
Ni 6.107244471678899 8.40011053312003 4.97892638973381 1.0689821620511977 -0.7739807273037896 -1.0268039860212508
Ni 7.262539036356739 3.0464594728351178 0.8338619678790447 0.7424644018630633 0.11878830848551801 0.09764638430058022
Ni 4.140756524884779 8.007596705483056 6.017460005357157 0.22036230997527856 -1.2312730218050407 0.4658563820211783
Ni 7.749206662289764 5.907627249290479 8.763492067872457 -2.030598912741838 0.1577412927099477 -4.190265404408016
Ni 9.281423595173447 3.616055046273783 8.102687853011775 1.332800486327582 -1.0245283026131966 1.1794781486209365
Ni 7.186341014324955 7.358089084751103 0.3443255134106908 -0.3151542555461992 0.12851453463434642 1.8810357849673085
Ni 8.50840369074497 3.108313352190261 10.191676267597842 1.397321291718787 -1.5546306390976388 1.594816210177589
Ni 4.197984162247521 6.34363892165681 4.172009256251956 0.9240220802663183 0.23185771220938778 -0.07826926532554908
Ni 2.7627693778604447 3.566711567799499 11.847622368359986 0.42693193704183896 0.9774120658516845 0.6957176326258276
P 4.708090173164182 3.3828812798559738 13.36366607093824 -0.5880981962729356 -2.3009447537240955 -1.2282249790073363
P 8.091855744749084 2.011484433295664 12.448453918164647 0.2698611880363546 0.9880916570527175 -1.4941228115205687
P 0.9823550275011356 4.5499601953635525 10.672279513937207 0.8203994237776452 -0.39006797413595407 -0.37660362110093204
P 1.995818507192623 1.9764106308261107 0.2523582427685913 -1.268751478366473 1.1547094263166888 1.2498988644363442
P 7.959770485448937 -0.05790528407712194 5.73343387952549 -0.14210435750363912 0.5693538257858969 -0.013664899081602271
P 5.257319111835494 7.120754493040329 7.8301193554868425 1.291587245314066 1.3194281787857343 -0.1561757479950407
P 5.57799121774741 3.4341143501299705 5.469910290137412 0.188151786681005 -0.49463242571260624 -0.2001740079528617
P 9.052131404028941 4.832319198577837 6.529193113055048 -0.5055200191593875 2.3586981584844797 -1.9158796321193714
Ni 9.161457786726633 2.609852067093508 5.21441234631442 0.1686319714805225 0.5276729011073429 0.23927328794716854
Ni 7.236550167860191 3.1683707230855784 3.194482461590778 0.2131915032584522 0.5053228155469168 0.6555878544844773
Ni 1.5755006859312994 8.833692730315299 11.98910439082176 -1.4961714665194812 0.8323388555277085 0.3832154699904949
Ni 2.2372673825264173 7.41094180513914 10.017565742005354 2.0315111401434627 1.6209923543523244 -2.1830745861774727
Ni 3.1759570152863974 6.712453730958463 7.6763075138235894 -1.006609770461563 -1.9556509984800385 0.7741365361553635
Ni 2.9773264763007834 4.9748484086133455 9.506200313500019 -0.8392805769528643 -0.3867533079404243 0.8547668455139215
Ni 1.0112574045361573 9.106948182888601 2.25408009537687 1.903594386994115 -0.8385107886663752 -0.8947197317577752
Ni 5.152274562772621 5.064012939891437 8.563223262104826 1.1111554529851382 -2.7684391855693287 -0.7614705106519207
Ni 6.888800118375045 1.9733947306137607 8.505431539702368 2.601597730330326 0.9923848851114329 0.6701847784620457
Ni 8.009011572249344 0.5349955651691384 0.16741038678739684 -0.09061698825762458 -1.1886842406002367 1.1159019665311878
Ni 5.785567065696198 5.695546167691143 6.231964977127159 0.43916910253797914 -0.45458209465893973 -0.7065746299449895
Ni 8.76548125884585 0.8012781447514782 3.5817082246887497 0.5914054062692976 2.4665731624916036 3.457099911348375
Ni 4.731230691460176 6.800594345497793 1.6231398084522457 -0.24281498255183986 2.540206214596722 -0.1992720649638826
Ni 3.4480954677810502 1.0692297086179983 12.674034876547847 0.9589656862210387 0.7329747172050731 -0.5593188101473979
Ni 5.3688050280185715 8.844201839388582 2.5037342671217337 1.981801174512845 0.7085983452432377 0.8228468568768732
Ni 8.814350012286708 8.01073361403726 9.088906769951635 0.11757526201402332 1.071690047900664 -0.15464876982755302
Ni 6.919722403885622 1.7706219830031602 4.9316521539052225 -0.08582599462688445 -1.416662158139244 0.7987759319705986
Ni 0.08681510777933474 7.847009327509403 0.06121160430992057 1.0510852271661189 0.29757330923964237 -0.5575815157413171
Ni 2.1932575794276787 1.6411616738878354 3.6263258619969525 -0.2536786647392212 0.2563520978063263 -0.1645619151762069
Ni 7.982259420365721 5.509221246238638 4.451103826736391 0.4518590393008218 -0.15197070877475763 1.6402239488884267
Ni 1.2492528879601308 0.27830987792918416 9.684602911894713 1.5205264983250781 -0.9120124573999518 1.3197163994501142
Ni 5.68379905019736 1.3543067453569928 0.08558920019301836 -0.45515827887738386 -0.33711918985306455 0.1812326909636685
Ni 1.6900769689986372 8.493966464728443 7.854301476356177 -0.35053057816296407 -0.7318655433012944 -2.138785791562426
Ni 0.1337644827517157 3.5932123946654273 13.130415045348325 1.000818617701083 0.2077911581784873 0.12497001181619768
P 4.247281099051861 5.38831529605896 11.385629274164298 -0.5600294630611775 -0.6189486059948889 0.8322174994584958
P 5.034579987819058 1.4130516411598983 8.89832514736608 -0.9111382823251147 -0.6523989152335344 0.9235222578117643
P 8.559478519341159 5.290670872517131 0.35259038315928853 -2.8712056647052937 0.8226421970652348 1.123911981319858
P 9.041305811600042 1.3360996440750272 8.863502669914222 -0.8482943504157003 1.298771678877647 -1.518346459954624
P 8.699848195891281 7.796735015636245 11.39467511313455 5.969213995694572 -0.7289224015125705 2.522640952019449
P 2.6725064631716826 7.421916330911857 0.48709580929650753 0.33503993872653265 1.8451028185161258 -0.14045628037725488
P 6.83144216433646 4.217959846987346 9.941927150846293 -2.636992307779536 0.30611040017637603 -1.16168997139958
P 2.987258468666764 0.19556437376972433 5.362924022604489 -1.7915508534315985 2.1883499756437987 -0.09335521312439406
Ni 3.3373542183170715 4.109052339319148 4.050008645995204 0.5936193832014809 -0.17653399993641855 -0.26031108245407425
Ni 8.277696632834177 5.509956604623747 10.729049181267703 2.0432482260747324 0.9044372161558553 3.9809110155074663
Ni 3.5809533188022633 0.29758650678645526 1.359874059915655 -1.7847019488305649 -0.01570635499166327 -0.42852036457488135
Ni 2.5210971025109212 3.7808404828763558 1.8805180357409617 -0.5784485889983134 -0.5243726330895163 -1.3508185201715575
Ni 4.7994235462616475 2.5657305639869046 2.1995444282036702 0.2872906963667117 0.2558851854722367 -0.16844530939101315
Ni 2.0546192529994616 6.359928506137096 5.387705600182699 0.0364106774185502 0.6004109522020176 0.28127431496930266
Ni -0.34315173249471137 6.633844850423597 2.4101529313659875 0.7707295673563437 -0.11919865655005922 -0.2666624785933988
Ni 4.787648503765898 6.755709559004114 9.875443306165154 -0.6000587110689214 2.5002726116265777 1.7217243195567637
Ni 3.7124800780630873 8.082482252422428 11.937320267175632 1.895608026354529 -1.3256749310263942 0.6126779424948288
Ni 8.103416695563093 8.712460988446017 2.22615137007707 -2.3281598806863064 -1.422410373476931 -2.30454532659116
Ni 1.0561514993638257 1.9526185291509046 11.6926795641171 -0.22109661703814182 -1.0103255287502537 1.028421981240648
Ni 6.346170788501745 6.21789263780299 12.340936144760969 -2.0732722832406485 -1.0182010748435883 -1.792751301497603
Ni 6.041118067022926 0.8961114514287092 11.225713957904631 -0.22692633634604145 1.216225383443299 -1.0523635796579103
Ni 6.9672972989020465 5.3868538876227285 2.3436150983477133 -0.3335579548643675 -0.9361474027749426 -1.012275967608405
Ni 5.333880158892839 0.7387596503495393 6.737267887705633 0.2725629032382338 0.5165207411452652 0.6515057139953039
Ni 1.6160012471162852 6.499274265948457 11.773522444809263 -1.1594196873081646 -2.471137384823518 2.3608740830898762
Ni 7.009957393572418 3.8118558517268206 12.186729629736591 -0.559744584830907 0.509038059614975 -0.17220014844775505
Ni 3.532624448732752 5.45056012544163 0.09497479335385973 -1.1527872695933115 -0.5218483240057658 -1.4735748121658878
Ni 1.9798733310699201 1.648161541047364 7.2649815431953835 -0.9794301247229777 -0.8214875146355013 0.280163341293311
Ni 3.4372791836861407 2.444312655437847 5.578968592816228 1.5500070242826984 -0.5332054008897978 1.526226634033649
Ni 3.604056603762303 2.7781839789457896 8.386183403806085 1.138232254597272 1.8079588624759766 -0.9267037408635395
Ni 1.2382690538534238 5.856310404010584 0.5577442026042075 0.2965374117759603 -1.0251021728387957 0.993189383290599
Ni 3.8936854158217886 8.93236107059589 8.797837027790694 0.3760210091245847 -0.7656580663707072 -0.7529424185762517
Ni 0.3793946617132495 2.2073410887526346 1.875654431231848 0.3768589316448478 0.25261448514076495 -0.7756015507366643
P 3.2915292900905295 0.5496087186980533 10.610659273765181 -1.1902215031803693 -0.009065709746694066 0.3394396104561251
P 3.687580284643221 5.058372089494264 6.006084290389524 0.009638808641344691 0.6392500365564023 0.6497997870477906
P 6.897354477310692 7.2600350945137695 3.2669739050282467 -0.7650790539387856 0.059900018789742 0.5282778816811935
P 4.629248584279597 4.971562566715321 2.4651242285698607 -0.6047702576119778 -2.2245436519555364 0.8294839025774166
P 0.5457978867630652 7.883730705094961 4.166423325025316 1.2352335491146855 -0.7417565771627612 -0.6858199138961415
P 5.9812096294714285 8.645319975385272 12.540277840463322 -0.5484121905372232 -1.4005637099154846 1.9505591857794278
P 6.958798789970332 1.2384738372011759 2.2359334982658314 -0.9191871207715202 0.7336776568093688 -0.5709823625282554
P 1.180920408148828 3.792224575344579 4.085444542656918 0.4251987564008161 0.1243143805100698 -1.4989994228865797
