# total energy = -340873.03009095 ev
CRYSTAL
PRIMVEC
9.18880612380305 0.00000000000000 0.00000000000000
0.00000000000000 9.18880612380305 0.00000000000000
0.00000000000000 0.00000000000000 13.44874658094301
PRIMCOORD
 96 1
Ni 8.74862552001605 7.20055060334884 6.711892652294747 -1.2344773876749513 -0.14475850729703457 0.3624335002481371
Ni 7.868098987942543 5.524365352219492 8.293801671854157 -0.5866066993290737 0.22681269358631262 0.3435747156704212
Ni 5.51673864316745 7.1435800056106915 13.035587651601755 1.3122262617206564 -0.702712318776106 0.9867292294875523
Ni 5.229588452955012 5.647623997067801 9.277254777547714 0.705016027208618 0.4136174793211199 -0.42249138477198206
Ni 7.015800468167678 5.0598895821440255 12.188921869958099 -0.3252167819885238 -1.2685982406180605 2.1737710493883595
Ni 6.4986085175722526 1.6482237142072218 5.838665707776593 -0.42781228276426325 -0.5585724188996767 -1.8361034432309928
Ni 6.011114788249357 3.939250358216399 5.639974316000542 -0.3421896623974365 0.8880988840071478 0.20288317935390865
Ni 4.285668347688684 3.2936815977823173 9.721346100200227 -0.08125354476485361 1.7625971465117256 -0.3212755379525887
Ni 3.2650584668219413 6.8273839993578855 12.361643857971643 -1.505740084044523 1.0500009929630045 2.253310439675584
Ni 8.46877124183653 5.326392525079428 1.2559058005701627 -1.7254007399670868 -0.9687315073585511 -0.0843164999608935
Ni 0.13542094858479453 3.572782393862721 8.750225291155761 0.22118891964163198 1.1549863341271593 0.8903570839137054
Ni 1.6591951486748586 0.7356650041151365 4.022049770983927 0.3880177764751447 -0.1860257414769377 -0.07720585705804124
Ni 1.0056780709756965 6.524695538052672 11.86937930052848 -1.7940221977902264 0.8982367437720982 -1.128880381068727
Ni 4.413778682150823 4.857202897481434 11.932763684915214 0.539088342033136 -0.6592208232513743 -0.13606766439125598
Ni 3.7363247645955515 2.519396041684369 4.721451151877516 0.3899936692545929 -1.0072548602447298 0.7823614951683171
Ni 3.625976392299194 0.32143454460289034 2.5348470191193195 -0.29170990848032985 -0.6682942463075523 0.7076285251308007
Ni 3.120665567973997 1.225933752876245 0.2587475905981455 -0.9417351812753653 -1.1186741299596863 -0.0835791075742367
Ni 2.672022110786084 2.5307717836198247 2.4353120338259058 1.952994791804114 -1.145938622102594 -0.7633314751200596
Ni 7.011252009154713 6.766085473952856 10.51866799315778 0.29276406077645706 0.09423838706029576 0.22444547890571667
Ni 7.939799241837828 6.9609708622477555 12.906546491083025 -0.21198077077980268 0.1797321951587421 0.1010366409290518
Ni 8.997421633622194 3.3601901762385613 11.658341828894207 2.2644327748409903 3.1297254595869 -2.3322134819303897
Ni 1.8108380155252863 3.088054495171951 0.5421368024792573 -1.9401868414061683 1.9462834412222092 -1.7739331403498353
Ni 4.52645182238714 9.027340386240807 12.14369364751827 -0.6948280309320227 0.6530794862403269 -0.3855325481594457
Ni 5.770175103847426 4.845312582405119 3.2007882815284416 1.1216856630925005 0.41238412113465106 -0.6599502452182312
P 5.770358879969162 5.339027133448776 0.741529300159731 0.9935560226013985 -1.1184848967670158 0.18197496844633176
P 8.031641358675374 3.980939971432202 6.700689659913723 -0.3351535814862615 0.1805742314440632 2.65334478099563
P 6.348739090296577 8.61744612432092 1.3491244005595113 -0.608111920390701 0.459049386401674 -0.5232809426872344
P 3.0686017926862 8.882910732168517 8.33019393836092 0.45610830149547893 -0.180121974397993 -0.8091297644010969
P 4.6105661533056885 4.010941423305597 7.4630049583224 -0.556053766242881 -0.34763808710651745 0.34311500242518334
P 1.8473635197203084 1.7525074744862925 5.960968716791874 0.3806392246228864 1.0751582089549225 -0.19558176059648896
P 2.181082579180639 4.946536470257285 12.588995135932416 1.133153040302152 -2.2939035306065976 0.8440332611465012
P 8.988710645451908 0.18749299379807025 2.842540623100012 -2.7325360439148163 0.7194720547329481 1.4942385111628267
Ni 8.864055302078407 8.98761717752758 4.966245540432858 -0.5656498945717485 -0.5215719304159275 0.6062257591115818
Ni 6.536429643425513 9.199189437676106 3.5978623211960272 1.5361289807490255 -0.92620494685025 -0.40227094396004914
Ni 0.8189339648737001 6.667535528671947 9.345816135283748 0.25269161823560354 -0.7768693617054944 -0.9413361460647337
Ni 8.806404732689836 2.2695983482147644 5.524476536773142 0.14568538998667813 -0.5005917286198347 -1.081539172780602
Ni 1.0323531750456711 4.04675020062585 6.423389869826332 0.7403756376548346 -0.0720785631338049 -0.10500076778312238
Ni 5.854105658644238 0.6958581772665188 7.870542291481023 0.10038846582209163 -2.474069985089281 2.273479201313975
Ni 0.08780179880118114 1.4565544080427015 12.633900831278597 1.8657012114927674 -2.7992939661666565 0.3107255303508842
Ni 2.63070923861984 6.336793642383739 3.036430863695711 -0.09585586805906073 -1.3013188707795331 -0.3901386794728894
Ni 2.9568842882829096 7.663078346533905 10.193249182235654 0.41601014792301255 -0.3498248103451911 -1.243032476333814
Ni 4.157732600542196 7.92452744612157 6.435883889462552 -1.8612202929032784 4.611261435581394 -0.36622921984514345
Ni 4.498563795913708 7.3449986350333045 1.9457379588049593 1.4356484694337597 0.5914696838483297 -0.11528775153142727
Ni 3.718011474064563 1.0288338623144273 10.03475514156691 -0.3016927307246546 -1.2703422198923606 -0.9238508447957766
Ni 6.550378251065272 8.317036486925234 5.8082985414209425 -0.22828542147709718 -1.1624217073592822 0.842846954147884
Ni 3.643462690282371 5.421386402404747 1.076011030525266 -0.09162948868253896 -1.3416792768744505 -0.5325947638889924
Ni 1.6989275461941733 8.018124624921693 6.663853574072967 0.8763785102464261 0.7479339096180667 -0.015795058050727635
Ni 7.176053246321437 7.140593643632483 2.603718039620479 0.40208736719433336 -1.506176400250993 -0.14423554491402904
Ni 7.037945490836862 -0.006119744853807483 12.753365418093667 -0.023231716834430958 -0.12268738642960807 -0.783912898815837
Ni 1.3687921211076939 5.962257906285852 0.8698932456698646 0.49972346708226845 0.8048015693393882 -0.15825499912157262
Ni 3.9949529007145688 1.3205233227337438 6.855673576657311 -0.8024017016486439 -0.3800468424545261 -0.4861526703763692
Ni 4.728559612266262 6.735753225060336 4.324162094147499 -0.04119472907075486 0.393117045374923 0.19417048207125917
Ni 3.211937978834162 4.973937490008117 5.223573460490593 -0.12148411015012626 -0.1582370013994436 0.8724879169427684
Ni 1.07611945843709 6.3410572484080125 4.938702094187681 0.07334508855105432 0.18753266503976734 0.4264025469009301
Ni 6.652392376240904 3.3170946756914788 1.5072683477163487 -0.31508946374653474 0.690645874529875 -0.32279351725901184
Ni 8.387266531846631 4.720648050225529 4.80074503512293 -0.8575014708362652 0.3186154746219222 -1.4623385771304365
P 2.861045040797606 8.230349290302382 0.7223458296923227 -0.9019638149146981 0.4167598816048435 -0.424766553959404
P 8.020752623462519 0.357582388867745 7.114978927784925 0.14351512180823672 -1.197238557928151 -0.787446108780076
P 4.802106816184994 0.5179720802321959 4.882460168772217 -0.07422646271474313 -0.23415165044988706 -0.003539123501510034
P 8.464902754473988 3.2106056019515763 0.3098189748285689 1.416103971642929 1.1875259586260773 0.6296515942346897
P 7.16160844315299 2.929271925992081 3.878968114764569 -0.39070637905090133 -0.35300140830095983 -0.3350407100574811
P 1.6046871509679728 2.369894166652165 9.980516375878366 -0.3737005885215241 -0.8161146803593623 -0.32398033847826135
P 4.826980914261956 7.030667956416118 10.998586470742717 1.8100851647903602 0.07066908438078796 -1.605293198449513
P 3.806876417729987 4.12635282775578 3.3011557726533187 -0.8856558217832942 0.7312456503291084 -0.725090686471306
Ni 2.882151728378981 2.4451045444726067 11.775225280079495 -3.557661669523538 1.1730295647821152 -0.3886662086924209
Ni 1.1337516502134872 0.7695367811122913 1.4833030225613708 1.616931039798757 0.9536147063217705 -0.4949234745904638
Ni 0.552678200822032 1.5266190544545368 7.695184035001177 0.7364963572050865 -1.0715234404158127 0.30998608108169834
Ni 5.448272849014717 1.7682478993129773 2.9198037802002443 -0.885693874110081 2.3846164210121383 0.10187456344931488
Ni 4.38353832131917 3.2021702779638956 0.6749848853597484 -0.1325737923053846 1.3383599826932304 0.537404783683126
Ni 8.94026725976231 3.0188719741444485 2.463258868658294 0.3901852164401087 0.280561090952362 0.37149483911945697
Ni 8.336599455084027 1.4346023503013414 10.08814669933425 0.04437312679873648 -0.3879416718215706 0.47307681102901755
Ni 4.9916626969495494 2.47473844410253 12.0037867238019 1.0350608267134045 -0.7109676168063627 -0.7120212548818576
Ni 1.5503261741584757 3.2875342865102493 4.033534859711816 -1.566855977519237 1.8541559298573291 2.4178589851153522
Ni 6.77801254425352 4.054652573860495 10.222836218954534 -0.12006306143288355 -1.8483208112327911 -1.186821476359885
Ni 7.865737464778236 1.219345378912011 1.107520365477505 -0.48564719149486035 -0.7763176029670824 1.719611129868503
Ni 1.808347849075764 4.574803320015871 10.482101139335366 -0.37223043173390086 -0.5040945995667706 0.6791748977757981
Ni 1.2452670008828681 9.090393973608416 9.545396084608393 -0.8160573447588656 1.2095016915662202 0.0988900268996942
Ni 3.078746234606025 5.297594806803404 8.737569548532415 0.12626790469201482 0.02899741567361458 -0.23420615783690632
Ni 6.1629781864458675 9.073201717420018 10.426624641466931 0.13672818079339033 -0.18452524567201126 -0.21820849685706936
Ni 0.46422951007234026 8.2181557446252 0.11391914234168717 0.8891970021673331 0.32295523964785666 0.43039829832388454
Ni 7.438154751141263 2.280725992385877 7.954705323071831 -0.11829131424444145 1.7631887573491376 0.8502687005332518
Ni 2.0900674548909044 9.05072589773171 11.944961824995438 -0.6002114345967018 0.37355017898658893 0.2842231131849815
Ni 7.1680314186076615 2.4411625466613702 12.318997690042202 -2.1399024216653726 -1.1703872420632617 0.13136743070210924
Ni 4.955899863659732 6.098601411001761 6.730949317238157 1.5120781104474088 -3.9597801470661227 0.41890315320009147
Ni 8.11857665306257 8.261931216822706 8.990890230255697 -0.31833548148765817 0.5273872515461239 -0.571213504702455
Ni 2.6654245480157632 2.7884442839058146 8.034885926104621 -0.6040439209689145 0.988272405604956 -0.0338701703848836
Ni 5.241000950114814 1.1352402367995484 0.577441114345344 2.6683170860347465 -0.6202994635958285 0.822164486097868
Ni 0.5252937209221565 7.468836174665081 2.5904301071383604 0.002474172572105416 -0.6210975340170917 -0.05198179238392983
P 8.777441615904248 8.65042474936644 11.455763572143441 0.37146321455057313 0.18603114079357638 -0.6857080709086255
P 6.347131049231387 7.184121018065645 7.936777962396488 0.9342077625500687 0.4613052723153862 0.8957144915708767
P 0.5167968319336944 5.240063691893962 3.076239528305546 0.8911978346474457 -0.2755114443435965 -0.5980082562977959
P 5.859931361703269 1.9437816619890802 10.019060660770657 1.6078257350633791 -0.1860954183726085 -0.7516800069240603
P 6.817689808936313 6.327669157939549 4.6469722030215825 0.4480790034330992 0.3520452150352776 0.34439978267487786
P 1.9154250064052214 5.852084121305143 7.170898326106743 -1.3968584931497556 1.3153650644599542 -1.3802903043784294
P 2.7415997504753182 7.836471117391785 4.47660346824687 -0.3711953056011672 1.1975846284136602 1.260073748086817
P 8.667488362269625 5.214206391565711 10.465559450617912 0.4765100050802826 0.2435667731161999 -0.32771949380571946
