# total energy = -340891.45915142406 ev
CRYSTAL
PRIMVEC
9.00304880187791 0.00000000000000 0.00000000000000
0.00000000000000 9.00304880187791 0.00000000000000
0.00000000000000 0.00000000000000 13.17687196367062
PRIMCOORD
 96 1
Ni 6.528858091197596 2.3097862421558286 11.615834668592285 -0.33303422115041353 -1.289013571049619 -0.6578301135514348
Ni 4.782437640926973 0.3235785845169189 5.866909812943012 -1.1453315846462144 0.5071164171122298 0.004945002710101161
Ni 2.875483823734975 1.340130854486434 4.957349777424376 -1.19382104760617 0.5087308127872012 -1.0920213032588484
Ni 3.39508579437601 4.099880483180509 4.700295622357221 -0.2029050337307796 1.0666907949138595 -0.20029793512523567
Ni 4.776855750539936 4.252959325520488 2.6126046959574762 1.3722622918676302 1.1789839825933373 -0.1239053179971092
Ni 7.324592578065737 6.082973085861491 2.596437020542895 -0.7533393969043543 -0.36052934124688873 0.22898501864728305
Ni 5.265064089278396 4.721739084492454 11.400076599035291 -0.4258734138703375 -0.8056785726277028 -0.7141812386476539
Ni 5.564262417072579 7.650520958374619 12.3672057311521 0.2964587360192249 0.7403596968152347 0.15701392762561991
Ni 1.8278890407743256 6.508718270559206 0.4037183249865469 -0.5794901428889504 -0.5399928561252766 -0.28497310397712855
Ni 2.7638280098962156 1.648467277027138 0.08186742557490606 -0.7065712875108798 -0.9903244030379784 0.43563846367690134
Ni 0.5114974259210184 8.881804950313835 4.591639624449043 0.8902616959864216 0.09673827066401404 0.8974142478708029
Ni 8.50295664791624 2.5082314484639987 1.4550952888368638 -0.057894558323939 -0.6402905620057746 0.5936618064036421
Ni 6.8165775315023085 0.7981725125404151 4.680055867874805 0.3688872262932808 0.30714398364721296 -0.1177981766581068
Ni 0.8057665843814885 7.206625626870022 2.4968984103685115 -0.7963305557538994 0.5110805439663004 0.5923816541396378
Ni 7.676170645007954 3.6876758841958632 4.068412125971138 0.009488913327041723 -0.12048086569659251 -1.9974219117692373
Ni 7.542007208640821 4.124557840520618 12.750034281517612 -0.7886560699277773 -0.33063743878346286 0.336664104593517
Ni 8.017197138508868 -0.3014409873029112 6.8291772985936925 -0.3176981050139754 1.044479548924143 0.13454428576819408
Ni 6.912883146776717 0.7849803448240844 0.44471280835482657 -1.429164404371313 -0.7750117396714652 -0.2648562786225955
Ni 1.8939444113705983 6.515479560366731 9.172078555623068 0.6371306762205544 -0.24299958775882025 -0.72243525112633
Ni 0.11138392175861599 4.914539379070507 1.489816447654035 0.34497108179731556 -0.3100375031449241 0.35995007170465104
Ni 6.26133248982534 2.244054981323965 6.9864038456132 0.6542028012114927 -1.1175258752878559 -0.24650940068429159
Ni 3.0429045231500336 4.1185618098790595 0.6508547212627991 2.026455579997426 1.3936929509375804 -2.117373387324921
Ni 5.9154713590053305 5.531194218053892 4.7343181445711116 1.1505275270248574 0.050893701526073636 -0.7045192900778575
Ni 5.499152366622498 2.7176873837130486 9.278639544026305 -0.7125305904181083 0.4005339066642844 0.26495115232924693
P 0.04529253896629798 5.6832287067085545 12.542221402713134 -0.03738846795078722 -0.5917499340929099 0.2218232107915212
P 3.6675270605084624 5.789122569180049 12.473596561929023 1.313710045355034 1.120247130873761 0.8532360106916919
P 2.231198627335757 8.472094195905333 1.2679696160506642 2.200112772606682 -0.15215814219521534 0.5388697982644268
P 6.3003787133875635 7.873229381768376 5.520687659857647 0.48472853633533286 -1.0831016321717153 1.6507808984686665
P 4.828101105512539 0.8620842571670853 12.47325354576169 0.04215272210864999 0.6346081669090167 0.15417954350061835
P 3.994328736571445 6.1520714870236 8.050489513447939 -0.2281239561985684 0.48798432426846927 1.314499116915233
P 4.656358942572033 1.1039898819677432 3.6853467954166272 -0.08070332868833842 -1.204078720778436 0.08029683727853913
P 0.20095795728723737 5.438399791893911 3.8237434654288966 0.04093324787925209 0.4522135944267631 -1.8283189141895675
Ni 1.406735411072399 1.0398791699579222 2.653755832378554 -0.43689316201960887 0.5054742535231166 -0.6272998061730616
Ni 1.7307011266968058 6.5356193810051195 4.873268502097579 1.5106416351111984 0.14001816439857176 -0.3930576528918973
Ni 5.785818450192884 5.546301334294937 9.242613843407389 0.995832220230085 1.12336459345682 -1.1307035503203946
Ni 8.634770288491412 2.3158002788954106 10.109204126604654 0.09440962253083741 -0.27379883252786397 0.6110499199731024
Ni 2.439745254634661 5.073308148385658 6.94506814668739 -0.6983892659207197 -0.3152067060506894 -0.05426416066020333
Ni 0.6242237022872267 8.818927656018568 9.06182721743008 0.15001872725470938 0.05095592222257676 -0.7903167454596518
Ni 1.0289674745561663 0.5591361594596742 11.186822277408352 0.6208771904761694 1.9081195285579782 1.364661853812553
Ni 4.025605328836874 6.928197333145022 1.2700853325683312 -0.626878916585559 -0.39255294534133683 0.7448115619390012
Ni 5.6577590810554454 8.106606418240583 7.6620088489131 0.9649188184806801 -0.9066074843342967 1.2611620960549894
Ni 5.244519131434496 2.823869343752907 4.756442237211602 1.0052787103549654 0.18362407401398054 0.3802383896400419
Ni 0.8780304575759879 7.327383523259256 6.9705917906345665 -0.2476571411354896 -0.437399412232066 0.3997839158721373
Ni 5.1034053412306015 4.62432609418965 6.924907619036275 0.10892735653103822 0.15232912055544087 0.5482311848746687
Ni 8.326415859852684 6.922669461052053 9.19341128025546 -0.38528237982185254 -0.18056291859015355 -0.17634322408185113
Ni 4.820943681548516 0.3939419140651223 10.284957147879716 -0.6442019812450389 -0.6757285910984104 0.4411989884838144
Ni 8.10005219856032 7.063090016482075 4.868788584909532 0.7198672332888376 -0.3665914882805687 -0.6332205425328707
Ni 7.219725063181536 6.350597720772872 7.0119013807182435 -0.11769250431817795 -0.9343126635590491 0.04770219117196946
Ni 2.4968876067096977 5.359695137436692 2.5803476716547116 -0.6270087572952041 0.16451383554709087 1.0336469770850134
Ni 1.997974642696744 5.484045250381454 11.30157964163152 0.5499839058997172 -1.7500735601234183 -0.3622946606774276
Ni 1.2092175188123981 3.4057273983074254 3.749254938823693 -1.1370742297334286 -0.13012970164026622 -0.5880586012842518
Ni 3.3761073670600847 2.4831039386733216 2.481731874003992 0.3957791655881184 -0.580727100619845 0.6426549484728932
Ni 1.1063936960537737 3.2918208222158296 8.311892141187576 -0.3678155904956569 0.27554435446406095 -0.6856263098280966
Ni 3.794947213166095 2.7847781049456266 6.927463584650598 -0.9501097784923058 -0.787621972236308 -0.1404835340707645
Ni 4.295543747344172 6.731606754933191 5.971363187572691 -0.9807712121319044 1.4946462881242066 0.19073240292398763
Ni 0.640728091734833 7.300284345735093 11.42064586511152 -0.7773277893991516 1.3977640356831604 -0.8820691328733004
P 0.4424782515902096 5.373829924384512 8.0435580660141 -0.7280893640883138 0.5216068974189211 -0.5448093036773134
P 8.690553180165734 1.4415321955012657 8.053031974488743 -0.2514852566323282 0.9003008253899786 -0.7658758388084681
P 2.0259741251220413 3.328472234741034 10.588631791642344 -0.5772550829108446 0.2698575884919288 -0.22210603213926264
P 4.030764075920377 6.072727616086575 3.923584578050061 -1.4734783957973399 -0.010926159994200537 -1.6573194709181331
P 6.9587986967346 3.932585826451609 10.228691692778385 0.7348557362778699 0.6852954088512391 1.2013430670148277
P 6.4002765452174994 7.646496595466545 9.856709115556846 -0.8012333923721556 0.037797530463747814 0.4731035505018948
P 2.521420915265626 8.377733239217378 6.020262347972936 -0.2741071077969021 0.4682184544954517 -1.1074155263267316
P 6.8270300714044865 3.98889089496859 1.7458298502554779 -0.6122544818041649 0.7217009440634667 -0.4573845971047413
Ni 5.072677934954865 2.757111735333749 0.4589871425623215 0.6798778373800937 0.36958733768409896 0.15105873848344953
Ni 1.8455530229345938 1.1960820703048392 7.2212681857820815 -1.3073578778847614 -0.43197592722364964 -1.3078103920411477
Ni 6.85027594395179 0.7420898193340145 9.047451148768758 1.1075368823959442 -0.3328367604276268 -0.23131546655267257
Ni 2.8483306279167437 1.992464776701798 9.114350105057392 0.8614640550284389 -1.529275705272618 1.7728597047799983
Ni 6.244712861350388 1.9734413341408161 2.4927083913586294 0.724578522721578 0.39340989402499343 0.39125273847267455
Ni 4.02304846291765 6.876474816574818 10.40833223061655 1.0111148574207682 -0.5880863691983936 -0.48691140291926466
Ni 7.925176974563863 7.286023516101115 13.574682060285705 -0.1849564196721589 -0.15049875221492146 0.1890537296699841
Ni 7.580900380369852 3.9656540254702963 8.176170277036578 0.7826314610002522 0.12525771825994556 -0.7900442085245555
Ni 3.2386668208528206 8.14507644666608 12.30476058320938 -1.0602699789891803 1.150434967311051 0.18382102051613503
Ni 0.03258203437207449 4.739745182515153 10.156443124767206 -0.10605646274114637 0.04754458254818263 0.42188691841876375
Ni 8.795762810912366 2.2569923627532744 5.877425374188268 -0.15332233770664563 -0.31882347686767026 0.5625149484871925
Ni 3.974053870197886 2.7623335037603316 11.455748753206773 -0.5303553330355124 -0.39085190348983007 -0.6059673632438725
Ni 0.8030278568722359 3.55977856994063 12.540363173397191 1.355160342080021 -0.9903064053158495 -0.4602197525606913
Ni 3.4163059808957614 8.39548725186776 8.14859123700011 -1.7617522820129272 -0.8985046527215043 -0.027802881144881147
Ni 5.46114149369658 7.7560637019346705 3.5195952612882726 -0.08508166026169219 0.22469976100836783 0.32182755380131667
Ni 3.0935196646918413 8.38268491617362 3.296800408624007 -0.9099666306145167 -0.8792229216737567 1.4693026671530955
Ni 3.7153512568567524 4.27905916460439 9.172275722396416 -1.2615498184117113 0.3751085246126443 0.49503891712240544
Ni 7.201043736482986 6.163631401954174 11.409893523677265 0.42320100924449694 -0.05223144650089069 -0.8160768851428913
Ni 0.5303705175635108 0.09996715530732345 0.3989782196820713 -1.492993583012132 0.11816224486574489 -0.5123900068063434
Ni 4.458886065557088 0.2889420543604544 1.6175003896476996 0.4802226780451794 0.9250885738576197 -1.27634728843586
Ni 5.626023333290438 5.417764803559898 0.3056661182039376 0.8281965512245608 0.032827073832349916 2.1718566059744657
Ni 7.565721239736716 8.782132194709183 11.344377435716774 0.43333629790628597 0.4505081816998822 0.07435167543869775
Ni -0.05815249417410986 4.838589657610761 5.930343495667179 0.5811734441286442 -0.4858469662104923 0.5475009915768636
Ni 7.801231998824612 8.736054589869095 2.480059107497683 0.1697473160318883 0.14922168527471072 0.5143718131230625
P 8.546279319758856 1.6119509102371037 3.668875717250363 -0.20467035316131846 -0.28019033787650455 -0.45711128883869667
P 1.5805032600404594 3.106096924160697 1.530032167282833 -1.3355744495282935 -0.9536337324851641 0.47180591473639394
P 4.6306732437426525 1.1101479674915065 8.110391300044954 1.0734718223914352 0.6382125964308235 -0.6835090063747776
P 8.495430098942752 1.7111284981461319 12.518081527399001 0.04019456994101464 0.18290853600419466 -1.4544951698266178
P 5.997318077567511 7.681806553689059 1.435212055095298 2.267878824408062 -0.3194210012423531 -0.728105819148546
P 1.825575257178409 3.177752191242029 5.7922502284065915 0.20246306109735454 -0.5599829260939582 2.2791700810511655
P 6.868408084660649 4.033104868663328 5.9719168750868885 0.6278078561577316 -0.112807922532367 0.8144267511339781
P 2.508672597865554 8.381307449674884 10.13775819684905 -0.4359626797855395 0.8847451370435667 1.1369397610380936
