# total energy = -340878.1311088057 ev
CRYSTAL
PRIMVEC
9.21316517458269 0.00000000000000 0.00000000000000

0.00000000000000 9.21316517458269 0.00000000000000

0.00000000000000 0.00000000000000 13.48439851400951

PRIMCOORD
 96 1
Ni 8.17199458912442 6.869096409988209 5.384104627808956 0.762824453576654 -0.7204770989586947 0.7518656405723051
Ni 4.485834843281551 4.245398871786485 9.499327003613434 1.1651596751157354 -0.5396974363720448 0.20124718641238246
Ni 2.290217811634095 5.960014976131399 3.4552824332138097 0.49705054823579553 -0.23045646098648698 -0.7744468683069308
Ni 3.137902712784343 5.886475491728073 10.2608586759233 -0.24913372568101608 1.5103526431158698 1.5230482363056672
Ni 0.33558309217640836 1.6062140029305398 0.3147770012683612 0.4162752286589412 -0.9181936465099994 -0.04618241209333337
Ni 8.32067664867101 0.7400705253580836 7.22070672429792 -0.8631134177064038 0.7938820942134069 0.2925252052927736
Ni 4.905457664207875 4.39351892825758 6.216846696366651 0.01069244671683965 -0.782235511113414 0.08388326907821682
Ni 4.374180494561441 8.865147070843825 4.291894952460285 0.1502187590806574 -0.9994484768264336 0.7900786613069167
Ni 7.051001143145222 7.878288096604545 3.6725030711083364 -0.2540345054167431 1.6589883739801237 -1.437084430549338
Ni 3.7210868550101233 -0.030368435040120944 12.911176733573154 1.9465840031817638 0.12484119954781725 0.2911031281342664
Ni 6.565430485917343 4.4205503548723835 7.948473067568727 0.5364940989433986 0.15021541664654775 0.193416377514054
Ni 6.2617922013419935 0.12703296402530054 11.092549522334863 -0.8219958217304876 0.34809908590333594 0.859912394270603
Ni 2.231741852287075 6.091081463869025 12.729595382513677 -1.137260377602306 -0.2518256706908824 -1.470779765919254
Ni 6.17789711928528 7.557522537974349 13.278343477275877 -0.9561981507782306 0.12836798175415312 0.35584710527987107
Ni 3.131904942257337 3.6256016111669664 4.61305299192681 0.2496379190109443 -0.3027116589074722 -0.09998814505987941
Ni 7.4287685546949085 4.314258068282409 5.156420598228529 -0.21797195536623107 0.03271420240356947 1.0469753187628033
Ni 7.961869931045409 1.48271152379917 2.53409582163744 0.6091028235490606 0.03322096683665891 -0.42881629854874537
Ni 8.769919795625485 3.5473818388562366 1.2706456518184066 -0.0753070973734316 0.8883611365295991 0.509708089098806
Ni -0.031134049065918545 5.351089250414904 11.52518317511716 1.0186157937835039 0.2555787099754115 0.3120013117395143
Ni 1.3463935319134743 3.1876814442089456 10.83750515614299 0.6248096927613561 0.7658645259545585 1.2719859261433706
Ni 0.5490622636945646 2.0821937552143117 9.041087200868452 -1.209574968006317 0.5123869214825498 -2.995019194319545
Ni 1.0755264758551175 2.1099622350428793 3.1431321053360004 0.30298033918782663 0.511527401695732 -0.31111530959013517
Ni 5.15800894790419 5.541230553235732 11.796988131390032 0.084809380436912 -0.656926885010875 1.2354158403288207
Ni 6.489053346641024 3.482972601138415 2.4425777667173696 -0.7380302773511096 0.7402679084323767 0.03195829807415141
P 3.2823743558473053 4.021583450261803 11.777475568872141 -0.20961124210636156 0.21135882092508762 -1.0091978429037136
P 7.283780974382312 9.535073163164483 5.213891401255276 0.29060510545192536 0.4208528207272945 -0.9553216617105481
P 4.0595416907706605 7.352179512619633 11.91853649818841 -0.391585439221745 0.03162868264887456 -0.2405624390722373
P 2.5579523915339544 8.325366149743587 8.377762341393568 -0.4700328819963712 1.7056125015965657 1.3777292285194724
P 5.256626667905844 3.1532334196306393 4.373205741686238 0.25371748839695657 0.3395545387674346 -0.233209855361908
P 8.44932928713356 3.5662596142937733 3.4282602197641783 0.43841731197361916 -1.291489800504253 0.1836143038219676
P 1.4748895465680971 4.853790233923001 9.48875581789502 -0.2667614660651083 -0.355477123534962 -0.844074913017714
P 6.7345934116414075 8.961995863132445 1.5441789978775555 -0.007589382311483703 0.4630937316743766 -0.3767450317748028
Ni 1.7092264027192638 7.256878532079917 5.285129436998625 -0.543175110508 -0.8812756904377275 0.6685850380750937
Ni 2.805823387322867 3.9732235462736964 7.820694758481007 0.5868051884931249 -0.8820398222972615 0.5225630906846033
Ni 8.568768760424053 4.341768579486159 9.489052481813562 -0.1547482715198948 -0.9170009117534789 -0.9492021790763716
Ni 5.918868980473011 1.2383599571059816 3.5211676199921946 -0.32398445224331945 -0.062153847820925215 0.4112767470030852
Ni 4.024172349675149 6.366435331366172 5.258766886175313 -0.7209069874072617 0.7721295330276637 -0.018842329517483675
Ni 6.194066224162232 3.4675221231448816 11.157112619911057 1.223297202688416 -0.8519849118934101 0.2577811169433689
Ni 7.6078540593092745 7.223757203286387 11.307962537222634 0.06468278489036602 -0.12418428269010871 -0.9130247007145502
Ni -0.08470123400926882 8.954689823151007 9.331824290253374 0.33230222808039545 0.33480416856664275 0.29531948020845916
Ni 2.4866609194326084 1.8520304628860846 12.64848728292151 1.0462039878144176 0.5280151149381099 -1.1090193804787416
Ni 5.41107616885014 7.115981597103712 9.962556656615602 0.35034880116946115 0.589588664775533 -0.11031600934844873
Ni 4.34864160070451 8.961756320837972 1.8144610179474872 0.9119630922192553 -0.5469474330662387 -0.6875551514196933
Ni 4.851486942629988 9.303638454042513 8.351360173960018 0.14993053841627726 0.4559887451984792 0.510869713507075
Ni 1.1789811075721002 3.1040259044467047 6.401852580920577 -0.3018035452709061 -0.6250385209427106 1.2488303139625139
Ni 4.283863836379806 4.6862672515995625 2.4960426855273097 0.46210308562633323 -0.03344182459821338 1.2219329753510375
Ni 6.232494336094866 2.1929636400779042 6.448508970668371 2.3243561906695 0.25726072566352465 -0.4219262562971314
Ni 3.417494636260634 1.5957017814692274 3.064208447206126 0.6657341988898599 0.8148594677960224 -0.07583545907307586
Ni 1.137042779708915 7.818955312896524 11.286091404420697 1.106100921280366 1.4466610184941795 0.07722334055953797
Ni -0.5041923066736322 1.9787944024883612 5.098451362965971 -0.8223400924437838 1.6637307737611153 -0.18018496642544451
Ni 5.986336989027954 8.48115155963783 6.457489964078087 -0.5586480093326185 0.02246784208521292 0.09601193402095078
Ni 5.809656120523496 5.783370960287628 3.9422719178781844 1.1184833541051187 -0.11018488308722314 0.13867784832059343
Ni 1.6021325707593204 0.8710844980542283 6.845233390876074 -0.1885791040264107 -0.8051959765643294 0.7366099999648152
Ni 2.2659411214057354 8.494040777713533 3.1419730891573563 -0.8096149315676314 0.018855956364238494 -0.2407133628278048
Ni 3.6068251805463225 4.272522430053009 0.38253798847577625 1.8476242993863985 -0.7242957013738365 -1.5942515959233705
Ni 9.024838862771018 8.709794679712667 1.8533636078864808 -0.07624452158603644 -0.722225449108369 0.17291260113374737
P 2.352065789434087 1.1457215813009891 1.2097650563614808 -0.020948320116892953 -1.1581937853208633 0.638539640752939
P 6.99678166610769 9.118122160138055 9.160626176342804 -0.10608320221402374 -1.0054841414975522 -1.4292703338215578
P 4.21212091918503 7.045104717435108 2.99786536611869 0.08327674584246948 0.03510301435072019 0.020298602348036012
P 8.262053278681238 3.767742323441399 12.549794936281963 -0.0773099867360733 -1.7645046479470836 0.4549677601331326
P 5.731288937570013 5.102554906733603 0.8085031523065414 -0.4393861036447917 0.020991000429370302 -0.12700761107151676
P 4.879043519659598 2.632772505896196 8.028664457226276 -1.0182249861029884 0.043166508085145015 0.8271354569498982
P 1.5958307657816362 0.9041874005174145 10.744395987597706 0.14392649831404244 -0.6972376688147799 0.22147611186474758
P 2.165471555204498 4.362949646216708 1.914582326505221 -1.4671036026192474 -0.352356061407477 0.47644392772903754
Ni 9.315799832069622 5.342797401760056 7.110930018639874 -0.024288954454351717 -0.4614464258789408 0.016615239959177838
Ni 7.7940429142712935 5.64798349808431 0.2445210889323542 -0.19967675660146902 -0.03749156918755479 -0.11074744045891251
Ni 3.36631550372988 8.41123284914712 6.491308729475143 0.78870569221879 0.0074808817580774385 -0.39794814821497915
Ni 4.101360247486609 1.5437211035685048 5.989972504004847 -0.919974649669822 0.25723424330096345 0.35549897791183294
Ni 1.9038637301440546 8.222666997570713 14.019055238929933 -0.8365855466192044 0.3604799760661921 0.0777344758680016
Ni 7.991527109734248 5.563904152724155 2.6942095765295138 -0.24089025472530123 0.47777395939437073 0.7424266066465923
Ni 7.265658678488884 2.1307287093406866 9.188983377425865 -1.0043245739718123 -0.1973601926531504 -0.6340031863351663
Ni 2.7625860031704224 1.6183569546273058 8.966909244118701 -0.07268945724492643 -0.37084460712996775 -1.6298667740238186
Ni 0.907438726506632 4.411309550204814 4.623570741287225 -2.188626112123321 0.5993403448456581 -1.3537575481952233
Ni 1.4353466416496456 3.7699719094130364 13.276159035813581 -1.778075701763299 1.3768000318369835 0.09765461183069633
Ni 5.001320647823086 2.263794453920647 0.9155370986928665 -1.7735701005834617 -0.5442428896508821 0.5725054840410011
Ni 4.496807723001465 1.8155279024744109 10.285211835422587 2.106584010018901 1.432449759990804 0.5935016266766939
Ni 0.331649991964459 6.675573875549237 9.490940259357316 -0.7448203036897495 -0.5596980478636877 -1.3085858367545915
Ni 2.3440595488995726 6.280605484623327 8.038130984440562 -2.3257240175513045 0.2036573385157718 -1.102201843336276
Ni 3.5050565580558257 -0.22960313188576606 10.453375132725483 -1.1271325451396845 -1.6399678670135625 -0.2942730412218158
Ni 0.7678233428058587 6.212510980836683 1.5318278286479015 0.13395370337204673 -0.0691863291876744 -1.0974023650651035
Ni 8.771209638749573 1.4910678646102222 11.00108490377279 -1.2702404042071738 0.03725117104197456 2.082777908738239
Ni 4.474650060762678 6.409359467902767 7.7903014478949215 2.7594842903688863 0.15398336832941226 -0.30468215237028173
Ni 7.917573032898179 9.194784907534707 12.793309947577528 0.8109873864351258 -1.123098227169311 1.0252669805514343
Ni 9.486335519404323 9.046627998402924 4.8324580712836305 -0.13541820373271518 -0.18203101849524778 -0.9422031220507192
Ni 0.259213323432227 7.977624443489621 7.141539838607504 1.09043724660118 -0.9372874299166568 0.6657210862637374
Ni 7.384315032739754 6.938701872863069 8.091367416754233 -0.4751041258716915 0.2875868874508918 0.4010383571045287
Ni 3.856032085285183 6.574717356410773 0.654971282613382 1.8049889812143751 1.4681207310298523 1.642233780229604
Ni 7.150272997874093 2.027651817395758 0.17524637868717086 0.39119334598964883 0.28408504494522047 -0.6868303574385268
P 6.815042769923774 5.329963462675386 10.173789658464813 -0.8693133758695286 1.2181999906711667 -0.3182357226850003
P 6.248617375145958 6.343089170820189 6.213988772530279 -0.7664265691056155 -1.6827787915315018 0.18732569123528384
P 9.196305079788097 7.127175592787756 12.886419116122813 0.3091764406962095 0.7307432567713932 1.8212769197411212
P 5.200453999851838 1.7954892682251957 12.317134876192108 0.489297386652938 -0.7374188690193558 0.5085253816446146
P 0.14922655760825887 7.145684841618411 3.5092199873970764 0.5661450890406121 0.21920505644238378 -0.35634692773442495
P 2.320989783308752 5.1616020823212905 6.047806305739376 0.17173786409935585 0.8016925913967613 0.12533408002383575
P 2.3732284298342923 0.9182208937074856 4.885735041524061 -0.802653926868766 -0.40100339010153524 -1.2334337769017856
P 8.374942191534403 3.15853098960457 7.369628326138985 -0.14498887814028577 -0.28993533307841035 -0.3749982242870252
