# total energy = -340859.61042338447 ev
CRYSTAL
PRIMVEC
9.38496252794019 0.00000000000000 0.00000000000000

0.00000000000000 9.38496252794019 0.00000000000000

0.00000000000000 0.00000000000000 13.73584130619119

PRIMCOORD
 96 1
Ni 8.152238336479332 5.461654037270334 13.024462292654478 -0.5410071563224038 -1.2738607745685804 1.163475602545093
Ni 8.17650784964073 1.6899314369476741 10.714711327369573 0.4984759678284124 0.469636674999217 0.7386979928420956
Ni 3.444666040322052 4.903933867648361 1.893444349903948 -0.18336902058038096 1.182018655654603 0.3071074739823227
Ni 6.368307114603364 7.696955033120569 4.427624494186429 0.9693765971417176 -0.7471075570620295 1.771009538945137
Ni 7.080578847543941 4.062600129682436 3.9223381103466424 0.6219069172922644 -0.32909811932080096 -0.5037385017789325
Ni 6.606844707806482 4.810553490248549 7.307110258153331 0.7364608759814606 -0.11895954395605965 -0.05773849236204895
Ni 3.5128759481554024 3.8630945957361846 8.962389597867505 -1.3334723155836261 0.5519304881031268 -1.467640963179956
Ni -0.21049907908053714 7.494868634472312 12.902473733905133 3.7473278359665403 -1.417097960125082 -2.744127348296842
Ni 7.227828909996508 1.3308721546422058 2.866532638651604 0.0474903322714795 1.8126161587423297 1.0728131057615136
Ni 0.5525424857816236 4.253218104091239 5.321402341393347 -0.7474811383513643 0.8643470330031888 -0.6640997486102305
Ni 0.13911893089686975 1.456668192699199 8.715143697911696 -0.5584934860326253 0.6305738489386431 -0.3227768050884635
Ni 0.9321914374315591 7.269760922682173 5.664083925548022 -0.1781152283806094 0.21604002845084083 -1.2032320565074246
Ni 1.7106440493015822 4.098553921222003 7.402300056333313 2.850812959981555 1.8660174571816057 1.094965730599153
Ni 2.3209200092189266 2.603651391082921 4.0383512634386545 -0.200848408312067 1.3784550509419036 0.2790752504354549
Ni 5.1190841341700395 6.699399208501653 7.207924342918392 0.23982144714115472 0.4638748328147753 0.529696616405591
Ni 2.5228656334288924 1.6214493652002944 9.198687000509283 0.8752014592191895 -0.5709890473964747 -0.6860263734799927
Ni 1.416631942449189 2.140831962794304 6.540568102258997 -1.8325838601135083 -2.215395409797365 -0.7066504774882476
Ni 0.4618471461681519 3.8572196091781663 12.869425526771899 1.3547679917376085 -0.7458438598582574 -0.7017347853541851
Ni 4.458495390007428 4.01570347180637 3.7634835416976054 -0.4286612610281198 -1.3069858392573233 0.5290091034202631
Ni 5.9697465249133925 2.21326510377639 5.235869669680142 -0.49661397491900916 1.3194528613760825 0.38154939514198155
Ni 2.911065224460634 5.524796065325202 5.112109230000839 -0.21777449464344428 -0.3223088643131094 -0.5478452622901597
Ni 7.26383901131139 8.274055150413961 13.406579489455787 0.04370952507280859 -0.1117188032332463 -0.9464706390778216
Ni 3.0291186684116123 2.655878707688946 1.337297100005815 -1.7542073797861337 -1.3666002084858462 0.8587345719124178
Ni 1.0753383942560668 7.305076536768151 10.024073810105584 -0.5260988717520036 0.6120446797862039 -0.6951866998230221
P 8.416791045878659 4.077935158493622 10.973741924802866 1.6226975099688894 0.5880498595335033 1.7423916180981285
P 6.550328463313852 2.1714363256788056 12.3143875794475 0.03050999566339907 -0.3048047939910751 0.5363184925974828
P 4.116028721495213 4.766753870014888 6.814872726246881 -0.10341234025007996 -0.4863974393973236 0.6110717743499733
P 5.0975831849617 0.3848397744378586 4.541563570554285 0.6709352834748252 -0.5938898632540481 0.21626397153618884
P 5.5125674591189755 8.481368973204097 0.45889275995654777 -3.2374667662296375 -1.0998441417373765 -0.4518287002835186
P 9.268720406566631 0.45633254217215896 6.534002382457096 -1.2304998910844422 0.4719439829761549 -1.3248781461567118
P 8.699184569090752 9.142539585044975 11.647829060605087 0.29726014887459773 0.2086133969694665 -1.0382664781348956
P 4.223251918660324 5.06845226119798 11.707277167399196 2.3120537191530635 -0.9944978176893777 0.6588714103317556
Ni 6.474263341823854 0.08790894423156177 11.285243847868554 -0.11241197264552898 0.22717856156616356 0.46447929916799363
Ni 2.8999909686483947 7.284363924414244 1.963551897165463 -0.207814555217255 0.826791443346918 2.6772457559829443
Ni 1.1990791255140087 5.457740507885839 11.376394358165832 -1.0595837515554332 0.5657712506409611 3.185422496038888
Ni 5.84675659065967 8.802268997770103 2.5214334881433436 -1.2044255625948936 1.5121539579906669 0.9680319101883651
Ni -0.11702203656643181 7.200884682507578 1.3706887967684815 1.2187561202849526 0.8912531133654134 -0.623611558688197
Ni 3.2139367359628177 0.6078593320600127 3.4487672689576017 1.8928281496165464 0.8720199761674142 -0.020594536321900014
Ni 7.1878583544843675 6.7199428915296116 11.296562112707164 0.9390928585565117 0.03916227202175836 0.10969585926594656
Ni 3.3047550185857304 4.114076649284242 13.367734190953717 -1.8303356875092802 0.8353059085758324 -1.3723255410053978
Ni 8.105754616955586 2.869837083966425 0.30675970148778664 -1.826784479822912 0.2822443921920559 0.5302527460193771
Ni 3.500196863746644 6.761949983915697 13.730223677072216 0.8791681571764214 -0.37293439977946097 -2.3080415126698766
Ni 1.6411014767857421 9.301220531886788 1.9129219011859147 -0.9509631276315365 0.683961263420848 -0.8821408666515
Ni -0.03483322701076808 6.053629320209827 8.067127988080998 0.3322968287637567 0.1562978753952018 -0.5488441358683193
Ni 5.409004397349435 3.7936364878833198 0.3995797966231998 1.490370286456672 -1.4518178801047708 1.168392066010104
Ni 8.76611812201693 8.211363600561624 3.4016669573941405 -0.10676171633828709 -0.2156834164423705 1.4915483659251731
Ni 3.540777441824713 7.905573365705536 8.653483555443906 0.22791055463618168 0.5723463327553175 -2.524005179356827
Ni 8.269015425523136 8.309126755473567 9.594471518276153 -0.23358420798219126 0.956520824224972 -0.40668244276418347
Ni 6.829446634595039 6.9223014540918975 1.843899255595497 0.03972817182755738 -0.849291424221647 -0.6215739594328779
Ni 8.118133382562656 7.815900048514058 6.576487169437117 -0.5528059487295447 0.05207255232552322 0.279699257172699
Ni 5.437722382760835 4.809408524817115 9.591778972519771 0.9524307133159985 2.5149422978236107 -0.9872102828890287
Ni 4.07334591180533 0.49223940889896106 1.0999129187004295 -1.5424531231948402 -0.4857675191228085 0.4819466027148216
Ni 0.9625499142971783 8.757286872254797 7.969713953776016 1.3680834778995923 -0.9893736090889348 0.0012647256450365315
Ni 5.5916826934386155 5.868989566947122 13.223412236817607 0.8478400364871012 1.8273030713305431 0.3057039087665767
Ni 7.470251877696463 0.4236569180522669 4.992786000616475 0.2233252492583444 -1.8544390083153868 0.6507518665484148
Ni 4.814823648210049 2.7936593429257943 10.453908849006323 -0.12230146384509902 -1.6472188921490212 1.929671286586825
P 7.551366109039837 6.298201444334359 9.138730228744818 -1.4651989293973668 -1.13156255588658 0.11817561460218359
P 4.551979001995321 0.30430459528398857 10.224040145713175 1.204964722927815 1.3008488731216499 -0.3241127502910676
P 8.918238980034372 0.43561054485569817 2.0741255259619042 -0.31375660386772414 0.24724473618841936 2.278055507830748
P 4.619963670727405 7.023565200036015 3.4404578231134013 -0.9138829349497875 -1.701918083464114 -0.07035849511890463
P 6.595338743716817 2.5194964318724566 7.445155549334167 0.7479215683228926 0.5822044564963198 -1.388391593329325
P 0.7498134601440668 2.376554067231599 0.7111502299155235 1.1040520091711374 -0.31524835792190226 0.513921098738889
P 1.9763229542072385 8.406007723905553 3.900099503081658 -1.5893356466789919 -1.6182980953496129 0.6985774706721259
P 2.696834684269125 2.770797574147308 11.681674051059051 0.11331700095830162 -1.185567806458442 -0.1934109781974153
Ni 8.369331290249427 2.4237510439093533 5.611956089545055 0.08669682726761199 0.12265524764009199 0.40320039775285405
Ni 5.4485995543594665 7.486750641864188 10.090362616104388 -0.029123399728517588 -0.09258593905853732 -1.9444065359144707
Ni 4.443329290522192 1.8700664081850602 12.882694925325223 -0.7660157068204421 -0.41815367662857666 -0.6042218413076755
Ni 3.219595868382123 6.190208680239923 10.440626311505422 0.39084547573192685 1.5489459300080355 -2.102686217626392
Ni 1.3157529799697336 0.8584265702632391 11.098738364050364 -0.7174797068932676 -0.08293556045296684 0.6544419138054922
Ni 7.539925839688041 3.430494746867407 9.164278912302153 -0.6546504302718726 -0.14672437277415376 0.19985570538149453
Ni 2.4500852488323552 8.883983866716854 13.24672166830986 -0.7579871800890107 0.1305423636976526 -0.026173830181890408
Ni -0.3376531212189124 0.3139016579904255 0.10445275621954053 1.4337682216919114 1.4545072540114756 -1.7773560499884553
Ni 3.5073669751369407 7.884776288688653 5.510284097729893 -1.1828452653209567 -0.5126103503472655 -1.1571545454230716
Ni 2.301577601397719 6.411431017533227 7.335914585220217 0.6668906810918063 -0.18050866831345042 0.6302357488729339
Ni 0.9901417042022485 3.3042013057951185 10.409349985302145 -0.30184365448022205 -1.4042974659263041 -0.5892793610652303
Ni 0.593425259653891 1.0083391465920208 4.210433936805785 0.25619114674842974 -2.5632432989218437 1.117631804738101
Ni 6.258625057249433 1.2249816221595848 0.8035892955712952 0.4441285034257835 0.6720724824030619 -1.4418790237245038
Ni 8.652653924754244 5.814857102942889 2.9463658226065284 -0.18158981719277112 -1.988815658157465 2.03369297828613
Ni 9.003773528740089 3.735186941104824 7.409977894197714 -2.1556694546916426 -0.4776158365499517 0.41657476217723094
Ni 4.408342150125559 8.303495777941922 11.986265826197155 2.287029429194584 -0.5312858152695819 3.685116909655434
Ni 6.435024813390828 4.272720056275842 11.60258321764205 -0.4632713949028215 -0.33179160699256405 0.8586677232302244
Ni 4.90495682856661 9.105919461164165 6.6898762869993815 2.123747152061749 1.0412384162790262 0.4242412775835532
Ni 9.275834208181612 2.8239633870086074 3.2753115755690043 -0.3389562430618034 1.7973754305331755 -1.518312521392895
Ni 3.5850932349987747 2.1980708494034955 6.059882520758721 1.7658861016756426 0.32910711818186544 0.17915935337440758
Ni 5.005835791046065 1.4730167974660806 8.459080625637581 -0.23530993242404635 -0.11130665539649218 -0.7513110536204157
Ni 0.9968331825023555 4.543992398862935 1.415670922283788 -0.6618081243625764 -0.6133896238498726 0.09941838859933845
Ni 5.56937463745074 5.380877664578859 5.113688719198466 0.11767193549288768 1.3279192469758807 0.6592851008304065
Ni 2.92845556007087 8.57475873556646 10.552573898819587 -4.2841034707061 0.9890257388312128 1.0301304792913228
P 6.419605319916667 8.4519752704889 8.192770112752125 -0.2442450301301471 -0.13575167581273392 -0.2908961543297829
P 4.918818418257016 2.5748395560459936 2.3020994053156523 1.097107202422188 -0.9943862318121778 -0.740604208725873
P 1.5767769434492285 5.146572689487029 9.417897201831277 0.4207353213128238 0.44474273997101466 -3.081621662101138
P 1.571014576441843 4.578378901656192 3.474453911464465 0.6448498992416829 0.3374117813928189 -0.36186014424317037
P 8.132980393321098 5.855784924635411 5.362816304146101 -0.4339384502666591 -0.0972936289468518 -0.352479988579851
P 1.5031049874101807 6.147450790849617 13.835701271202515 -1.2060327591810132 0.4355890984962047 -0.6520515591964448
P 7.1264056196889936 4.787757416207932 1.401687328080198 0.6213299617428719 0.08935791903954288 -0.002259999678770301
P 2.8881096060566196 0.31213071555672256 7.023039642133061 -0.6403970056766519 0.20548847818723964 0.9925602343470324
