# total energy = -340867.13286269625 ev
CRYSTAL
PRIMVEC
9.31178996564608 0.00000000000000 0.00000000000000
0.00000000000000 9.31178996564608 0.00000000000000
0.00000000000000 0.00000000000000 13.62874586487382
PRIMCOORD
 96 1
Ni 5.0308342487065705 2.919721080425706 3.0528666415643246 -0.778644451328046 -0.8610030562316203 -1.1406303225158034
Ni 2.384311776413544 6.905008919290308 2.9000331627333877 -1.2787034473728622 -0.2185499393568881 -0.9101142119359746
Ni 2.184173472974583 3.83800325572153 13.478530218302733 2.3757731116888956 -0.28395648978715615 -0.8725403674472587
Ni 0.5132099965446845 9.127183807438874 10.834784521801149 0.2361828219473029 0.48024350398078586 -0.25577411381566917
Ni 3.5785488496953923 0.49761554175618455 11.230918313288015 -0.8201680244931294 2.033983512943355 -2.8164946463156593
Ni 0.04515938818163726 7.0935261087530055 12.0518866955387 0.44613267834000586 0.28610284670619757 -0.2304811435768353
Ni 1.5879954271282124 1.5156707538480556 12.277646389286705 1.574815598685946 0.4884262969018944 -0.41624231853847665
Ni 1.4571461534147114 8.562600665215468 8.829396486513149 -1.0957280626864743 -1.4968304402597188 -0.379436719674353
Ni 3.6014465414162506 9.340470358421491 8.671984400517044 0.543181024045271 1.2017940385093173 0.03353952651834224
Ni 3.945759290123226 5.543811450500129 6.368154425463149 0.6644427337719461 0.6685009630017197 0.5010432143349565
Ni 9.13197937931209 4.398554392855415 1.7685482425653514 -0.7255290595603053 0.783109171967619 0.9789315878200044
Ni 6.622684756913448 1.0383111489769394 13.028821973970489 -0.6125941245317708 0.9877970086304342 -0.40541746000883083
Ni 8.184448871484662 5.681141730085007 10.245014849863805 1.7422700049185993 -1.4711862573290533 2.1860719782428997
Ni 7.9124794196379336 6.189891379198097 0.15732083045366213 0.3502043051717969 0.48612721645507245 2.0165033538807204
Ni 2.050418920767016 5.7220670473331445 5.033572846158829 -0.9289609123288325 1.6243301604763059 0.5756833675483505
Ni 2.5674095040700045 3.849959594139416 3.9383256881302366 1.0408833469324525 -1.2646701092082477 -0.850662850647877
Ni 4.622409825539202 4.621366905054152 11.484399206000232 -0.689448254677348 -0.4736000305223392 0.8618862301675222
Ni 4.92306890251483 0.5859928098950594 1.726202877335338 1.1394769256376505 0.5959462315624446 1.3770250033635962
Ni 4.079243800419485 3.0211171622266106 9.586527892109768 0.6527881802521532 -1.561649236507317 1.1630950792772226
Ni 2.7203277201903515 5.232713856883962 10.29978866126699 0.4518708663753637 -1.2258017142778244 -1.4168267087415665
Ni 2.6913866767302346 1.5659264847213668 0.9592046990069488 0.09957522589217689 0.20781404099662276 0.044800958364774456
Ni 1.08176927311734 3.860658840901216 11.038112113330552 -1.0002450045858 -1.4584374423038173 0.28341090169633126
Ni 8.241762939212146 0.744890126403354 1.1270171233044057 -0.6451733440193728 -0.2059492198737421 0.6373227376267023
Ni 4.494260970938774 0.320084402188675 13.207590650434991 -0.4891711454877189 1.2525465864718364 0.7029221207940669
P 4.716254045613544 3.8646815342006917 7.468185050037901 1.243268246493704 -1.3524457713623352 -0.25702778371711216
P 8.161150772791865 3.9760971020901055 11.473686922732368 0.7439705540949445 -1.2261722102433656 0.7642203054829161
P 6.435480529847107 6.551095715046852 10.815309844100865 -2.46824566509802 0.6466810389131508 0.32830981909155066
P 1.73871606079792 3.3348965513757602 1.976468408944988 0.16363117583182143 0.03096662358484344 0.38842349655399555
P 1.9909817649092538 2.012333699482628 9.810843327221782 0.4663937425818871 -0.031525838522423126 0.2591227185729279
P 0.7608468098246075 4.205893456822655 6.518234407977755 2.3770424653196223 -0.7152333340612521 -0.3350250263281972
P -0.09336373170801654 9.257465061959625 13.013708007548315 0.9151157789156239 -1.2334270920335662 -0.723001150932129
P 4.828032773314716 0.007032263842046408 6.784253625985676 0.078515062787768 0.5909750036000984 0.3426840855353518
Ni 5.269476803981949 0.6271527842523337 4.147091365045967 1.6878361514497513 -1.2370546614838245 1.4872985895098838
Ni 2.7956042309147993 9.285921892337397 3.119402174973453 0.004010406710973738 0.6888167917409362 0.9212846267304973
Ni 5.907837258732544 5.837160772290367 12.865890790014664 -0.23178932086529758 -0.04603714476472071 -0.3495877546337205
Ni 1.8946419851028289 5.782305017134784 7.499926148764574 -0.5467306890697422 1.5341358615783967 0.25575817297606923
Ni 2.8472474185048275 7.860286836435246 6.906694353288468 0.28484326326748366 0.4253617643412416 -1.3820255419019811
Ni 8.931664151862273 6.456459992818677 3.927177613088264 1.2178438928833284 1.7267816794750133 -2.5450200910455973
Ni 8.608172565696103 1.5844290115409458 11.87123703748509 -1.1842837975396958 2.1354667544915222 -1.1736882814120366
Ni 5.965970763983994 5.051757840937872 1.836078275151295 0.3928506790874138 0.37085154910850326 -0.44592184788078043
Ni 7.27379305223576 3.2998190382759343 8.286836658925369 -0.48174374267539616 0.13380560782995665 1.6774869470049434
Ni 6.784467797156713 4.580665070767096 6.3050800844137775 0.4865733028535556 1.099480587750371 0.8485087804193516
Ni 0.9602224776588765 8.819280157808171 1.222674348900526 0.5893156136198043 -0.8026140747697661 0.3765038622982741
Ni 0.24912669968713635 4.898532335746037 13.172292447911094 -0.404654099480245 -0.7153204944584197 -1.3423127966933917
Ni 6.027726555562982 1.2185222217194236 8.801212491583696 -0.43076493763468393 -0.49364203677487883 1.1454652820106015
Ni 0.39428446998391153 4.465981064571858 8.711276429791274 -0.9154955308525458 -1.2297185328337272 0.46956519833133326
Ni 5.1256562067356475 4.150441747104187 4.898498813301874 -0.949864495250719 -0.14726713265150124 0.04334185732074471
Ni 6.359570817399592 3.2239186376184654 10.56845149646871 0.4562890500477174 -0.6335000214465025 0.3408902268597226
Ni 6.551132962207032 6.569933466308054 4.049973119591773 0.005339667045358545 -1.7957900883239264 -1.1521933447630546
Ni 5.055473245165859 2.9485503824052817 0.5428177641720292 0.5113366258411646 0.003561492099013221 0.81352275126247
Ni 5.491954091739063 7.768556392701136 8.98830777070651 -2.22311488992881 1.1303479667531888 1.041186222884852
Ni 0.10718615285093722 8.140273739510791 6.890162201242428 0.6754653101346948 0.8416927859387826 0.1288364367501394
Ni 6.196688985931007 1.8972679098955423 6.6472027001021505 -1.517265053964987 0.00546822220342284 -0.17094827831852494
Ni 8.461446689955736 2.9699395641388366 6.407077707851595 0.9703993819792772 -1.1256119947301002 0.5031260650059142
Ni 7.077183917223886 6.356600356375211 8.502156904853832 1.2788016635136232 -0.825353682459127 -3.624618338049745
Ni 2.7181860084799823 7.508124248720265 10.4902501524911 -0.8336974264381318 1.770043575487442 2.1148578199919195
P 6.986040116262617 0.4760475736537641 2.850929300288653 0.5412760937130743 0.433490306985647 0.547362152006154
P 3.4439934835439483 6.677400835218354 8.789696600834944 1.370354019101324 0.2983333273341185 -1.9153250451674821
P 3.1896791856226967 8.630176325572632 1.1374044250996953 0.41934384028193583 -1.2116997276588035 -0.3330902711993296
P 5.958754126699056 9.560973546689047 10.736017158329973 -0.8441494750093913 0.023769591615771968 1.4538025146349671
P 0.385659890044156 6.590177297866064 1.6813377417191253 -0.9274915268721574 0.11988308421159354 0.47790045766990596
P 9.025070717804496 0.9248162583704587 5.946453252049501 -0.7051479248007921 -1.3714343966496962 -0.07916786588041849
P 3.9962757511177998 2.8304489492634985 12.46504150804897 -1.3260917068488387 -1.412283312345258 -1.3521256690187553
P 3.555492857543768 1.6718946554344072 4.2077250859245225 -2.551869252756947 2.3906865384656184 0.8461389946355943
Ni 0.023352107075058238 4.31573533219445 4.3723472909525345 -0.2820973250912303 -1.8339342034938158 -0.05701266993961794
Ni 7.17009695829372 2.3712193996101583 4.695116282211206 -0.07201685665793404 -0.48252741491895607 -2.666686492409859
Ni 0.39356001271840413 2.375819423892429 0.5202096691215731 -0.5752007714849771 0.24372283907808992 -0.27130280557888764
Ni 0.32179311566194774 0.010851028939534796 3.433435775990834 -0.5167709094828584 -0.7985280776258505 1.102837420037746
Ni 7.143968075427218 8.737355028991534 7.2870316241428545 -0.944566222966257 0.5868908062283957 0.6039673020947082
Ni 3.6977770094326305 6.468965726849222 13.514659963677653 -0.8822033444583194 -0.4209294396015008 0.5701655230539149
Ni 4.5987020080844205 7.905206911612724 11.867053250217836 1.9576083793167252 -2.064148723672826 -1.3763506030043908
Ni 7.6861470508021545 8.3109681628272 9.91571643142552 0.6060226419618402 0.10348690224175726 0.12564338373413844
Ni 5.090671811536272 5.156506167155006 9.297434989549137 0.5993783971724451 0.5419587216023957 -0.7955949631394555
Ni 9.101837114936158 6.032568686386425 6.057990804388505 -1.1772230340381724 0.1428173244102637 1.8933117741211845
Ni 7.257246001325648 8.208361548320434 12.47982863064056 -0.8404131478954107 -0.6095810487370599 -0.0514688573032533
Ni 7.1694730683607 2.7100940629308052 1.9321880537436065 -0.4396301013347977 0.07637564784726202 1.2726981217190467
Ni 4.938005013747142 7.618161671683006 5.344853882038884 -0.5685778668518209 0.6094049281705117 0.34086631560032266
Ni 1.2748771750722638 1.3382997770693215 7.745230358638204 -0.7073737288075173 0.3221422568282581 0.15289090659618185
Ni 7.346341208476999 3.3277450966211366 13.387776581344353 0.4435044966885394 0.887563066108336 -0.8235330843106203
Ni 3.513245266109228 1.9866238471681552 6.5249668321803505 0.9291473173080257 -0.5799056331598141 -0.3382085662625014
Ni 7.738339634004843 7.764356775390804 2.1552221865454166 0.41896691655849133 0.4154308783807748 0.4259978552633437
Ni 4.702761261838218 7.39370097264629 2.5498018402737572 0.523228492182744 0.5964828207922049 -0.9981007045492875
Ni 2.294248143097505 8.336147243109103 12.826257949224784 -0.8491135038828861 0.19666445213770647 -0.6957690546890534
Ni 1.345777144475523 2.0140191334807884 5.098418289674776 0.5877220438804395 0.30328527202275507 0.06517977913144259
Ni 7.818467587342779 8.513257489766575 4.971902723048256 -0.09019327045664467 0.8750158255709446 -0.7819598888545243
Ni 3.476426448270971 4.905097147727819 1.7109529587785062 0.08323072309588246 -0.5443740159121075 0.9320503498874335
Ni 9.2323232288379 2.2528013656068424 3.063388033136263 0.6052132586866673 0.49842403154455456 -0.5517623379563787
Ni 2.6080368440367 3.6058230827374396 8.078943496736862 -1.883417654935924 -0.21825503382428862 -0.9916320661058083
P 6.9278041813206706 6.823670433246511 6.127606677944548 0.14983592181994196 -0.06416882136842497 1.2782632745116502
P 9.386470601244199 6.569058158043816 8.822678029995622 1.0975843991689227 2.3014764578578495 -1.942091514628049
P 6.131152607593716 7.340307168527786 0.780958413963977 -0.5932411739264557 -0.02643325449086415 -0.1200795164931158
P 6.979447368910698 4.282529488893685 3.6471618434635795 0.884342245178193 0.12282391200747235 -0.3988781162284163
P 1.685983393772617 8.066235696862337 4.688833617467789 -0.22876364666509633 -0.5267807283103767 0.6436013715465625
P 1.8894739416278081 5.9557091713543135 12.136766455336641 1.1191364143080855 0.33967332373348597 0.6752724773975983
P 8.240757265887277 1.0729975668948721 9.180568299767332 0.4468752129329852 0.20934539003948463 0.15386149803956728
P 4.080389150595031 5.78240744682528 3.8442058390705593 -0.3916399466087642 -0.5729765101401487 0.5616916812549488
