# total energy = -340864.8086461537 ev
CRYSTAL
PRIMVEC
9.32352137075911 0.00000000000000 0.00000000000000
0.00000000000000 9.32352137075911 0.00000000000000
0.00000000000000 0.00000000000000 13.64591596209220
PRIMCOORD
 96 1
Ni 7.725395222834681 4.352788512473959 5.0287792415147425 1.48982649813806 -0.5440145756901598 -0.04487809145961303
Ni 4.771451916279654 3.8204527360689617 1.338111787684691 -0.24346470032069684 0.9664177716237097 -0.033648284182064635
Ni 0.8216847358011993 5.860690947911757 12.509511278197474 -0.8960137679788505 0.8423980395359233 1.192325951117882
Ni 6.356664990955755 5.156504025529863 7.43920786953661 0.3714835262655473 0.20349278791344957 -0.30120679222717156
Ni 7.974566331571257 7.32443718611938 2.195341516374471 0.08504386504522127 0.47191801483422596 0.1214637984351521
Ni 6.232410421596267 8.270494900001525 9.622963045898848 -0.28768793180513036 -0.22435240497127812 1.3942976744011149
Ni 4.844007559616904 3.5489611171615585 11.212030464311217 0.36223706796661487 -1.1308377619054137 0.6580280884948537
Ni 0.6967392935078512 1.1823623631217537 12.645588072659976 0.6492354299038883 -1.0377198616028063 -0.6946071731704682
Ni 7.1850132474833925 2.535000197108094 6.935099986445397 -0.941784803566378 1.6611100483088166 1.2654866915722722
Ni 2.6413722524710725 4.415591752453363 6.839633654034306 0.8858077739801261 0.34063543053643913 -0.4773839230448036
Ni 7.4339046505787305 3.1354722677187747 11.054570173576037 1.017124296839642 1.4563707895827758 -1.248207078556218
Ni 1.8208184598126138 7.817409055280753 10.509415487633081 0.3272569523470041 -0.030579158338437662 -0.3493121323748307
Ni 8.80434108686921 8.21934606174039 9.085655967896907 1.5468844194933165 -0.25201953186924336 -1.3584649809732219
Ni 7.919911849273266 4.539790380684604 9.101075207546245 2.063399247101311 -1.5981771562300215 0.4036320859736339
Ni 1.9842970835951066 2.35074876770296 5.281487694260847 -0.7174768786797902 0.9199515097413705 0.013682896803731276
Ni 3.5113873260218615 8.3237228835292 6.052223115158327 -0.3267969819914501 1.3101038160610148 -0.5066752158097532
Ni 4.339185494788396 6.435308893750631 7.172293167272006 -0.9648275443184546 -0.7610791887507731 -0.29903806671062694
Ni 7.900556218899566 6.321077109868852 0.066967124625307 0.6004508043010175 0.5539554889529557 -0.287547292462208
Ni 6.1932702788656355 5.299405637638581 10.225239217895515 1.012395781015721 -0.41783023185088686 0.675485621849669
Ni 5.516214803683869 6.172898384662102 0.9566417753466084 2.316403768591643 0.12069529570024376 -0.28215671757425603
Ni 9.09536548305643 1.326382797795426 6.592751469795198 1.333520395212742 -2.137911359377273 0.902673182276897
Ni 8.408893251286305 2.3441756851338567 13.444419925219856 -1.090051581126987 1.1929754117764229 0.9399634340869232
Ni 7.9688789835327425 0.6775906453086677 2.032845591744863 -0.311852701976792 -1.7049548134079087 -0.19143765652112837
Ni 0.12031911098726428 5.5723144317949265 7.743962083300088 -1.8249299431126764 1.7448940728050077 0.9230316913285909
P 1.2655468208260654 2.5828671558453657 0.6933380729103918 0.1409000527828928 0.17810083020290618 -1.2889076415993737
P 9.110702675717672 2.5449111003293092 4.874567265626479 -0.10580500885197261 0.696952019253561 0.016951540252674032
P 4.941680769537368 3.544989297055973 7.320774906923431 -1.9621638598978919 2.0142788354255763 -1.8640955575685445
P 2.2342233975630266 5.9637345061439975 8.777367207180312 1.2462990629002277 0.35031614815931283 -0.059977408994896717
P 2.574559898300584 3.3046289160184075 10.36119387422801 1.52697636771548 -2.4087261695761484 2.700474130383266
P 6.5319938104053845 1.547751165792901 11.755533954618727 -0.4525360107631884 -1.2333103639500436 0.4088354845514443
P 6.364925630893665 8.62260700823522 0.9325619166923913 -0.7871866844711024 -0.6262829348727731 1.2966476905561088
P 7.848204646381105 5.152998381493007 11.844927877558531 1.2083498373499642 -0.040522899814710855 -0.7521286644257046
Ni 4.320622363731538 5.554105594550304 3.3465381445973006 -0.31053115495189104 -0.2603812735703773 -0.6364783873485361
Ni 8.544671693064817 7.952012733366065 6.045863541228703 0.9096506420359947 0.023127330046082747 1.285294984547451
Ni 9.584020561821358 3.6822595022544236 6.765891126426066 -0.4018739656319466 -1.4145780219167057 -1.2839983772232144
Ni 6.712776889859162 2.547148745459217 1.5093886047449114 0.19799474091335578 -0.5677602560465319 1.619036001956902
Ni 1.5674237958933375 6.854559679402926 6.89915687919412 1.591817018339949 2.7641860667199296 -0.2953673027272591
Ni 9.079711290668453 2.5494050376318738 2.769329192168421 -1.6331292468251744 1.6068605429366327 -0.06604161291110561
Ni 3.88110224261083 7.447125403887933 13.260978709822176 0.09667939240162059 -0.937349907723476 -1.861605187046523
Ni 2.3919680557001315 4.495587565847556 13.572555876527597 0.361411486741526 -0.8291434885188624 0.9675467430218304
Ni 1.4065277875316131 3.893922084500925 8.875481419661794 -1.2133357206003297 -0.6101343501373686 -0.8555487179852684
Ni 1.3611502090013639 9.238341683336145 5.23762984971466 -0.08398559898403601 -0.44146664032290417 -0.5938582386851643
Ni 5.844775696925289 3.3598428095988755 9.113957517029549 0.7237377719878374 -1.6359854853270472 0.6755172464185527
Ni 5.348018478085822 2.0705023622247936 13.295693909308415 -1.1146169291711772 0.09285744755236912 0.8606199618605889
Ni 6.851324417485936 2.0377581551571473 4.7464313143187375 0.6005749885837077 0.0427733864117844 -1.8068329764016493
Ni 5.623705681611802 8.463976615567528 7.4813324714592575 0.4130304964693984 0.9494155806387586 -1.7092148742358435
Ni 6.87602242560729 4.159372061557578 13.429123756052663 -1.6578874276064608 -0.011815247467373198 0.1702293978746294
Ni 3.2202417240567707 5.082577824550544 11.296321624002694 -1.6920627879365893 2.3139676483463245 -0.2610065658592021
Ni 0.18917704574734312 5.369826194581046 3.2114300640056226 -0.12064361652670189 0.4079618236972393 1.431920112739579
Ni 2.3256498481624974 6.427281341847087 4.781842980851662 -0.372110875436901 0.9120973038042743 -0.445431024287291
Ni 5.40624386907029 4.769894888210093 5.3284577302418805 -1.8499377780109236 -0.9930374310937672 0.8169076085743028
Ni 1.7996447427708642 3.668637837526112 2.7160695086680726 1.0441869573843887 -0.22055822803616854 -0.9261396408299534
Ni 5.475088750900445 0.6935832815225442 3.3308998021956593 -0.6765024931499575 2.9029310208330323 -0.42375996707176045
Ni 7.815535027484455 9.257212490598366 13.213272115652547 2.4948658387887095 0.35576688686123886 0.028678855991931252
Ni 0.40361524030706714 8.553072185823344 0.72193144826206 0.040554267273278544 1.0618218968573327 0.5195397304772472
Ni 4.0041820482771175 9.12259948899168 1.241716832544688 1.3304738950769346 -0.7337555612351557 -0.40309343986134444
P 5.132020458400125 7.160249974712416 5.2545781468694335 0.35950552796806473 -0.6534288991599457 -0.5485559152039391
P 5.975081231656904 3.607158537581903 3.461532592527522 -0.11367001342234617 0.3668275155507747 -0.6597047048663284
P 9.654319912985951 5.162582961466112 1.1591206890391144 -0.06263130167797601 0.33558064172135105 -1.0839575524141074
P 0.3447344057699634 8.10365980852417 12.197866049786018 -0.0307593926700438 0.5691982740446392 -0.12786610241707008
P 7.466350504962389 6.578695328970828 8.557449579108727 -0.18023870248151538 1.8628976806057014 0.3459326743796365
P 3.680273592201631 6.825162616508766 1.5711494750346335 -0.3369929486878454 0.4239479147128505 3.2886139785274136
P 1.3657746756031726 0.15891009830893166 8.191861253080162 -0.8543631823175996 -0.261946046954336 -0.5558287947162686
P 4.950006674124899 1.5170394863849201 8.39363064679606 0.4177674969337515 -2.132772752599127 -1.1804924488180637
Ni 6.719387266513763 6.186436137698042 4.0460959386166975 0.41686426839319174 1.280014452874802 -0.07345204644256381
Ni 7.456467572305297 0.8826419185484297 8.676837270310667 -0.9388933409511958 0.32327148533669486 -1.9589888046040198
Ni 2.5277185269145206 8.48107595376857 2.9922629794046935 -0.07299079053542915 -0.7718562247616191 0.7455080737853935
Ni 5.922468600539952 8.955820338642575 12.25953182015772 -3.4490320467385756 -0.7404998219375247 -0.502661980885302
Ni 5.69221491667247 6.693626376955703 11.848694580193875 -1.3243562122149708 -0.30832771954266897 1.23384258230443
Ni 4.5766928782853284 6.475828917644705 9.470906668152395 -2.4679903545541046 1.5259636101802494 0.13859068792342583
Ni 2.50559381069256 9.094572983739589 12.500300571431492 0.26652980967027645 -1.2439920120336059 -0.11212143798830367
Ni 1.7204414286935128 0.8785796602855102 10.301506555092002 0.10637553664346196 1.2296815089482047 -0.414707369951189
Ni 4.652232048462456 2.0009955103770416 5.9370925438160365 1.1488655659414022 -0.9494333212505713 0.5279264118790457
Ni 1.4551872455857269 1.1234377080341893 2.1971017972099984 -0.06633754688496962 -1.159362094597352 0.653387761509365
Ni 2.9911348333183656 1.9722510939791047 12.339005516354934 -0.13643044704731344 1.9614814891188863 -0.17529935619836906
Ni 7.279218107452499 8.46873161146858 4.15859261517066 0.4033898880558408 1.4075874495314855 0.10723994152628628
Ni 7.851066967443112 7.12906279571433 11.00117343431148 1.45015694746258 0.2946615349094861 0.7188645030559362
Ni 7.977186241077524 0.40810824525749395 10.753050289377413 1.5478565535985989 -0.12467304940106916 1.4706987761696735
Ni 7.335606764726167 4.805240357741257 2.2552059824165966 0.3603686472993084 -0.06049111540652163 -1.0446587548144848
Ni 3.374564649849392 8.86168074332309 8.660244199320266 0.7454126858581098 0.23032147807051948 -0.13970783224700453
Ni 0.7183297719550463 5.788070039924883 10.326328566047637 -0.8411479691789062 -0.6193404421166688 -1.7281960433240364
Ni 4.725300485475311 1.2245979149487578 10.460863250074778 -0.5295863160799718 -0.6526801939193791 0.5609164936518211
Ni 0.3821152000172058 3.541222594420628 11.452812268514913 1.2658175925491297 -0.22848622463399362 -0.09559387264692568
Ni 3.487593699473845 1.9036206531405664 1.2951872276281027 -0.9069327288841993 1.617108703027202 -0.21413664078054087
Ni 1.777874320361139 6.854652914616672 0.8924894218242977 -0.6117636582106755 -0.8212975101118825 -0.15926338578142896
Ni 3.9310856407001387 2.78065633828644 3.8182906114621886 0.623811590514145 1.090375283014993 -1.660966837862733
Ni 5.182600561857409 7.955247995283056 3.1175049096777547 -0.700825129055722 -3.0156864928609095 -0.7833212879784252
Ni 2.9412539939641777 1.9451476173431002 7.5779866204934745 -1.1650118366839612 -0.2588242134959026 0.941431019771385
P 4.637044032143209 4.931163837426802 12.917469414760836 0.008937925919578156 -0.12359421451459358 1.1126127542569548
P -0.002829688737195539 6.025782540892057 5.3831094154834584 -0.049413003215489096 -0.18862641232457836 0.14695705761025013
P 7.112233839633151 0.3745435683088813 6.087552734703154 -0.3241621154717643 -1.056574532415464 1.1734273144411662
P 3.4081666208835033 0.8671825877571812 4.576717119440903 -0.4677366297630267 -2.7575289664147284 -0.6703912380458971
P 2.6442438970544537 4.428178506309092 4.542097952224821 0.3505832857777704 -0.6144458330285288 0.08271650246362529
P 8.81438251938967 2.549796625529608 9.189419301979267 -0.044944168810858075 -0.42626550710243366 -0.18170860215882254
P 4.001040021573873 8.428435352087497 10.761019103096295 0.5177070481438827 -0.739338711749888 1.136946703016629
P 0.21424799472368186 8.787773189386519 3.1687040949543133 -0.26311769866493395 -0.2634959079399591 0.005745901344841717
