# total energy = -340856.3411402419 ev
CRYSTAL
PRIMVEC
9.38689317525516 0.00000000000000 0.00000000000000
0.00000000000000 9.38689317525516 0.00000000000000
0.00000000000000 0.00000000000000 13.73866700368608
PRIMCOORD
 96 1
Ni 8.359488166421063 6.283661263453881 7.868257975852027 0.7730584725998363 -0.7208676495288939 0.20829098063304124
Ni 3.8955136568834603 1.1521472457400113 5.855584211551048 -1.657363951002823 -0.4516610643574028 0.7628493932773185
Ni 2.7633323325357337 2.3677217274215674 -0.042098337686938256 -0.6013044105505645 -0.20698743133026934 -0.5949614990516721
Ni 4.016867409473707 8.778659872943143 11.096735262023547 -0.5120246530471245 -0.20035552783604849 1.1454529407154272
Ni 2.920891331393043 5.8969212722163995 9.263831762775657 -0.4322278953334556 0.3756245450171144 -2.0791619092522065
Ni 1.5423228398122721 2.589815615593383 2.0396423078646997 -0.6556037953240774 1.1827033404264535 0.3524781888076381
Ni 8.576175204229946 7.9099404741794554 11.620081768272678 2.5023122677644256 0.7192635382665677 0.4571768519693094
Ni 8.765959406726049 8.64435220802504 0.19577773367098372 -1.4590853603004612 -0.3044178429653015 -1.0537997978838045
Ni 7.453953373345884 1.5547604730256135 3.1162316358506366 -1.469610171091185 0.010519411474085109 -1.952015715720296
Ni 2.7079778245666213 1.2705910615029854 11.057194852676712 1.003261937035253 0.9698522512265555 -0.4948553403566896
Ni 5.4818610248244655 9.110627343576967 2.027263812077203 -2.9980263565769847 -0.19779213798424644 3.8573435404657506
Ni 8.435766058867562 4.377652641590518 0.8718499275762537 1.1932340647544482 -4.304640414317187 3.5305378167235526
Ni 4.467250535191531 6.028591220203976 4.093023272311321 1.3661363814755505 -0.20448034863769943 -2.83822278202137
Ni 6.4511422082028895 8.806003892226512 10.966245246484966 -1.5008076797399121 0.26544763234969126 0.40016983845664633
Ni 2.997798145669952 9.121103116155147 3.99187950033113 -1.1113423721849636 0.4313496064935603 -0.09594122868401542
Ni 0.42995630787967165 3.78858755882069 6.648731612221175 0.9025687954885487 0.21853271296570748 0.6802563037654349
Ni 3.0445167120871597 0.9866000009471902 1.8217330965883611 0.8858365703355324 -1.8806449772867935 -0.3704597129867233
Ni 2.895452851386888 5.997323479650286 5.537698957782624 -1.4827896458959366 -0.2688792837390595 1.755295213533674
Ni 6.147401124793608 0.10851248297828361 6.197498972687647 -0.9147267710073214 0.39395831032929574 -0.21462823570497874
Ni 8.843288631187562 5.389278099252249 10.266342547342933 -0.3543640929764413 0.4955335973706369 -1.0551316293213506
Ni 8.643535548334805 2.5468987408376123 11.274801805998733 -0.9933356790604763 0.443851595615313 -0.5365835733334114
Ni 9.24242870806642 6.157304296899325 5.6334856299327365 0.9088425443124025 -0.26813546359449947 -0.1353852936122507
Ni 2.25831748960912 8.31680596399007 6.392202845800438 0.4962360227543002 0.5696957825063478 -0.48678413331278103
Ni 2.0390959906926116 7.666622820954535 12.563969528731306 -1.2437469859023356 2.6761484091537073 0.15058848371525033
P 1.15378056512048 5.783133355377061 12.089079102792054 -0.12255934549217602 -0.6411971329804441 0.050165822221113605
P 0.17026509721019853 7.579812834571907 4.031886438259629 0.03627466606131816 1.099618655990132 -0.8860821106874353
P 1.3061204514746811 0.10445265175958916 9.881165473788487 -1.0364685056942085 0.472524023849341 0.17880556957941465
P 8.476589656486295 3.678704589465691 9.234184199952248 0.9968457490962639 -0.3607067473650175 -1.3988467272243779
P 7.427623138505565 6.820234840616914 13.208601263251847 0.018534568469077757 0.026957245315134215 1.703581844319782
P 2.5574402216667314 4.966736498146328 1.9293763532756596 0.010310895007704823 -0.39495512702492624 0.5513206224332698
P 5.436869646717639 2.786170643183326 4.180483770378238 0.7239041223623726 0.8485077519780871 -0.4245204993868689
P 6.8599601717556755 2.3632441794647643 0.7367293577251116 1.0408077564995108 0.5897724986515649 1.1818767307601
Ni 5.995136333583336 0.39991449555063197 8.920117534252645 -2.646680738711894 -0.186556160059111 -0.46593917154297176
Ni 5.747388066866568 4.561748386933952 5.491441287811285 -1.7728131678127792 -0.3118359898062436 -0.49117557751225727
Ni 4.55908250932445 8.027548856466213 5.194576103518058 0.019549639997153426 -0.88582345770941 1.324460599003319
Ni 6.746341218990178 2.509013240725125 8.878489479904566 1.3043453163106826 1.6338594401229796 0.30973308453062787
Ni 6.580840908662314 -0.07885177850468666 0.4079440438153053 3.052201557067808 0.6508966196563951 -5.0963139309150485
Ni 5.0170314707931825 7.352218227107247 12.94165961643597 0.9417786329187909 -0.5384921032100338 -0.11640103920026404
Ni 3.371762575546409 3.3806895107810417 5.509191902457647 0.25547355185611487 3.249419824826455 3.7071342944667895
Ni 7.8494044012792 8.305701269581482 2.336617318805924 1.2809727030230131 -0.08406761717488102 -1.4908055742218775
Ni 3.264902185734577 7.807585793003399 2.022249333841303 -0.09974569003177015 -0.15090961450009494 -0.942432721563022
Ni 6.43035962712037 5.42561476202119 8.974440422682024 -0.24328318043751007 -0.29389894571184866 0.5333234145249008
Ni 0.8249098304844539 0.2959396366442949 2.779318211299749 -0.4129114543930308 -0.5452880430859448 0.32431920987491886
Ni 4.313605870711553 4.109609912226773 9.75556602949832 -0.358074451948493 0.09000583703618692 -0.9994628750041368
Ni 7.182972546475894 6.1819167303222535 4.481058654781588 -0.204859329243673 1.0096832671805642 0.14231570218349684
Ni 3.0835380262515826 2.2002971040305064 8.884108474049098 0.10264512306675225 -1.0380582187788314 -0.6533247694819135
Ni -0.23473991040956174 0.06612409029791723 6.276647377010857 0.5824798216448935 0.6432391031111374 0.056910340033798766
Ni 4.98324804291785 5.557275323115775 1.3727026221505692 -1.56555011422362 2.378429061254504 0.22554411128653415
Ni 1.2443546955925786 4.206707933327756 0.2546739163656762 0.7934352364839755 -0.18009883446954145 -1.0317497600623005
Ni 4.752330475334305 3.4674056282337564 1.7814933637136805 -0.4528098332498653 -1.9940509384144756 1.3446465870328905
Ni 6.182996223016242 3.911095899248854 10.921965394866872 1.665637246755209 0.6444444362731482 1.3334754009074195
Ni 3.1383574813201967 3.8162507324657593 11.788957605320178 -0.3755481832532242 -0.8739647585986109 0.4169038633818756
Ni 4.580540946702336 5.690625524948775 7.538420391237907 -1.0271834808478566 -0.10063554883589121 -0.39829010493543016
Ni 0.410287012305909 8.232211284353369 8.129169482610356 0.04787059842903369 0.18208655432353157 0.9993158079033112
Ni 1.077699797426796 6.947323984824783 10.18897953006665 0.7080036490820323 1.5428493301919943 0.279175523458745
Ni 8.440027708285566 0.7071399936382479 9.476561286499452 0.14312688523088252 -0.7345299775073351 0.5613525527479752
P 4.834728622011069 7.344896450574111 9.8711224369772 -0.4177710964781773 -1.7500213667292441 -0.5503505452105167
P 5.084391814898042 2.0377536649948698 10.170075266271672 -2.2258528576852634 -0.1785895969138666 -0.5249187354009734
P 4.250732461456488 9.303790827549902 7.477983819403359 0.12129821939156529 -0.269270091419575 0.22384126966281448
P 1.5077227522467054 1.473714038939584 5.71127387346152 0.6717261548072367 0.018061742597717277 0.7784994411097496
P 4.75423601461152 5.06116864163781 12.869681859668741 -0.7719966069942252 -0.16882223311445763 -0.9361489454368395
P 6.169188103426186 7.8023197460353355 3.4802928936213764 -1.6250665244216977 -0.9727869083748474 1.5539004457998336
P 6.35454169243044 6.466527325815468 6.892236064616622 2.0838202339598237 0.26090989238033774 -1.4021251408653335
P 3.230649413209685 4.037743859486138 7.659238152238356 -1.0288546979026927 -0.608695303697997 0.39738353396076076
Ni 7.291851118280833 4.025390708309717 6.928409395447514 1.8422188121001113 -0.2832005854577381 1.2388485201594535
Ni 0.6626301631418701 1.7083206554686707 7.967285942152001 0.18814972979847597 -0.06876055450416546 -0.11214303525485847
Ni 9.410829568328566 5.6661820555996885 2.9908114812166016 0.13066706220097496 -0.5453415220316994 0.5029437737917789
Ni 0.9437206737633841 0.3310841640033515 12.415028636329218 -1.0697455225797834 0.4723301626709801 -0.21428782164642451
Ni 1.4814863863362984 3.6843461121534027 4.209569058311474 -0.5501659400035364 0.7012401051059536 -0.4911400962886316
Ni 5.288932213176311 0.6351979070643842 4.1688196171473715 1.247195349462252 0.40851615353881254 -1.7204835051711274
Ni 6.564432619713695 4.497664068483022 0.040156189527058773 -2.119706663443788 -1.1219502296077968 -2.209854168264162
Ni 2.7785954205394265 8.43378542444642 8.84950087696914 1.3136401113490475 -0.7243286114943008 -0.04053652666146566
Ni 2.962090404731424 6.085100316011006 -0.015080982279663532 0.2248368008068644 -1.751234670311055 3.10757489163179
Ni 7.223542697983864 6.088075961089218 1.7347541461318927 -0.41809479836618313 1.0765579175159266 0.3703098176724203
Ni 7.269294414422978 8.392464321499151 7.758609678821808 1.464237336815046 -1.526436693161926 -0.7543858358909976
Ni 7.17903943831258 4.05214335333464 3.435202953138142 -0.6709517385350573 -0.6133934805046146 -0.8161694448566975
Ni 4.9636012758872665 1.5730085930005082 0.3089264030976215 -0.7495673314564316 3.02195381392686 0.12850784976612706
Ni 8.975305894215813 1.9366849881586086 0.35505828870287887 0.19718355786597008 -0.14882496405692436 -0.296890681350321
Ni 9.42781984464264 6.183972459887327 0.5802620545226795 1.3223355822405163 3.470456535160939 -0.7919779352121586
Ni 6.901253114023969 6.448626520881247 11.132703019897933 -2.5976873395323263 -2.0111606015115684 0.7788131156954264
Ni 5.069804583189715 2.8292377082269557 7.2938308140126775 -0.2236551217939374 0.16115828881129665 -0.3761850455062747
Ni 1.4699874424220771 3.875622830635106 9.72124661003319 -0.7361176337094291 -0.3895408979878904 -0.17562460074827174
Ni 9.187505997174904 1.808891826976398 4.457840174967852 0.8001401593079768 0.8753991770522923 0.6673041144801412
Ni 3.424207146688249 2.2454198986392098 3.816780153230463 -0.6635315348115863 -1.8696357706604834 -4.026449623369214
Ni 6.104681374790651 1.7824301756342025 11.964537561341995 -0.048488177408374564 -0.009463202295428864 1.2255194071507152
Ni 7.90606368737409 8.989630292920385 4.425141871922302 -0.5925842570687472 0.007322501803342227 1.1687185961115871
Ni 8.63419558980856 4.732599226266801 12.383828481405065 -0.27138945175542295 -0.01842323970219408 0.3864280633905216
Ni 3.3004878970642197 6.093285686699334 11.510530156240268 1.3063024400370535 0.5792541156187444 -2.0720168135669925
P 4.33655682407504 9.117470388567552 0.1823272547038918 -1.9854359430519548 -2.598085089191377 -0.2888403002420187
P 7.526326318308044 1.2511414192252168 7.248286547908671 1.2345930873172093 0.5807908639782449 0.8154603346048149
P 1.3290620179451764 6.469615613609573 7.21549249855461 0.6839265535281706 0.015960894204630576 0.8462328399009813
P 7.848568967802983 0.6313380166664023 11.939148831868694 1.9933392570594315 -0.36782047559166325 1.6684394920906942
P 7.774412513172495 7.686936057387493 9.667844575806248 1.6990800997946867 -0.7762759510958696 -1.5131628588711552
P 8.758609469513939 4.128806108393779 4.849571177208755 -0.26144853849262717 -0.2107569256750306 -0.5252707194237535
P 1.2158748622572748 2.4437086261853396 11.973371566336017 1.4389654496221347 1.7603515450106588 1.3764873856925712
P 1.2335691555456887 8.88243197496087 0.8180451956399887 3.013619325919236 0.08171402934103991 0.38222508105276753
