# total energy = -340889.5969883973 ev
CRYSTAL
PRIMVEC
9.06398793767791 0.00000000000000 0.00000000000000

0.00000000000000 9.06398793767791 0.00000000000000

0.00000000000000 0.00000000000000 13.26606254873216

PRIMCOORD
 96 1
Ni 6.3847819152738445 1.8751669014919794 11.585875884016103 -0.3053115584241645 0.3965474112127106 -1.3434463960772023
Ni 4.6243469738897796 0.34888921331030387 6.045650085045874 0.27653782872558186 0.3523043822339352 -1.035511798207894
Ni 2.6816986817354973 1.5963405026264659 4.651214447120296 0.37723662669924063 -0.43265778378202263 0.8192018039251182
Ni 3.412183602656421 4.029413993513481 4.720887510081073 -0.7279847201896494 0.9312728482914607 -0.36246563903765316
Ni 5.139344644091351 4.471763799892574 2.7552284715904065 0.12685385910247185 -0.09784924434000568 0.17909996089138186
Ni 7.241183757495064 6.157574928070092 2.48803660772209 0.6078303845945403 0.2718959590781963 -0.29427201278055126
Ni 4.710155748288707 4.7973059929116815 11.84463098785373 0.20729879192310102 -0.901153660308577 -0.30249620046255643
Ni 5.782833408185306 8.114535257276861 12.4240255736011 -1.009680953187719 -0.310237277860556 -0.32252586541992195
Ni 1.7388173300033274 6.4777059202530145 0.5822116732178646 0.22195793659717258 1.184033629202103 -1.484762196241275
Ni 2.7484277613937746 1.7559845232759128 0.120782172098121 -1.1272976099626393 -0.9562495728414564 1.8211964442121733
Ni 0.7123252209623041 9.215991079074442 4.905922480315787 -0.8932115226433649 0.5010768957863693 -0.27872583751583613
Ni 8.678578166548107 2.3619030571085866 1.4127956520190037 0.27121538807140383 0.17109508830903436 -0.5036749955308487
Ni 7.036818020052091 0.7351120867950814 4.803349860110287 -1.16270144338323 -0.9262167739247921 0.4351568960547925
Ni 0.699662829725872 7.342011560010504 2.6108273595610796 0.2635159625446172 1.9674497908871795 -0.778336433169324
Ni 7.688709101022333 3.9266374335779743 3.414631785815305 0.008861049935055708 -0.9333184179665798 0.05874842168380205
Ni 7.8042024361222735 3.879540951928367 12.547320283172906 -1.2511473921314646 0.05647556648922531 0.08797183732529366
Ni 8.311867340031595 8.96912430189802 6.864152674241399 -1.3847434550537765 -0.11833939387355746 0.5949090485471819
Ni 6.737126320809866 0.8371145821553617 0.394675042295066 0.6151904245040374 -0.10207228128241774 0.7402128868247252
Ni 2.1500867215293593 6.395694956826217 9.220298286172191 -1.0617884725162359 -0.1697822830348818 -0.16676946435048698
Ni 0.03702911017766341 4.8388915698571 1.1613615312892247 -0.19165157230414734 0.14279495581276053 1.3375559987346963
Ni 6.548613498379434 1.900246956288835 7.073650441690148 -2.0083241605040376 -0.6066723597306971 0.847843893141843
Ni 3.261648889947285 4.410028977622467 0.5172555096124484 -0.17357697419062362 -0.2736417381247094 0.48950796000184726
Ni 6.720883654313312 5.6929367751982385 4.677494573928392 -1.4056043576631858 -0.6301581015574631 1.351781398305459
Ni 5.087979024093598 2.6985395714400724 9.140516157394668 1.2164120455328082 -0.4770162552927398 0.433538386614763
P -0.13293698000653573 5.922763254934081 12.555837712696796 1.628799251991253 -0.2671841554248237 0.6654657757198216
P 3.9578084883110374 6.3783555477816245 13.057798648957522 -0.8890100829675077 1.100220551240189 -2.185471111434107
P 2.4249793496027388 8.49229508516575 1.501639049600435 -0.12139514998074576 -0.4662947551101776 -0.9178110663596
P 6.660925373691266 7.690721306358402 5.8734034954807965 0.284304102934562 0.5592211082272691 -0.25400442350975605
P 4.514618335158035 1.0065105474943414 12.611382737561492 2.102276640892799 -1.2332679407478826 -0.7602417804511423
P 4.021301724253204 6.0698899081551 8.128700457723745 0.6089308167475705 1.613119893582783 1.050901650400403
P 4.789710370967422 0.8580714288108767 3.763143937224796 0.6818676141166129 1.5033908670860558 1.0645166700806763
P 0.11292550729945293 5.590205535202734 3.4898628862178716 -0.2491671500221128 -1.1787986060554088 -0.260054486358578
Ni 1.4047096683239277 0.9441503100522137 2.639336321018452 0.27264594987034335 0.35504132154912404 -0.6940996374064305
Ni 1.8606010727754825 6.613103773001634 4.770277180694759 1.4897881887009568 0.2666863898527988 -0.37259681393438415
Ni 6.0263465098016145 5.795015408057722 9.22909398012769 -0.7911533824283343 -0.6562511991000891 0.1856508746360222
Ni 8.60651039795765 2.595926163288571 10.579685295298171 0.717946619227357 -0.272337417490989 -0.8659483160520377
Ni 2.5558270803752032 5.274280233451955 6.74806111593344 -0.9475682430173745 -0.4858551937406084 0.2058198933847294
Ni 0.5371917512191287 -0.06880926490434773 9.127050696821408 -0.10075639068447163 -0.28471573655068383 0.9225033296289468
Ni 1.4155501979722975 0.8914776629848167 11.276750386063155 -0.17618073036205786 1.9525960137037983 -1.1530477223435496
Ni 3.9259123145379493 6.548096851063416 1.8851336626971193 1.782357874078421 1.7568198777083164 0.14982460896603228
Ni 5.870273700424289 7.928415327678512 7.908111994557819 -0.3461429906182297 0.5376546949104031 0.5959097218975543
Ni 5.356952868002775 2.82509097190039 4.879390374641281 0.2478502309829022 -0.7643588879433095 -0.250093261380808
Ni 0.9990871413220882 7.397057159136382 6.907267345962471 -0.3819990810848905 -0.7247775261062614 0.6849061438326204
Ni 5.004907574070764 4.505681242989731 7.1691132697082045 0.8145733040141713 -1.371102210121258 -1.0113169461292455
Ni 8.168946377242719 7.080053242813566 9.335022995089705 0.9132836108028916 0.24880539580731986 -1.2138555976595418
Ni 4.531332329030606 0.3016014815138904 10.438613386061357 0.4122229129664384 -0.1328681836173518 -0.3688584299378744
Ni 8.475780499029188 7.314067285005551 4.758987983640373 -0.6042452383464432 0.525301829772005 -0.1892077387493451
Ni 7.28208953534046 5.891555944249016 7.087340689165815 -0.0753412930454767 -0.47162130952941356 0.17783780634950663
Ni 2.230593062948106 5.389682928671892 2.6366035286363587 -0.8951488488753938 -1.9858889714289736 1.0096781249742417
Ni 2.287823083182059 5.234824693686608 11.685344994730295 -0.25173285386676003 0.6256792398505031 -0.715029188470246
Ni 1.0644294308163176 3.413552264844468 3.638615618886147 -0.6545941231126403 -0.4437569790189777 0.1522805267056926
Ni 3.6222505885515885 2.4330009789830123 2.610774788430678 0.281978797235495 1.162388025907869 -0.10262378291051358
Ni 1.2056191718971347 3.3913817501957113 8.24223143942162 -1.573972276849044 0.2717303800346095 -0.39797643034975333
Ni 3.432495999765114 2.3643956538086712 6.874288025623346 0.3618192637029059 1.2197452236710995 0.07005587627682128
Ni 4.5571465668554865 7.064281903693028 6.105824994981126 -0.7376965481607747 -1.9058446164808722 -1.0820474798755881
Ni 0.8060196649215009 7.422001254113233 11.265765739005579 0.7109748158952143 -0.7282204903495394 -0.12180678359686764
P 0.14673418254060647 5.468149872790569 7.998321335130896 0.7670965985894467 0.4019937790392626 0.5139915469655083
P 8.407972804798874 1.7992197460373882 8.269041809527733 1.3536559896203526 -0.4814205550080225 -0.11983423325152909
P 1.6580118769805703 3.5043099766915646 10.519138761854904 0.8725125995331167 -0.8704909411173976 -0.7538942409665597
P 4.072023801102935 6.064360875474912 4.115477465975217 -0.03438310546556014 -0.5247215317885028 -0.23962244375647115
P 6.231156382656603 3.979960874983793 10.70390815724121 1.529079530101412 -0.4465702800980567 -0.7125570727806696
P 6.385896785797883 7.810012452430472 10.15495860078808 -1.3392390428640741 0.1030179330251387 1.3096178775635317
P 2.519362656649959 8.542328298927458 5.676813753343288 0.5945370099197439 0.3693358837949252 1.096877088689253
P 6.747767442722229 3.697490752942156 1.3223216429963167 0.4080646678236908 0.5325790801597087 0.3868857197532305
Ni 5.023425301555395 2.9145525334634423 0.12802067291516797 1.1988236430270838 0.461382919630857 1.2408416393300823
Ni 1.443286001253244 0.936273704479945 7.36709524040256 -0.1156767594397298 1.0743213148759239 -2.26747181877763
Ni 6.812194269428427 0.728563355464858 9.288737740366125 -0.17642421383143167 0.03999788054917628 0.01202324971312123
Ni 2.7320944550172173 1.74153652640342 9.213081538926343 0.06950668864157061 -0.8967971831120942 0.689913881459857
Ni 6.511079524070154 1.9051687017730028 2.6342024782150775 -0.8861237625586481 0.2776392893198767 0.00021880087902542963
Ni 4.153907868697728 6.71408566331308 10.649517884447755 0.17261923826304465 1.2909400986483701 -0.22062970470405227
Ni 7.97261133316802 7.66048384238937 0.4328090526099671 0.1363312024652878 -1.0252965482377892 -0.39244444478793056
Ni 7.428427621605453 3.7652440632444675 8.811955656371458 0.046418182253223285 0.32124699870749834 -0.959715934123502
Ni 2.948134609004588 8.513278217386468 12.272620718043934 1.244683895894308 -1.4543655862272888 1.0687350790373982
Ni 9.1795538473132 5.144937124687542 10.272881084672104 0.376033607530075 -0.7974903803899556 0.2264285707740165
Ni 8.496663927381901 2.2506426044047902 5.985369126451017 2.3804160097775457 1.2906577915212611 -0.9570612701094743
Ni 3.650874662656565 2.622211728489468 11.381326147616724 -0.2976743535938809 0.7934789452377173 -1.2243876075391171
Ni 1.1241611117383556 3.3196312211852637 12.726053968949804 -0.46660508726174477 -0.19421290527342036 -0.4647523503237222
Ni 3.1094735954100927 8.2533683614776 7.883264884252571 0.5162263498332981 -0.09143948415891995 0.17282081275088945
Ni 5.613871607871541 7.849912127607833 3.7722713731411073 0.5988883449099041 -0.3728279561085837 0.48947067900600866
Ni 3.2716827246636275 8.252081275181556 3.539677657868771 -0.8138191994569661 0.6124629982705452 0.30314488979014886
Ni 3.3848738068114894 4.13668629149714 8.95355780890629 -1.0533501119408955 0.7684546552792378 1.125699926458216
Ni 7.174055862364774 6.145710167777687 11.526258409342867 -1.646963067384473 -0.05888211904818891 -0.6112563795569538
Ni 0.8003166036717062 9.026454025999977 -0.01209317279001261 -0.2793261901039964 -0.1913813493618962 1.7658645044090877
Ni 4.6420217504903825 0.5690552946354158 1.6056184007435828 -0.6525966330666374 -1.806160632924973 -0.7614959645732177
Ni 5.951278561183053 5.706215517618692 0.49451396371967243 0.25136081523932197 -0.038947327797474854 -0.05011851392294594
Ni 8.15201484765814 8.914586286100159 11.209358728882055 -1.2512114126001805 0.21128631581593932 0.5070860780949266
Ni 0.24021380998419595 5.211113301077799 5.583181850901294 -0.8605142895206599 -1.8699412177160442 1.4734634833990043
Ni 7.8322917349352315 8.832366850949354 2.5868159489494604 -0.3657710492618023 -1.2714315963017975 -0.6584430645450854
P 8.55967677196005 1.4822883416185746 3.4739039225457273 0.24280392680824633 1.9377208963641788 1.1873344114405615
P 1.8621963346635368 3.1847228237886607 1.6144131883002826 -0.771472101949323 0.16898704082709604 -0.12938793837823526
P 4.5834140040803835 0.822381976059659 8.157925474233142 1.0741922454972275 1.0904927824294637 0.37386822444763995
P 8.522659444966788 1.585762828630105 12.4943757164655 -0.27726930757496765 0.10498636960541918 0.7074179517818914
P 6.049305591406398 7.721919553055466 1.5537606061974132 0.388752340648324 0.7560174579571497 -0.7985149649997281
P 1.5486639257448394 3.3675887816949 5.806939990670929 1.0559996337486006 -0.839032208387484 0.9275192947862994
P 6.839259337597351 3.7954905912014993 6.126214435987822 0.6632386861615158 1.46003846824235 -0.6153989409704175
P 2.542403314146745 8.430206767363632 10.080337506777933 -0.6582237494454277 -0.2004681421545128 0.014765331234632638
