# total energy = -381170.79601565347 ev
CRYSTAL
PRIMVEC
9.25234903171719 0.00000000000000 0.00000000000000

0.00000000000000 9.25234903171719 0.00000000000000

0.00000000000000 0.00000000000000 13.54174804968562

PRIMCOORD
 96 1
Ni 4.591015651604113 5.0048639770386165 11.81252135546714 -0.8038656877886801 1.0333638986269558 1.046168763701108
Ni 1.6494440412301896 8.376031411111917 11.39902369406568 -0.9263954655945014 1.5564052144995582 -1.3654007888611066
Ni 5.326743951854528 6.214340311164658 9.889565845108041 -0.13800267663043977 -0.017375515163970075 0.19283967907497757
Ni 2.917339707932265 3.1632764008691634 3.2538652262284757 -0.19666033837264843 -1.3367538145483753 -0.7711360587661429
Ni 3.399350089604913 2.602121424509249 5.533023225835551 0.15386869712841886 0.8342568984860277 -0.12906500782117772
Ni 1.8660322826417188 8.35208633149412 9.069924289414946 -1.1202234767246773 -1.4501605470070058 -0.3850324685945756
Ni 5.118603105223158 0.16026734162425663 8.229496406106183 -0.18603628299989897 1.434541609522826 0.0689767842800296
Ni 9.24999906011408 5.414298931925326 0.9477865915147747 -0.16295960368609355 1.6767572679277705 0.465507740432508
Ni 7.5641470249518825 0.2642572695022778 12.193585832134355 1.268827583020047 0.1554967196501451 -0.00741326174493562
Ni 8.205418092660528 2.292648849912606 7.544676381386313 -1.0506447971945905 0.09752682800358042 0.6052315135191125
Ni 6.619824512961413 7.8358700149887826 2.6874280837349445 0.1858935867744476 0.6533090857526297 -0.06133572279500404
Ni 7.746446060388311 0.2746809660623286 8.668763710379162 -0.5599687850265712 1.308560897053927 0.37968997333573967
Ni 5.323884975965077 7.370486104750903 4.979219240880714 0.7188614177321426 -0.004964028873494676 -0.16559241332325028
Ni 0.856490886679883 5.609208919262473 9.950205741481708 -0.36466341801992036 0.9403498708920643 1.3798244204856043
Ni 8.544377904019893 0.9507251376069744 5.626095381708549 0.7521895995706271 -0.5906955246864665 0.8673390257519772
Ni 5.268963031370314 3.612616737669151 9.987472353415468 -0.8487203822095254 -0.13456999679980697 1.1669581617770548
Ni 7.169330781732917 3.1080953904980086 11.825345111398464 0.05554585558610434 -0.9207932889163754 0.18744807574576103
Ni 4.779587779768852 0.4632827017443693 5.652176828746652 -1.1651697024180643 0.372500654676152 0.08161015677332396
Ni 5.892885944409958 4.853106946168785 8.040914100357371 0.053328021999179125 -1.6253634868368265 1.0823608973509489
Ni 4.675572870548108 5.531840775613312 6.233835010838035 -0.7721354465649347 -0.6798891502340032 0.5988695758568267
Ni 5.546320702043705 0.4657447518549937 13.434890247359787 0.12942779047723516 0.6991996776371571 -0.18001038852079324
Ni 2.7103091431997104 6.445787825322007 5.218488691015223 0.41930501662420044 0.3077962725192312 0.44948462553137425
Ni 7.7624803814770456 7.793559022294736 5.0402384835698095 0.947540989323865 -0.37114259798636084 -0.83668479120123
Ni 3.7816849138113557 0.0217189644106721 10.170272866176193 0.01980777875454653 -0.46170919262202414 0.08577097301923292
P 6.693556483391951 2.241020741617662 0.5372172986214416 0.18806231229099227 -0.1854791249448483 0.08616126647911612
Ni 3.3289582172199794 7.5709104921855035 12.429835315504084 1.6654048190294286 -1.9395530644769114 -0.40510301409220556
P 0.37824621111405266 3.7286041866987945 2.264207128604603 -0.12521503794746822 -0.22255931762659734 0.9298410009409405
Ni 5.902397359343149 7.868974920271812 12.11309409540986 -0.4770216546093785 0.035264736739565074 0.08041973600964859
P 7.526813796104195 6.887920582128848 0.003051424751912609 -0.004321510193489331 -0.08365778333097204 0.392253411823047
P 7.856410230116878 6.652263249105154 8.691960274950175 -0.02443216490043534 0.5933954401161329 0.34833331340132906
P 0.5752102199640091 6.918869690058344 5.177294456864402 -1.2938153633136362 -0.5456297426960797 0.8718014323987051
Ni 1.5786635701806706 1.4657571534202414 10.157096595741995 1.469997893447907 -0.30075787761521106 -0.13506107750361254
Ni 6.87554093895705 5.846207842913903 11.476076332608594 2.0956133699400104 -0.8066363085552817 0.2749321748013588
Ni 0.9476441053377601 1.5499997924929045 1.9094137721332065 0.07450542740774266 1.0380679889708446 -0.31880033693921866
Ni 1.4928942934971354 4.456606775403282 5.0364339175965345 1.663474434775935 0.3426470616498292 1.0704379206611179
Ni 3.4327140606643334 0.7892004017323088 12.400274059948106 -0.3693281704854413 -0.27899014692081625 0.7109161947431369
Ni 5.848752238932022 7.222846369255847 7.797067513094995 -0.44110925698348546 0.47795522216724134 0.006643473458446623
Ni 3.8447951874098876 8.334756681523434 0.9375331381792091 -1.055152198146641 -0.26433280201895765 -0.4286962280311133
Ni 0.3681343187205861 7.18166416315893 12.821164348325851 -1.5312608540234467 -0.47944749044205176 -0.01415546556477562
Ni 8.571552053493413 1.783723384542827 10.441215883179176 -0.4579145014662823 -0.6720192605676233 -0.3427853869999064
Ni 1.5065415085034153 9.039591387939293 0.20392640159044836 0.47460018965207945 0.6881598748832278 0.5425315633867301
Ni 6.309158385323543 8.37694739367844 10.040082135955947 0.3801689698546872 -1.242692833606208 -1.0983043080540826
Ni 0.41599116949921794 5.9443937721658635 7.693757632879998 0.5754910490318863 -0.12809930147379872 -0.9208544811716141
Ni 3.4443165065069605 2.2118295800279584 0.903268913546832 0.26147296397265934 -0.6457883518955524 0.5824939627122807
Ni 2.1427607935724473 6.615503665905187 0.9556871724597663 -0.20404917463755182 1.0401115017634346 -0.7663862027859832
Ni 1.7405519233771987 2.590000847113841 12.304763910072294 0.25823543087196815 0.2815897893271924 -0.628554247405453
Ni 8.61417762605879 3.379476043616107 0.2053808708778973 0.5122997610853821 -1.5283454801488645 -0.3071326707933033
Ni 4.996139011783754 0.5073969772890755 2.0629907400821814 1.1804425694167349 1.6139974110917301 2.9114429149587857
Ni 1.3917753695624693 7.610344004291784 3.3346558138307367 -0.0656970850874933 -0.035413603612603525 -0.1898541140840924
Ni 5.476113876641906 2.693229306656258 6.640453550641415 0.8208542519268767 -0.048561710958787335 -0.8484398748546291
Ni 1.8109437957621324 3.810348691499122 0.5932393475309494 -0.5343168887864217 0.4114839779178849 1.495964492714998
Ni 3.4478879132814853 8.35179950867026 4.044121320999575 1.2404323197068057 0.9976425339659465 -1.3834751298643142
Ni 1.8903011944800048 5.3779094426916325 12.373813266594574 -0.028234055145028792 -0.15683420751464602 -0.9889995135789678
Ni 5.624068192008294 3.6069450476360325 1.827702575789844 -1.1829995315106336 -0.3298473387819997 0.8107534160474488
Ni 2.765767724045569 0.8168741780602973 7.95335356887708 1.6542243769325768 0.04418955003302067 -0.4543594371251723
Ni 7.61862485678712 3.801919801417277 9.711884657135773 1.0111274558262588 1.7425579684726635 -1.5646479141243246
P 7.413185696109535 2.718025602396482 5.248565302419232 -0.5299825230771259 0.760507118297387 -0.6482602104748126
Ni 1.9093795384413264 8.678435190952765 5.862981426700266 -0.2801949658621949 -1.7578537182894693 2.641179092167374
P 8.797087316539567 4.556263828171173 11.507114263089996 0.733084246199744 0.31008995364941433 0.5309569711752533
Ni 3.45883344233398 6.45934251683672 8.527577488420974 -0.7322560938714937 -0.4357708754897075 -3.396818083739182
P 0.37809632305771257 0.9749292830011631 12.192936317223547 0.25453715608477456 -1.1081804295172142 -0.14236506736419355
P 2.7607529508025834 0.4679421847797337 2.275271087726304 0.33508236192869384 0.19364006348908586 0.4879802105034112
P 2.651973081766087 4.639877307501174 7.010644666579557 -1.3717786673629921 0.8388275485758457 -1.453855993580722
Ni 6.942768507930357 5.686142202501265 1.9016677054191338 0.33410637116866976 0.0026639199854083155 0.8121585239250916
Ni 9.063749271587698 0.41646581501096175 3.544376961698089 -1.0888267075809506 -1.8858221506123587 -1.2709202038830176
Ni 3.621776563334383 3.279957776085567 8.130736831206502 0.601241675633429 -1.1803520665854577 0.4627358341143256
Ni 6.766557518239104 9.147455274409266 6.6805643347059736 0.036080804882957215 -0.32387363769706806 -1.342839615731139
Ni 5.834827453451038 1.1908513552734024 10.789739847861926 -0.13292680476942914 1.1969171700329901 -0.38691657299116594
Ni 4.491848973341533 6.634693038056391 2.340690747674374 -0.19149062124625085 -0.19675032698329342 1.7838221173287732
Ni 3.7815923903197874 4.885462411170114 0.8815203416188582 0.8359168026869539 -0.588391044923006 -0.29604735951341915
Ni 5.404611722358157 2.71239092175999 4.067291053758034 -0.5850313844221536 -0.8624230765075985 0.18988779553550522
Ni 8.88309715430118 4.03220151958087 6.461025519148341 -0.2444841427241467 1.2587578574888707 -1.735213098071818
Ni 6.4756266513526874 4.546234281685202 13.45559607953779 -0.25316778654107364 0.5137722318658507 -0.12705543359031665
Ni 1.8959636321639664 0.9013064902906748 4.412768219863448 1.0846710335413643 2.1991483518108836 -2.3914560696417912
Ni 2.627112019581766 4.0490500473954025 10.270251900694744 0.7817688558896407 -0.32637146441825726 0.4282182599534302
Ni 9.133650769467321 7.8422818929544444 1.6408402817492815 -0.6183690793423351 -0.7623559985806676 -0.4900080395667174
Ni 8.763325494466406 5.16780709803902 3.861402228911428 -0.04184444683961181 0.6830773181539977 -0.2661785969784448
Ni 7.601628291386079 2.670588808269568 2.888481630912206 0.6693782234003505 -0.020635159751848334 -0.46711519412894387
Ni 0.972662457457747 3.7195091274776604 8.513101262930245 0.2535336545209247 -0.744317653021718 -0.4030487026663381
Ni 8.826176702288546 8.24386160340703 10.148727845929669 0.03683002434415592 -1.288465926076265 0.523704146267582
Ni 1.4875279309861915 2.087968381865878 6.606423410442704 -1.65463061123206 1.2405233367587154 -1.07151032778969
Ni 6.6603220452207275 0.5534033582363475 4.023009310693589 -0.35830533701237643 -0.10351569859716367 0.29397890702016466
Ni 0.37338965304164845 2.654378692546855 4.341985898344097 -0.6831454523877718 0.3610541034021072 -0.9747394041155278
Ni 4.177898261752998 4.9671699065738135 3.9528765040850455 0.1669972640905769 -0.19497909401548355 -0.010061240890743962
Ni 5.33492302850914 6.582648574049392 0.2666517774640576 -0.1734329924135916 -0.24869021038569428 0.009477600473132064
Ni 9.057291131876251 8.212385111575596 7.223506986985643 0.17784474832804212 -0.02694284713743102 -0.2857827443626175
Ni 2.0199266061667718 5.268639199149826 2.7218236917253478 -0.46792971961043933 -0.10463644246516818 0.9207331251024014
Ni 4.996176021180381 2.7822091484972025 12.591903164274255 -0.8067936600687525 -0.10650409180152627 0.36043806708466314
P 0.5860447208266217 1.1181001338534846 8.239558335814202 -0.1999492935365653 -1.4308577329133358 0.9486007980469471
Ni 6.443502495080278 4.72223246734585 4.7105374980116546 0.47824755659667956 -0.14390490104748765 -0.715818774251077
P 3.742001588277841 2.169833167205244 10.811041531325625 -0.4619030538003851 0.3195837520724625 -0.47711704253666226
Ni 7.181886219538694 5.845634197266182 6.5343670404444625 1.9187798364853021 0.8413562285349703 -0.7018165464347139
P 3.744795797723194 8.054771343689511 6.965373847390251 0.36605104239606634 0.615921646243107 -0.3729341426691448
P 6.2861662976688955 2.443332608280249 8.542135134584283 0.07517982776694794 -1.0521118686584203 0.8155271832870084
P 3.183168951556283 6.2976022012267 10.497631156927849 -1.2289675136003158 -0.2981759758206478 3.396160395550525
Ni 7.9667907555575015 0.5264003772222269 1.295990424916698 -1.174610793226306 0.9669757010097089 -0.2534074133557055
