# total energy = -340897.5301688544 ev
CRYSTAL
PRIMVEC
9.01616663068913 0.00000000000000 0.00000000000000

0.00000000000000 9.01616663068913 0.00000000000000

0.00000000000000 0.00000000000000 13.19607123210721

PRIMCOORD
 96 1
Ni 6.255191111379621 1.9792649973471226 11.432416534858037 1.2275235820649375 0.5239987946898652 -0.14957058397369724
Ni 4.5590698157539 0.4565877021676702 6.009253523513892 0.5994961536972321 -0.6198410359021713 -0.03952248357465451
Ni 2.8863995699364007 1.579533242926719 4.742470369181029 -0.9798193897415965 -0.24275918961324 0.03655285942336931
Ni 3.361659753516153 4.153279197253864 4.806312944570123 -0.17515331753880803 0.5065178642962825 0.07519808259939306
Ni 5.174639586844431 4.5104456282814915 2.620911326013714 -0.6291340311683229 -0.5870383875498535 0.10813571386767828
Ni 7.197272346428209 6.004036769411994 2.5714657657471767 0.7665055019726671 0.25110576180572236 -0.2895501818248497
Ni 5.167336491748445 4.448657837302738 11.678879765247343 -0.26945521084718754 1.2305142892621455 -0.01393692179606632
Ni 5.555617714351685 7.775199621190664 12.485608501283638 -0.0695802221919834 0.3501433700268744 -0.6285527047435562
Ni 1.8054603502294477 6.638585571585301 0.21503106974285363 0.6516558664199229 -0.18991093546395682 1.2335363639179207
Ni 2.8576830787256418 1.6042736045852188 0.3571763488110912 -0.2517709061935471 -1.2175096494723614 0.05178561721272373
Ni 0.677197074300507 0.05997824630497013 4.7780995554659755 -0.2719741206142994 -0.23217344367759368 0.028457998230376796
Ni 8.45251210242602 2.1668192988121784 1.4608444233667732 0.9018388593010598 1.5700202341798315 -0.2476849090496315
Ni 6.999656002830906 0.7985321388118993 4.969165653893854 -1.0102977608361117 -0.3995648578827957 -1.2490198042655005
Ni 0.7565168015930186 7.425552673261866 2.5177447391911127 0.13935816221706968 -0.4431545695482884 -0.006405646416027678
Ni 7.649297868202584 3.887825214764961 3.774010534969077 -0.06620230685868599 -0.2817900782634566 0.4172915857385975
Ni 7.6176150581195055 3.9268652169447367 12.601086663851385 0.9546901987741364 -0.8787372402865898 -0.09293972285353028
Ni 8.106931445717334 8.891040422523002 6.919241712890675 -0.6423806117655839 0.1414631243752144 0.19767618123167247
Ni 6.664831633096924 0.8366696226964797 0.437044259044141 0.6836535023724419 -1.003428287409788 -0.5894223144009978
Ni 1.8522722881780376 6.227601641017008 9.118973626935428 0.4582212340734237 1.1187528057164216 -0.13752316589085992
Ni 0.263909513118604 4.687982968448226 1.4797017361979512 -0.8168926961759673 0.15420654008381185 -0.4960041092491522
Ni 6.297945774274886 2.0707249932158622 6.951439346097188 0.5521881126398878 -0.3307647083899465 0.654353467856744
Ni 3.444906021443605 4.156092241290836 0.5660881461568517 -0.4608116205084193 1.3861097392736839 -0.6022639462503563
Ni 5.996012380973195 5.595748672712467 4.740609432356571 -0.25238282874593304 -0.2831422214159769 0.0659829917590283
Ni 5.3119017099818215 3.0209748753718118 9.26646639452395 0.25767673015502074 -0.3465332840781129 0.03525033856186187
P 0.26179341877412515 5.538802563297347 12.399504108485289 -0.180793803654037 -0.4726268679757925 0.31552912238711467
P 3.922636634722493 6.081593836098006 12.678587830303329 0.2114218129525391 0.04504906981983855 -0.2215846124181539
P 2.440892736747702 8.521404632831485 1.4076246956839646 0.7287018008613322 -0.6356939437740278 -0.044295736593581776
P 6.331458866215354 7.944406023247904 5.861325275069647 0.238362346097125 -0.7546357471182745 -0.3726402655778098
P 4.697909768078696 0.9607987972945955 12.46721281619186 0.13091517365603905 -0.5490691073949318 0.8334061204499582
P 3.9595668538745397 6.171674358448614 8.139534806429179 -0.6371147353809544 0.8190632214647249 0.3763413685784809
P 4.7554058636677095 0.9222005872872931 3.7020786547403315 0.3230421429347082 -0.14638318738465111 0.2337868109113006
P 0.1388561814250085 5.5488646054295945 3.6393838373829905 0.5064345605538568 0.20727668043591396 -0.6425497903535966
Ni 1.3635058867541043 0.9573726539162317 2.6576359765630584 0.5360063606737027 1.0511752157767638 0.14008706996329423
Ni 1.7977064467942037 6.463302273114858 4.736505273235963 0.7772835664247775 0.37959201430529466 -0.23488775728496322
Ni 5.801876277754967 5.735174675878297 9.281192499734164 1.1198627509511487 -0.4508051441150107 -0.2711727077589265
Ni 8.662543707686499 2.3763099340655462 10.163917603985958 0.04649737223059089 0.40688658835518954 0.8772349447094505
Ni 2.400193759879455 5.417607249371126 6.814345825278679 -0.2819633706165273 -1.276105604738699 0.3361912787221565
Ni 0.503500621184254 8.92898946852177 9.072272587838297 0.3563674965597153 0.037430119822000056 0.1665303517564874
Ni 1.3092736435413215 0.8591938105591852 11.347420228957585 0.18780597330581203 0.8530701745377889 -0.213864875176393
Ni 4.11136303786962 6.794709515637263 1.6626785297861773 -0.1227894592251111 -0.11250324680775463 -1.0341275162658576
Ni 5.377368097008922 8.034657852767431 7.888189321725705 1.2072604609405273 -0.41126054905316917 1.4154969341865493
Ni 5.269940469763651 2.762219904804288 4.699873489204505 0.1597521524923894 0.7633021645440209 0.9870413614113323
Ni 0.8473132075863699 7.359644494062291 6.901122824119203 0.19332741734467349 -0.057513777945752555 -0.05656838331334774
Ni 4.907003691993516 4.543850526220538 7.175799443612654 0.7503134655938368 -0.3700424229436466 -0.8773709560666827
Ni 7.93913156567858 7.147692445276572 8.834216031359482 -0.1982269115288199 1.0130043611339972 1.102519631687011
Ni 4.453373292531381 0.1951359961147029 10.345086656133759 0.5949039063408593 0.06321648475748468 -0.3470107379351637
Ni 8.079161652019017 7.274351556274606 4.581214422994951 -0.20949528535378759 0.1544363967064308 0.43103027548092865
Ni 6.898665918670245 6.124132110990426 6.965124084043714 0.5870643556917825 -0.5698695890800509 -0.2897219315160236
Ni 2.3698092778134408 5.108055195135968 2.634081240836808 -0.2840043123059561 0.16347048188424104 -0.22247909920796524
Ni 2.3409575441009043 5.107568322129569 11.36745234832087 -0.270759788591224 -0.2495767267557057 0.381422382645814
Ni 1.1038492995080638 3.260822944190839 3.7624373832836358 0.047248391464002504 0.2767499447363879 0.054882768080808705
Ni 3.6159427053582336 2.4716919624858336 2.556184264662996 0.4542583927709338 0.672692375375248 0.3870674967467334
Ni 1.1189423627064343 3.4299301684134416 8.104671092704292 -0.682765957561166 0.2366990994620891 0.43612105974027476
Ni 3.6502582361425815 2.578722878392558 7.010584498591208 -0.16311798364082875 0.11708289575863708 -0.3162102076145393
Ni 4.289865107882368 6.898810177338807 5.978888877014804 -0.4315617225043664 0.0648182820269658 -0.6300089775741085
Ni 0.7734112949150656 7.395267369030488 11.23748430411268 -0.2611168661848213 -0.6078584096189983 0.004113765058057431
P 0.05846533351841902 5.598498603581943 7.9859191599768495 0.5341952756068928 -1.0220137637214592 -0.7789722669811101
P 8.523911127197763 1.648687242168954 8.111321417325032 -0.2055198456458073 0.42995426880793053 -0.69395488429845
P 1.9044758938641577 3.111704561730953 10.381719341781894 -0.6614340288526093 0.26096311421577634 0.20617727672414812
P 3.968213357821515 6.065310638883992 3.756367699803861 0.27364302367629 0.0567344765775668 0.8149052334322933
P 6.826951328061022 4.013086819911294 10.4687866611929 1.3153627504671088 0.22318435280510598 -0.8364197104653014
P 6.327284380993821 7.8004989851898445 10.205776059902778 -0.7106210321002212 -0.4491447256934523 0.2773168729834514
P 2.57829010238687 8.418043296806324 5.73836459568689 -0.9591189239694515 0.15734431438184515 0.4641879931798199
P 6.995779051113284 3.9346642012139066 1.5205440701180817 -0.4449394293628531 0.2956568089432198 0.40529070462297945
Ni 5.2315586477591935 2.7796391390332316 0.6219378896908935 0.7180888012321762 -0.12479054881553993 -0.38329003198217215
Ni 1.455461771796028 1.0308634293821326 6.927330116113649 -0.18217885692702174 0.4489493218531945 0.1497724155718582
Ni 6.775369837883079 0.8619870190292301 9.301409450516545 -0.14298701721890858 -0.6137084406418721 -0.8814482114598498
Ni 2.691686432043922 1.5658647340804048 9.113801052050778 -0.026798608250082876 0.6466203608785444 0.8346027118612206
Ni 6.384203441908584 2.039556104639538 2.73137559823223 -0.012607661461681512 -0.3554413852010201 -0.5958336172439803
Ni 4.006973858830951 6.655094172968943 10.410657630695567 -0.25875427948991564 0.916069658188461 0.6370584282217221
Ni 8.278265663135873 7.30440244016957 0.26700386155927347 -0.11463571976972516 -0.09533804788237775 0.10962412548774668
Ni 7.524739524065494 3.8710731768781197 8.28130050487576 0.5593964574628689 0.1534974298319292 -0.14735994947562364
Ni 3.1035539469571614 8.345012345846468 12.244371041163015 0.14765125546379734 -0.01774472557793073 0.7631270724187373
Ni 0.08310020602553234 4.981477229639001 10.20684447566682 -0.29955151601193575 -1.1539388666992514 -0.15589935440520247
Ni 8.686093935329357 2.3964790991639657 5.796637884852784 -0.3757844676337464 0.012436168880823745 0.6613671801704158
Ni 3.7986913899267942 2.7117023223069943 11.594662456157128 -1.5403281064320375 -0.4154668738250329 -1.2596680280079662
Ni 1.1802883615127144 3.132964683010378 12.502472339638615 -0.75096344047301 0.5351085314497817 0.23776970681844856
Ni 3.055822359996484 8.584616978162297 8.03719951018417 -0.13160037264852176 -1.5560799699496555 -0.4971130260426148
Ni 5.626827399620939 7.792519677584971 3.460485056031696 0.45429027445013376 0.3597901490880191 0.8904522147306728
Ni 3.1977999383625177 8.275317376597123 3.541745964033054 -0.36016373037735394 -0.05935931579492357 0.35635618370580563
Ni 3.3698374167903 4.2031656480761965 9.143492190891013 -0.5016217125462458 0.5337000811380291 0.11638329858845117
Ni 7.3197299237043545 6.081206140926243 11.43138688861117 -0.5052359122600654 0.6656192705785504 -0.5711913932152678
Ni 0.6987844824342337 9.287914052072507 0.4689371458133142 -0.8257370339404747 -0.8166435562796388 -0.6957232890527824
Ni 4.643569330864491 0.23684207881285246 1.5596832501324942 -0.5645029254514987 -0.17993171276405787 -0.13978342267994637
Ni 6.108101366446397 5.654993904657802 0.3730844734868409 -0.5680315074300476 0.08565424493571054 0.4895938348474343
Ni 7.943675713738306 8.849214424806608 11.236442035232315 -0.16301179708026764 0.42421273833846296 0.6939494849818113
Ni 0.07919079610748367 4.8152912434547925 5.724679857740362 -0.2619154508267167 0.3441100193486009 1.0513191975537959
Ni 7.910811785806369 8.95809365490429 2.4681404943891563 -0.024168626826403538 -0.4891811727900479 0.2776122927366832
P 8.466667484278736 1.7478109798050863 3.6445041185002873 0.11058237563595795 -0.8295533223627714 0.5976616715916546
P 1.7933516382369676 3.0880100754195325 1.5384114078362483 -0.5244114567472516 0.1028667521592551 0.5784971828480617
P 4.767099831988071 1.1798195208398856 8.277262163772683 -0.2722155472011441 -0.739524859618765 -0.03962301370826079
P 8.414472894759399 1.6599484344836284 12.530949902429565 -0.34560974382257903 -0.33358006635155457 -1.7975168412070461
P 6.402398066481052 7.704909584933498 1.3585091271217644 -0.09351847817513573 0.12064335941638579 0.19351227966196993
P 1.7677457245670916 3.099316348568132 6.041636889756178 0.35045935860539645 0.7349791492296116 -0.9950948278434282
P 6.780860683455245 3.957574281015017 6.088456040638196 0.3444355210088197 0.8193475854743631 -1.078566463305523
P 2.360008704517963 8.320371162022605 10.136219038005244 0.2897910941910622 0.08644228805464468 -0.32521318244409797
