# total energy = -340894.6073726164 ev
CRYSTAL
PRIMVEC
9.04154057587195 0.00000000000000 0.00000000000000

0.00000000000000 9.04154057587195 0.00000000000000

0.00000000000000 0.00000000000000 13.23320856572252

PRIMCOORD
 96 1
Ni 6.5802522018126055 1.844519429540219 11.350863619958352 -0.3380525003006114 0.363910856124612 0.0774061459943054
Ni 4.618400703758657 0.5636351560326953 5.913100450849365 -0.2616316010377107 -0.9806673395641885 0.11626168540892236
Ni 2.5615316586591055 1.4870802167365453 4.894645980486185 0.8489119293950412 -0.023412722496985484 -1.0920135899493646
Ni 3.592285336296635 3.9558275888049215 5.109870805861913 0.37336480244866016 1.4239347805412574 -1.4877793858010442
Ni 5.025233851238335 4.663481823710068 2.677038240185633 0.29086015888552486 0.3939325992976829 -0.3131716778985316
Ni 7.218584947213647 5.983727538773241 2.5270797734880555 -0.08581982397929735 1.0793768750219603 0.1345399148928199
Ni 5.30447278196023 4.328348090834218 11.657053574015817 -0.3066266776911622 0.16573768065186295 -0.7819231220793179
Ni 5.568585215754987 7.802415287667416 12.505858007055233 -0.470104615774571 0.5371438167122556 -0.9938306164190238
Ni 1.805197770761903 6.6192212405191 0.32361842714578243 -0.03600701422222831 -0.690457669778469 -0.1792164318645881
Ni 2.8497036312004935 1.5852713444285467 0.540136192784858 -0.8837028118219813 0.2788608204318036 -0.053291512334288874
Ni 0.4071052978428022 -0.09296873401291317 5.008623637547453 0.002147385360305979 0.4034870757553373 -0.6652994253452865
Ni 8.819055120891758 2.373720783482471 1.4741264019442497 -0.3549361634298275 -0.09577822074358988 -0.16475371947203885
Ni 6.942501514057545 0.49511565115347833 5.086752491460838 0.36423044424755985 1.69555537447088 -2.0513636560930153
Ni 0.6942257392469361 7.420744746851351 2.523374550271833 -0.2523692018991783 -0.6198842304352808 0.13368425176074397
Ni 7.569966328014223 3.7973745949925526 3.7393342353246646 0.5890747012535918 -0.21070910315623065 0.27514171970900353
Ni 7.534586780808072 3.7477003725671514 12.657232378964279 0.20349818723008822 0.10858694247248395 0.3687298747798101
Ni 7.842794806661199 8.572709313792652 7.006653050816319 0.07371018519995692 0.45972610075372444 0.6884496382095047
Ni 7.108377612458785 0.5771296549351181 0.32769887428458533 -1.0644955870347539 0.9125071376481834 -1.0321693640982224
Ni 1.8944016073925924 6.696173790039047 9.24131856105276 0.36634800481119484 -1.292658624001374 -0.35590598354226444
Ni 0.11078960995038416 4.886645121471945 1.525352152685668 -0.6800411024308353 -0.22424518996945253 -0.7445624220426726
Ni 6.340904546908125 2.0411910142139225 7.055126556689466 0.9099416909138524 0.15406358674804435 -0.9899168831869143
Ni 3.1836890884578457 4.253131517052472 0.2201606022272071 -0.16442101872296844 -0.059680960800400445 0.23206520023450355
Ni 5.904568853419331 5.794876886461746 4.73100404669385 -0.5920309556684384 -1.0399610922284992 0.06415185208756048
Ni 5.394707354185476 3.011058959450168 9.146502640355916 0.11355251400787542 0.21576877706732517 0.5858546516543974
P 0.06843270609230684 5.623322700750141 12.524794609066108 0.33848778806581703 -1.2178626619364057 -0.06954628363025442
P 3.9869756951492077 6.003573719738614 12.559717558486952 -0.08128234112026002 0.6020759986092662 0.23012298890646818
P 2.360682882365356 8.45311686020314 1.3667391236099335 0.9367685812987093 0.19888845637221875 1.0142546886013306
P 6.17870835541026 7.720164395529834 5.692647806870367 -0.5949267891589948 -0.7006358958630515 1.6104688291131812
P 4.731953408425678 0.9483490793147937 12.53817337625265 0.7154549631537549 0.849717198905156 -0.04837324909706508
P 3.9152943636259856 6.233635712751779 8.145039936684409 0.5343675395186991 0.310445022995988 0.5288715494011343
P 4.58150217778158 1.1210786652658065 3.6142273463042724 -0.2196035774323831 -0.5846809430612704 1.0847353111203963
P 0.14389611392432824 5.450963817951556 3.693997239782675 0.26036173318635164 0.6758941701419973 -1.4453690391556333
Ni 1.4556518226428623 0.8810131120612568 2.707249642954515 -0.901869455428679 1.3196991730589336 -0.3704347732860588
Ni 1.7032724869247082 6.562711613624533 4.746209205021624 -0.19935228338251473 -0.4133891653603977 0.3600521445001541
Ni 5.935680793602405 5.463314562005633 9.214891947054767 0.24882133664691988 0.6047900551063197 -0.10386022642077596
Ni 8.953249662070826 2.291931009900349 10.04125256459972 -0.9671176259042118 0.41719079849467505 0.70020497897322
Ni 2.4149321241841415 5.286398742894271 6.87655703985666 -0.791282708917347 -0.33483373625299756 0.4516710916597318
Ni 0.2875273107177748 -0.026960064875875718 9.163427499649346 1.2019269645427557 1.0033267288349172 -0.06913079335939062
Ni 1.6049186115072502 1.2310328368921812 11.597636187759763 -0.04373163655999565 -0.047530441480795556 -1.302396677224744
Ni 4.143710796303982 7.013441439275911 1.4469457234849776 -1.2738031818577675 -0.8157475268279305 0.15857278747230757
Ni 5.568757005020746 7.874521571584885 8.096473302946142 0.2561929465206427 -0.5334473416972748 -0.44561280128079384
Ni 5.527482373536953 2.7910421177137805 4.762591571896868 0.15453486995750804 -0.5579324713228326 -0.04933612723096665
Ni 1.0094427671430493 7.656539076416702 7.216465610166594 -1.1689175994962708 -0.35108233690137597 0.36313335452863915
Ni 5.197773564842982 4.722893785041941 6.931739368634729 -0.8225835759131576 -0.47067720044858935 0.30627160834458866
Ni 8.002866236187828 7.215112995737246 9.167847908703548 -0.03631503238095036 -1.4519693180809705 -0.2289446523276509
Ni 4.726275321115312 0.20243285415485834 10.409069657363327 -0.36108572797099103 -0.062123508803622045 0.3504503597443319
Ni 7.9609858215037255 7.046777598373554 4.556960724936792 0.8275640598468844 1.116132594484755 0.3959421735285439
Ni 7.32359339629421 6.119043230949899 6.973715623646044 -0.13778798951647236 0.46680306220516377 -0.30041694933602453
Ni 2.306307058982327 5.291452963923722 2.3107961837428315 0.6847030266828787 0.5753426963794801 1.654320536190809
Ni 2.096416742385446 5.325783692454709 11.373280310831902 1.1987724780741742 -0.10451122974121356 0.5303136811642996
Ni 1.0213143095610602 3.202386993804721 3.96919460198907 0.48990905209500785 0.4778791175136673 -1.3337656784543288
Ni 3.7375919305082514 2.7949751877456426 2.5365679658821616 -1.0375997910851744 -0.6968293776327676 0.6654549770865442
Ni 1.199920896709108 3.3597097950791985 8.256912723163108 0.2152959511959647 0.16745929132865997 -0.9797240018143126
Ni 3.7060550379309305 2.5698408341976826 7.121953485223936 0.8969427075510231 0.4413293434140916 0.48247779262794327
Ni 3.9164245561638773 6.960720217768354 5.89518283043065 1.0909481247993276 0.49972732373701034 0.11748218807958476
Ni 0.6303418320811345 7.349099581489342 11.358353631945464 0.20021051761775197 -0.1587378522952621 -0.15058488417082455
P 0.37754669428380666 5.712915323613864 7.747884853945203 -0.788097883431462 -0.89566512639018 1.407218496227841
P 8.545521402101137 1.6523053242359593 7.892166137486445 -0.04721856666733158 -0.2814406653438379 0.016568445881642434
P 1.9520052606638392 3.2690321873790986 10.397914204937324 -1.0701095907874216 0.8321956450816249 0.36537355671306754
P 3.6936138784738226 5.8786557989105575 3.9010042091768873 0.5951252783230461 0.835021030345562 0.16855998059200647
P 7.09011370104646 3.8292912322626047 10.238717996512037 0.37787117495944594 0.3549631600130209 0.626195003144657
P 6.220697268577999 7.532317354191987 10.295211348634059 0.5335152188207327 0.7338077546293298 -0.24073316032214667
P 2.3346974955341575 8.469310258886047 5.940161780976635 1.791259804553741 1.1517814540366162 -1.5513810218120894
P 6.954951715054956 3.97852185496578 1.6423731922129698 -0.4326009624021582 -0.41145183912836875 -0.9808210915332334
Ni 5.174157061571204 3.0678307910135265 0.602337469300247 0.857737240996155 -0.8480732355438297 -0.7675676246885942
Ni 1.6794028205244427 1.1452376609557722 7.054835419091704 -1.3441938157661881 0.2787422925760683 1.2994010849315298
Ni 6.88478936230266 0.6734618419407961 9.11654259240746 0.7125542445671922 0.18329445858870366 0.5008316125447827
Ni 2.920869594926437 1.6864280973399752 9.343849628090263 -0.07016283416833077 -0.3366437928785428 -0.05911634654618206
Ni 6.40173603006759 1.9038681000899704 2.4757211121041816 0.41635596129820557 0.19762913004382093 0.5413745669641515
Ni 4.233972493150137 6.753659903286354 10.542248833566354 -1.2007763958780804 -0.16869984860398043 -0.5756435154493507
Ni 8.042395850393117 7.271333293342113 0.28513311084550574 0.4082379601767614 -0.18642220558440797 0.1514919693661262
Ni 7.708437517756674 3.907563846666809 7.94014959187516 0.7785292659064205 -0.17108583233765373 0.8283675295847863
Ni 3.0271709842703474 8.397357681153732 12.398193153433608 0.6140316283092457 -0.13592111151106268 -0.5662913848104892
Ni 9.331231254443214 4.940632158621939 9.930292069537606 -1.5946349474047183 -0.27984401028067935 -0.2153931388954613
Ni 8.64492409619376 2.344878269915483 5.720080744304097 -0.2896697381218495 -0.38700116228517223 0.8418578507617371
Ni 3.5817881080046994 2.6292799201504655 11.684737866269975 0.8416524196191505 0.4671303636375955 -0.38144577968458176
Ni 0.9079966849419205 3.473497579794101 12.52161922011165 0.444971311042053 0.012092155277843691 0.3085508912970686
Ni 3.2574770988716972 8.54026826718502 8.31773335647421 -0.007769873753405973 -0.35120600696343385 -0.8496104981239626
Ni 5.321262922303144 7.969765157138066 3.6025954047042945 0.3174589924199758 0.17172423725260103 -0.40343436814053096
Ni 2.8425698559013233 8.33153526774694 3.6895506102615956 1.2310069126278476 -0.3686152035788168 -0.25461891716530344
Ni 3.5602330759220355 4.4425608279433675 9.417584293416326 -0.3263303267676767 0.20004468146384904 -0.1191516053622077
Ni 7.238132757349017 5.940436643801851 11.3883399003608 0.5199385085775625 -0.32574540079848413 -0.057830794965539105
Ni 0.7217852582449094 9.042173210952118 0.16128118761918836 -1.241270756447701 -0.34611933646914583 0.49419533817518757
Ni 4.6792141038375155 0.3935791535493184 1.4757412210423888 0.24024902159687656 -0.3235900450183782 0.248339769024811
Ni 6.045634965228779 5.67310542165918 0.42562870146182646 -0.5077152270384934 -0.8231839285013177 -0.27594750343975055
Ni 7.877930232279165 8.734986879153247 11.270882154436855 -0.5449247462092551 0.6741378495725229 0.25766695996300787
Ni 0.05587038999513677 4.812097621672631 5.7206367990327385 0.32701192621573355 -0.46768392214822035 0.9337231096041662
Ni 7.857017149558023 8.889841339924969 2.3298919168630436 0.2264159723685262 -0.7796037299175218 1.2733555527973877
P 8.445368260163358 1.508128922562234 3.591055686815409 0.008728123901617226 0.13546834024436025 0.585853623213133
P 1.7913280479369 3.3510389579284956 1.6703350597544326 -0.33973605865062134 -1.6246538623643119 -0.6035117026145284
P 4.925080709300554 1.11704613829061 8.367224939785487 -1.5347554974402664 -1.3913133949618104 -0.920364428909073
P 8.64758230904288 1.6562203111872151 12.410049325233105 -0.8589669996381981 0.17241252156887726 -0.15610812798189888
P 6.1491877263205375 7.728500695689321 1.352499601786533 1.6016399179676417 -0.1485341722893829 1.635359935927906
P 1.921254982092891 3.236527849989343 6.098961065782615 -1.7428760139337143 -0.4906536435705162 -0.07325227172693191
P 6.981633300489496 4.100709230622291 5.871018409816503 -0.39715959087541275 -0.26382346648270694 0.02634455143179979
P 2.1246805973730334 8.540204976402897 10.242648354081808 1.2352759723168467 1.2266838597724616 0.6632008909450449
