# total energy = -381175.33217715385 ev
CRYSTAL
PRIMVEC
9.20940389939264 0.00000000000000 0.00000000000000

0.00000000000000 9.20940389939264 0.00000000000000

0.00000000000000 0.00000000000000 13.47889350757514

PRIMCOORD
 96 1
Ni 7.215641537217501 0.6169490105372825 3.9468760200707744 -0.1854909520193902 1.127487100265626 -0.020592222329054857
Ni 6.48185466279833 -0.3526455686208422 1.8397883795522758 -0.44608716981405105 0.6346184513216618 -1.6987175742489455
Ni 5.610083291536586 5.09310420091691 12.806026835008073 -0.7327793133648155 0.10290146205193246 -2.1403238254735073
Ni 6.9576032526929055 5.801270514018853 4.49097864670465 -0.018284657241800766 -0.31587056488693344 1.7198618124267284
Ni 2.6350682848943077 4.670945131620808 4.74386979545635 -1.0228516862417223 -0.23145276346148527 -1.2398857031747164
Ni 5.346132569784938 1.3873874701219127 9.548947130318364 -0.2721795517568861 1.3087645284243008 -0.2058317204592713
Ni 5.781488714698434 7.014305551769174 8.45211542852946 1.00651566808586 -1.0939198058331419 0.8462811766404136
Ni -0.07034879359814712 5.188762277984507 3.5728093782565917 0.8452218821379637 2.570242355947496 1.745558445861884
Ni 3.16124756989066 7.688001066520869 1.3919111292588726 -0.431005078669948 -0.36655652127757515 0.5515818465144564
Ni 2.1036948961657784 3.8211658165867943 7.605950804479275 -1.0177303058547569 0.7523842320799364 -0.36745717871497363
Ni 1.3523456887372776 8.216501121269896 13.235127952873881 -0.10078930080493612 -0.990349856959275 -0.5891839731379466
Ni 1.8011659819777996 3.375421464208944 11.512861695904382 0.05183909615847846 -0.8483897383429841 -0.3086707047043845
Ni 0.5144050622630393 1.053942587442943 9.384166952236178 0.5978233939804994 -0.18438074967434698 -0.3897098194655869
Ni 4.291029597465658 4.657011303700979 8.135833190735749 -0.3537190031932747 -0.19520637953494122 1.5853630351844892
Ni 4.100533080266926 2.7779153469329603 12.546194558627043 -0.25117621003234164 -0.4353785251472953 -0.14876608579453088
Ni 4.856855365736873 1.316907902990083 4.637103335548766 -0.9701834093137292 -1.3361385495618796 -1.1572602177630005
Ni 3.256132057040698 6.75753816496628 7.941494510279811 -1.4322289022292496 0.9978867887662686 0.4349730621787606
Ni 4.897312276544417 5.072806674984785 3.757444109949063 -0.22361706946715035 -0.6189738028058694 0.10450480198331033
Ni 1.7288905811087811 7.699393098997294 10.10519327677715 0.035141838008455606 -0.4212143178317713 0.1943409462108524
Ni 3.265765093395055 7.882973353956903 12.051936909014508 0.878039699998933 -0.8271729950560528 -1.0419691237974633
Ni 5.408885447144965 1.5427316930906438 0.6742775490706209 0.5567266239401896 -0.09720801121158097 0.062327654394628146
Ni 8.034348323896259 6.667203123283787 7.35504151942113 0.40205831372861084 0.058960537694608135 -1.203383237373308
Ni 2.546188329009127 2.4540482441856653 1.2847228786581453 0.9084309106962805 0.09576562233809958 0.7317979232881525
Ni 0.4667288998319967 3.6251712853311298 9.43153183681944 -0.30100907439406865 -0.14630631140012867 -0.269208127833388
P 1.3513971201478907 3.6468410124265427 3.4108472777312246 0.33808592464170806 -1.6665870122629878 -1.0934454372998845
Ni 3.2782438355175727 2.8904634705339127 9.379449895619828 0.13183228615366974 -0.19885863157554784 1.134137258592292
P 1.3031858913572034 9.41523395494917 11.36679134254257 -1.4411642570456662 0.4596350837018149 0.6773630413780399
Ni 2.460835574771861 -0.04136772084143021 4.1802634934962235 0.7293250362676278 -0.0006247780681924725 -0.07038060660609169
P 3.7281047913852863 5.362985778703173 6.206370083752039 1.2236126770463056 0.5485913964275649 1.775016603222001
P 5.001636402569421 0.01556020862745842 12.012875222879703 0.72449470475852 0.8063753415844112 0.09134358201100398
P 7.450904966193031 1.6175396799992878 9.392173607882906 0.9701888086303678 0.6197199369432747 0.267626642278881
Ni 7.809611243441791 -0.08460587159067101 8.075448051087676 -0.3232360041130692 0.07677185484441616 -0.22015713594300793
Ni 6.908636852792221 8.229062748026438 5.830982813435738 0.3025386236647177 -0.11156505126420141 -0.5877526400080587
Ni 4.058796062333899 6.405886291013349 10.20199884555579 1.5715091600205322 -0.930351879139088 0.7952599483975401
Ni 0.7666672087365333 8.234689693736296 8.036628572272297 0.6622310708326079 -0.6267891850852302 -1.1015924918870512
Ni 3.901425770533468 0.5573162791780739 2.3710448088527936 0.7117176075985098 0.6559676064213993 0.27795682056029547
Ni 7.5173968614879225 4.726054203843057 8.753773133119807 0.6788337123862954 0.26067849309582203 0.7798649539987085
Ni 3.7053483546437795 3.0150298660683608 3.2750472514653763 1.8963312776737986 0.4964460818825773 -1.0522136843436072
Ni 4.540641277531137 8.58678361907069 9.84968757829218 -0.8630481116861073 -1.2083956029862348 -0.015379053559231578
Ni 7.554851506663037 0.1657637424059393 13.048943278525158 -0.5881419050266773 0.27699008577165196 0.28392075145321427
Ni 6.119335692384461 4.993587383665303 6.887067508198016 0.9422175202284224 3.0413275904677817 -1.7331963247521052
Ni -0.06395378361299849 9.373331167748093 5.662307978494797 -0.22815146700239416 -1.118359684043061 0.16546642926834731
Ni 3.7961991229379777 2.3924925893170976 7.047493480172803 0.2400675017136898 -1.0461566795162498 -0.10705096544393176
Ni 6.79713860122224 8.839950128995426 10.70857683554582 0.4087418963963734 0.3827788966737085 -0.020587337233048415
Ni 1.6455454768956546 4.170524548998392 0.21381749039198056 -0.8324123890781212 0.4586853181940359 0.18305354622249118
Ni 4.737713309029114 3.9941552571988788 1.1220231048899638 -0.7623151180404032 -0.19604944426152687 1.6372913486226641
Ni 2.6610019659400717 5.2213451485597595 2.0331702029554246 0.21612847439958907 -0.16840288618885194 1.132602052894688
Ni 8.751687203163534 1.8689103561868339 11.423739532699775 0.23312475184726947 -0.7588636691566931 -0.18301986477107834
Ni 3.2828393280040205 0.5050934341006202 0.011711598787605866 0.4007843321121936 0.8914153499748906 -0.38550760845878124
Ni 5.320281773373199 8.273903335033479 3.6283430039931193 -0.856555561983228 -0.8348855332089622 1.7884534454531975
Ni 2.2996341709987598 2.154447920399871 4.723233363465104 -0.08418177415524211 0.03980427648113145 1.379951690092088
Ni 7.722214001565263 3.224608267900197 3.837751031855017 -0.2231018203936287 -0.8934208104406935 1.2009530306652607
Ni 5.669336595460041 3.699721408933921 10.241600202752128 -0.9542371703971179 1.3391796503810485 0.14287543134170877
Ni 6.0526503996101795 3.055569661509928 7.892431411639431 0.23420847182975146 -2.254486462261556 0.7663468649076157
Ni 3.1708069310147735 1.0187902932129425 10.902213759433687 0.46838429064935466 0.5274705552885497 0.303485046738387
Ni 2.862982609653032 0.6010093744740692 8.38999063250726 0.23261438786975422 -0.8717818920146793 -0.0966235994630207
P 8.783846441164888 7.01665394973319 5.173226013806878 0.9494418058910036 0.35330814090810125 0.32926755501912974
Ni 3.4757855466083534 5.859151616779019 -0.20897702776497287 -0.5251465351410634 0.4170223912376108 0.6920152440735758
P 6.405342936190302 5.88078450625931 10.36745223105433 0.3559640904737096 0.013666955964131302 0.05719444693312085
Ni 6.4620452352665705 2.2827625432729644 11.892710922352313 -0.5905782823823119 -1.472829192249115 0.1520766382250026
P 3.7272391074299236 4.6057701810665215 11.577694977578414 -0.6599546160936053 -0.035796183763002865 -1.1203772286937221
P 0.5710051369573437 5.775521021048699 8.442100201918214 -0.28795789763706536 -0.07068271122754279 1.9223163888836508
P 7.501814550291391 3.7629900129056537 5.849852881781893 -0.16443644534193616 -0.2107582112266112 1.0503043831360361
Ni 0.5983257542124444 6.448700809188689 1.207882376335155 -0.31412735694358157 -1.218494896203766 -0.7318529448958042
Ni 2.27823151661298 5.114027966306107 9.859028676546696 -1.0937567978927163 0.14667397915219255 -0.6386491697476098
Ni 1.0986634522008372 7.449109132455841 3.276166194024702 -0.8413909384276477 0.2503238893343753 0.5856690180061527
Ni 8.478554705842772 2.521682105549334 7.40892942470209 -0.45566401486920877 -0.3291179168151429 1.1268744063822915
Ni 1.1050916160395954 5.686631855759737 6.4447039279479705 -0.7642074499671097 -0.11302466652886341 -0.7302226083812327
Ni 7.186613496501505 5.091243901353258 2.2144738933005055 -0.8282783123050896 -0.2989308517088013 0.4399718009449326
Ni 2.074602389623318 7.5363221862567595 5.774937144849018 0.45688914552556154 1.5834293084968858 0.2548557157664578
Ni 1.3309430343514979 1.6156333334167334 6.8094828860495635 0.5913575837504976 -0.6544771379188019 0.7343826532961932
Ni 5.4049254035193695 -0.1194616230189408 7.553194734922933 -1.0792398352234638 1.5521850057706235 -0.40653486144272566
Ni 7.75991730064245 1.6212418603190313 1.8132754270087212 -0.14130397308953085 -0.05634572577958037 -0.35317984286035303
Ni 5.135872672073348 3.4128300623651566 5.488295373122703 0.08200662088079426 1.0083938589451795 -0.6236629807514227
Ni 4.866810731223546 7.1357223312107045 6.25110660449636 -0.07649314726173279 0.5190764176875834 -1.5184719297888944
Ni 8.637306408210272 7.46341133652689 11.978625450220187 -0.1573941937831741 0.286769533755919 0.24394163995711535
Ni 3.2793121263561056 6.825485146058484 3.78174588464493 0.8362880699834436 0.3289477097858657 0.03511021343957179
Ni 5.569654008940385 7.5539581944963325 13.490485379957986 -0.26960742015433564 0.6684582826892422 -1.2472346873406195
Ni 7.687586643350749 7.70538842085837 3.355233530181807 1.3574740778148622 -1.3705049428568914 0.172617952711464
Ni 9.058166951573329 8.696320267635434 1.3914939432676179 -1.1845275381193858 0.07711278312360267 1.3927732673367883
Ni 8.20767851244822 7.094694437368774 9.713456551929406 0.0732278462468997 -0.6454435669616239 -0.18555111583336428
Ni 7.697707778105469 5.567462170840637 13.279944595431093 2.5384030999497122 0.2575800566761564 -1.40831635727771
Ni 0.5568788324985022 3.576600889793005 5.684790895944024 -1.0186317346231037 -0.4039239061824399 -1.1260583382388993
Ni -0.236285672795159 3.6454780206670354 1.9813700695114937 1.7594632288684342 -1.0158405450312118 -2.8578572684228454
Ni 0.3463343642100957 1.23141700769611 3.5960474668158158 0.343522265165931 0.46561366988275293 -1.0930178628441627
Ni 5.256018553793177 6.413226185826373 2.0043926580222555 -0.9065172386133357 0.8477443914495013 -0.5702639963049921
Ni 6.652256260948107 1.518271516649753 5.97811869481495 1.2621023484810716 0.3368312262990006 1.181014639870121
Ni 1.1069150779881256 5.742551355514666 12.149564877550743 0.02581413284962651 0.743221848854378 -0.6668063489081161
P 6.052291232862742 2.877192719686276 2.6491420957516003 -1.8860658911920487 -0.3640779778300956 -1.3571881711433271
Ni 6.958054513478149 3.5089854472368978 0.39834999770248913 -0.11091456216439607 -1.3509907840833635 0.338611715238191
P 8.942285023803851 3.2145700177795002 13.191900853409177 0.3833712788420688 0.263615721347275 -0.9842535142535502
Ni 7.945670974894248 4.142960803483486 11.143445802999329 0.13125841592807072 0.8692791801974835 0.7895896374856402
P 3.6164039329321356 9.589383780437592 6.153613093255318 -0.6976906971917983 -0.9209794367852526 0.3933931818544451
P 7.456191163963012 6.965136544985318 1.2315662000373533 0.14625488933690295 1.928599393678885 0.5711006332736744
P 1.8022158540087716 9.698607309273799 1.8589282834291976 -0.2222171037958302 -1.1477077981878752 0.9510335758581557
Ni 0.7776033757258248 1.254965453162736 13.57311122973586 -0.6998288265807238 1.225322974869193 -1.106308923526114
