# total energy = -340871.34211098467 ev
CRYSTAL
PRIMVEC
9.24361607551006 0.00000000000000 0.00000000000000
0.00000000000000 9.24361607551006 0.00000000000000
0.00000000000000 0.00000000000000 13.52896648554323
PRIMCOORD
 96 1
Ni 3.622933668384671 7.752935144037589 8.489467402859134 -2.2075615155752435 0.30835805855997217 2.124316651411974
Ni 5.303524763383345 6.401768041226201 8.172212631327175 1.7835295257890187 -1.5424418103409308 -0.35697659089862394
Ni 1.4248572107219621 3.000829058187786 1.4402533777736244 0.020669355423893435 0.3123188429799331 -0.9781556288859282
Ni 8.190685073832002 1.980370810207886 3.8432543348470074 -2.4762217413249608 0.7876409983997015 2.354166846273029
Ni 9.204256827783633 4.241590409759348 8.183360432398445 1.5494074430254863 -0.07341759366020259 -0.7263975782081876
Ni 0.7513812037974036 4.454507864050889 12.57407902579202 0.10589551168324988 -0.08148494404936935 0.30167678988505464
Ni 3.581928987163985 3.745790570572258 2.4698886878626087 -0.49702175188038916 2.11343985659847 1.4205676638412372
Ni 8.292605185450418 8.337150171654764 8.427423326930061 -0.043846821981621265 -0.06895878655790058 0.08317698703981158
Ni 1.2980995025210456 0.9062496730578845 10.198567658773237 -1.2851381472546126 0.962111430938872 0.5150760382789387
Ni 4.606177117763471 1.7609273629177413 9.051717749791775 -0.818215528752449 -0.5090619708743749 -0.08067093278850623
Ni 5.680423968093049 8.042454445325484 0.7424749796413778 0.030356500804670297 -0.19344825919325392 -1.196716881096726
Ni 9.076426860109859 0.010944441516071251 0.4223177126397849 -1.7961191895285713 0.07290105903510026 0.4429285695804114
Ni 0.5497557509889976 6.582748801735626 4.411255135383659 -0.795841789042939 -2.1262722324764476 -0.7479349380593313
Ni 0.13176589942845648 2.743653169792403 6.059867940327562 1.1023594519600628 0.07118716166778707 -0.32129353567471763
Ni 4.78995869396493 6.719887090867748 5.186788983807196 -0.5190959580716091 0.633551186399412 1.2670648346926696
Ni 3.4529990291689163 1.63025960508735 11.69332971659426 -1.3703874434424206 -0.8344996106244531 0.7201747372269275
Ni 6.118229359584335 7.662264513268043 2.993798363747648 0.4346231350385095 -1.3054771159222807 1.2440976843735347
Ni 4.012247049577553 3.0356220293588105 4.8129836174213345 0.17654068480463792 0.5949332169168979 -0.3597731798071546
Ni 7.542836992670373 0.8436731648388409 6.3715340215380545 2.222303706881424 1.9306794161363656 -1.7989684860519084
Ni 4.0243376994956455 2.2861496322954173 0.8186460741253587 -0.04891369498156738 -1.4028324513450035 -1.9542602887800988
Ni 6.40885789480967 1.3858029325079408 0.38743877583860953 0.13919515427664414 -1.1118668772298657 -0.37857282901216094
Ni 0.7115060924696771 7.538686609021119 2.0899002666371356 0.013276148283615844 -0.676395535258448 -0.0843697217963321
Ni 2.4627766496003916 6.158670180220156 11.82692770074272 1.0981618689389474 -1.3836394233563203 0.6684613680130358
Ni 7.154743768808674 4.360518775085169 12.884311422138373 0.40746508656647895 -0.5466268165020263 -0.1786844706205181
P 7.257209253779663 2.149122266557039 11.951989205380968 -0.4862269752577303 0.11721762156428846 0.5971875601687134
P 2.12944260778363 5.490264296751311 2.991700987244273 -1.802738751727618 -0.2678773248371064 -0.9103821208853805
P 2.7470086024531577 1.707721108385219 2.509745311958045 0.6630836486408903 -1.0691726807954491 0.9260473382264633
P 2.7769301879155925 3.677332349399941 12.389462751052637 0.5588246441197988 0.48120561078373897 0.20783846647665494
P 6.5643170311418375 6.355660883893293 12.794411708955348 0.002190837003731711 1.3154054307795862 0.1574355885440708
P 0.8443054281831814 7.155011833676888 -0.07118693665841885 -0.7074560041086784 -0.9937863934446499 0.3595808612906904
P 1.024396028457811 1.7336956697535977 12.87147203931251 0.6826479439260631 -0.6585708483722013 -0.3095289389396218
P 7.317348220421182 9.250456421277994 2.121897043924197 0.3424233756747974 0.17800852759941602 -1.2881869613832653
Ni 7.907340508129189 5.34045300988394 3.3834999768186345 -1.0321472526110353 0.6397025507127886 0.09252783212709226
Ni 5.858927439475526 0.1941852661730294 4.531297356454992 -0.20609345876109025 0.13272471606095207 0.5369332433633462
Ni 2.613308938527098 5.1377589950491345 0.5008644164731159 -1.6733109612503827 -1.714056775709177 1.7977924634659361
Ni 8.563554061902343 6.318741881008844 11.864674007272177 0.6563663845217148 0.6537250902441258 0.12438791406048254
Ni 7.1525807626306666 8.424899819722386 12.247340304094955 0.23531713151289796 0.22774034760690454 -0.405855575987514
Ni 8.163675227455347 5.935825082188529 9.497199040130143 0.5563008492566806 1.2487842912159266 -0.5784100224508941
Ni 0.48980350539361345 1.0580797656913952 2.7310652133256914 1.8756606366983244 -1.2340297586145714 -1.5712597630138876
Ni 6.23893249921006 8.1915817045981 9.924106208186085 0.30364548357565124 -0.6292219628964388 -1.1836885871578582
Ni 3.9108445804632788 3.8452333930637232 10.478509649372956 -0.7828944848536517 0.5734637341892124 -0.5492264589084025
Ni 8.77020434444735 3.236245474177062 10.912180371362433 0.14790322357360333 0.022010442832820158 -0.6716353948656433
Ni 8.738942434643842 7.145934602622174 6.44716159139269 0.001089119299120705 -0.10019229065088552 -0.34869301073359305
Ni 7.856805658662668 0.9741939491725213 10.014628016735692 -0.42852987765657813 0.12910743102333894 0.29943324526651655
Ni 3.0121894624303978 7.390973623018739 0.24131846489806938 0.4171095516347785 2.306884259136982 0.7190830468246455
Ni 1.6916372162923443 2.9160096364382344 3.9754056930687245 -0.5814925180309599 0.33357415281428354 0.5186187613248745
Ni 2.7061795499392334 0.9020549200511335 8.045067615609769 -1.1594595394071643 0.18412441068916677 -0.8038487185078156
Ni 8.311665521942087 8.767246387280844 4.024745342967655 -0.0054702790859518695 -1.3110846919170454 0.6883028282189954
Ni 2.304581402889206 7.431405200038415 5.8173478053306 0.19223804093523666 -0.3485631700239481 3.026753806418665
Ni 6.381450572938764 5.294641648267683 10.686137906506138 -1.8330330318357853 0.3935613320011932 0.462106685170759
Ni 1.6112177558279692 8.855633844862494 12.381249798107513 0.3583372186915764 0.6107133625692902 -1.7165741428143921
Ni 8.647365929492054 2.7135467120070613 0.287072516094226 -1.2605308902288934 -0.35404296219159676 -0.17858548314880857
Ni 5.045341320828121 1.8074504829771894 6.539591282314693 0.28478464211540633 -0.46596025458889423 0.717342409984455
Ni 7.5642914257436855 2.75573457609435 7.689702339072227 -2.7657143304389984 -1.3288944664049565 1.6268410998236176
Ni 2.0516206034560933 0.16579349918264694 1.1003036798816501 0.34555883597998555 1.0478078419664276 -0.17919509170834946
Ni 1.5944868106049213 7.470080489990478 10.263182384352325 -0.30881391515046813 1.7073539097677048 -0.8430981509267417
P 4.224147706093109 6.1427341859856055 10.259908295513648 0.32619251563823176 -0.3215565595281171 -0.5795230530094148
P 0.6829202095402426 0.8068465981158444 5.0439233501114265 -1.360205617813412 0.7131147450563524 -0.5295158678533526
P 8.56249104604563 3.479010565001876 2.469604908846947 0.9318896559398531 0.3155535478671469 -1.0441627890146727
P 4.260077642050009 4.720502162248918 6.432874658278468 -0.49358521539501443 0.9894527990663022 -0.7165122007736756
P 3.8773457155526008 8.426748542951453 4.362956316662692 -0.44547910391640694 0.808120349299976 -0.20311149331463085
P 3.243335327760531 0.17286024372575204 10.005157931994798 1.3267856475920699 -0.9546706583901107 0.6007781057334493
P 4.362016240900712 0.1905063069471879 13.395259699464429 -0.7715060405110519 0.7049972581555407 -0.6378413291343337
P 7.010016470821236 6.956200137623122 5.087851787118881 0.3184794632646902 -0.7190182550249811 -1.0580932830528358
Ni 4.152297077795455 8.713550221092621 6.596033726859695 -0.49714747882497606 1.2273767720744282 -1.4306952391935424
Ni 1.7002522665397921 8.393462281212116 4.000691605034276 0.7709679086193948 2.9961399381875498 -1.8959543539503543
Ni 4.609661961050261 5.845662850306976 13.572394191295782 2.7192033313616526 -0.897642304721209 -0.27117347908987494
Ni 3.840362007355134 6.73500964688151 2.7679047211112913 0.24137542189183592 -1.043529783416364 -0.5338551186586548
Ni 5.188247626434929 3.8016682301707805 8.050235721396623 -0.5340412665275318 0.1744220957997383 0.1794311189785555
Ni 1.0427630937385828 5.113226437799427 10.280770212792046 0.4147130263781439 -1.2297743257723275 -0.5694715823106837
Ni 3.114359151684735 5.099647565681937 8.654614773273222 -0.5286406643372509 0.4525411529695109 -0.5112600069669582
Ni 6.19712362338473 2.9860854904359844 10.010961998572451 2.020857517084358 0.8123500711106074 0.7711239745812848
Ni 5.271255299419996 1.7014539366386852 2.7849508736448954 0.5996285655100383 1.2009581728715832 0.07775041670760158
Ni 5.0156878002339 3.278738377597146 12.373403816723355 1.536358323151012 -0.10934953167012135 0.5795009415222278
Ni 2.5067762624521643 5.176813273263156 5.157498737327487 0.368289701918598 -0.8012835288838006 -0.4028304160079449
Ni 1.042855529900036 6.376643892543193 8.271650832010566 0.40020634812153655 1.1941066971673888 -1.5775453389122833
Ni 7.721876593789278 6.984383923250234 1.15305884594628 1.0374264987321036 -0.17286837815937325 -0.507568417047984
Ni 7.337101828123753 3.8430888741180063 5.720303701228848 1.7318007299561595 0.5877104739162137 -0.05087081870793819
Ni 4.048491268483394 9.060490865875307 2.205491686534493 -0.29272318023619265 0.050203360327268375 0.5441073925142823
Ni 2.61910468585022 3.3028179976557324 7.044668014665235 -0.18401102503975406 -0.475069158868698 -0.14279238470959923
Ni 2.7406489945451704 1.2088339014055896 5.41628116620893 0.0901727016313544 -1.1131202900209924 0.5736519389406185
Ni 5.6534695834132656 4.758271577818737 4.715114982759419 -0.2711493107201588 -0.003526782206335861 -1.940733715048574
Ni 4.358438961452469 7.948807370157142 11.444950977684387 -0.6124349732460872 0.6779893621081291 0.6110954284990572
Ni 6.572497631430454 3.4353806967959164 1.5723770051469053 0.019218224799663675 0.06400247099388977 0.003998065415799566
Ni 6.332912344559635 8.406329394886416 6.60580238040208 -0.361843432072622 -3.5003175843864303 1.4254866984094094
Ni -0.07994433859450492 1.2956684314748237 8.045527947693806 2.797792956141098 -0.45908178230150615 0.33101539094817184
Ni 0.23345492064323675 5.130530487223486 1.3920220374505192 0.28014534357118204 0.8541089002149485 0.41628345618905727
Ni 5.628373165578694 0.9687956773436484 11.076151029441222 -0.253388387192312 -0.6168739828540473 1.2350234899864083
P 5.266661222195768 5.010446669879498 2.078969690545282 0.3635359892836965 1.6325075540807756 0.1760092377812001
P 1.5749920241544193 3.032127942455875 9.073147225101495 0.4374238377120983 -0.20121016252685994 0.18714314291083253
P 7.0852964807088075 4.7437591004705695 8.085938264396347 -0.754400491179017 1.5553574899613343 0.5179646726806435
P 0.49501320745312166 4.996544271196921 5.926228359906448 -0.4016464230021728 -0.48791104782837263 1.174006583983404
P 6.182583415188126 2.3778740353055317 4.6750559234704 -0.940681028979238 0.057896872316784156 0.391911455102596
P 6.272468338585319 0.6927507953108016 8.21358428410883 0.9132697268458208 -0.29952091988431645 0.74978793210767
P 8.843404540702222 8.326769590723558 10.563512094722183 -0.4106961919092669 -0.3318764533968865 0.6116731553793983
P 1.2072994611254646 8.612083046665328 7.499647120592931 -0.3471428926376538 -1.0890681341677955 0.14678865035318592
