# total energy = -340869.43336261297 ev
CRYSTAL
PRIMVEC
9.26328671753197 0.00000000000000 0.00000000000000
0.00000000000000 9.26328671753197 0.00000000000000
0.00000000000000 0.00000000000000 13.55775645847660
PRIMCOORD
 96 1
Ni 0.45029022014179054 6.543678372242086 3.959122260049273 -0.7303794456740711 -0.17729376092057852 0.21276752834715618
Ni 4.509432818555871 8.086098980789046 3.8316390555441417 0.5551726491895084 0.5431686827500968 -0.6033594933073803
Ni 2.9941721666734753 0.856844758361321 11.360179882296455 0.3439171866115045 -0.5839648908308523 -0.5169393167399225
Ni 8.094787943732893 8.121790424523207 10.151682233450776 1.4797567726068839 -0.5713862828348933 0.6908788164762876
Ni 3.5698854363537538 2.689752775177047 8.004187441634182 0.45076606334695923 -0.663688886325057 0.9267086259595461
Ni 8.71865177778643 4.616544202905237 6.766147318779424 0.5291330305926372 0.3922832366197179 0.019080413670218753
Ni 7.662442562626093 4.2334795071516 8.769780488840338 -1.6249899055474917 1.259761616163037 0.799584543914823
Ni 4.330114114220058 6.728091884274186 0.8297227811723124 -0.49226521103201026 -0.6590727277092843 0.04532212097556711
Ni 2.462802250524323 0.4693021898069845 8.72865983275928 -0.013441984437518784 0.21134288008548766 0.24869021038569428
Ni 6.166662602716949 2.4401442512059326 5.164746437354246 -1.431506165130612 0.3638460643249476 0.33516489434017116
Ni 0.4959600763312952 3.3818962956475342 8.731534230628657 1.3875708972002425 1.2446895523212629 0.7538276493946824
Ni 1.1264619816487578 7.269984894137848 0.11109367131051673 1.3615713878126874 -1.2194441474909128 -0.6590130781159425
Ni 2.8818270253270164 0.31995577598408304 2.8783116080165794 -1.8160478101316981 -0.9656564679776529 -0.5448416995771456
Ni 6.410907683676883 4.959489603872305 2.0359685250162314 0.3394460382140283 -0.5288851762478891 -3.695379467923707
Ni 6.980423814541133 5.158687321510353 11.104060194089488 -0.8353557879771613 -1.533812673911023 -0.20276105195374758
Ni 3.936924646080893 7.878230826780591 9.419223962843919 0.3909999990319202 -0.45855676303597154 0.36091757782424294
Ni 4.500067635681427 5.156390026403665 11.092251356178169 -1.5614422627028333 0.22627893257002968 1.027473758394766
Ni 8.562778452140252 7.337171512721776 7.665691197278979 0.3011083189760943 -0.23093520039511842 0.02370197160263015
Ni 4.53740794445184 8.233820614121168 12.55511978469798 -0.3440328862537624 0.31119192846434146 -0.6548486623256077
Ni 2.7042590821813803 4.786960888702632 3.8762436337607866 -1.7284822071058876 -0.465287654001902 -0.35824414475713784
Ni 1.3923738902479867 6.776196132213843 6.211581206353419 -0.47594461949511585 -1.2508655992249877 0.9218374139101737
Ni 4.727305322222487 1.4677214644326912 3.500056928397135 0.4801468305019215 -0.7771632387968294 -0.860224526194383
Ni 6.476241644916706 7.414844171873331 1.0746144395453388 -0.9422833404693514 1.6609115591447656 -0.10413173491460777
Ni 5.19197031069718 3.940852279650393 13.467488683662095 1.9128678418762413 0.5014795305414267 0.44160085190792336
P 7.9572003460730185 7.0413577145887105 5.562977912455389 0.29506571232644024 0.41428210948831234 -0.778904132747336
P 1.2424475946763807 1.711744226511333 4.890987598574065 0.27084772031934 -0.43925652004546284 -1.223383848864951
P 1.6565350376570374 4.5862995717627415 6.228283838639188 1.139330372757457 0.11285703060274756 0.6144131800183805
P 0.9207438364881356 2.799569039248804 0.8162039405323864 0.3023789581584018 -0.9044253890813134 0.890416476396731
P 6.587141713534764 2.8793537277726373 11.954375261641514 -1.334725985485069 0.7092583474247398 -0.11590893005519393
P 6.467506365539256 -0.0012005219589793102 13.302436367204551 -0.5016584793214521 0.8780484417496812 0.13370147815192457
P 0.04352077367034409 5.567216792458699 9.557635066693246 -0.500484513618009 0.8623647124658373 -0.9336403200823726
P 4.781013858628058 6.705795153137895 7.229416329945334 -2.54297040760542 -0.9423422187317448 1.0169520329278356
Ni 4.095373165435377 4.243270801215188 6.32607635654771 -1.005869806971745 1.165495204078283 1.0577878359972752
Ni 0.9803614234927261 1.9717646847563115 12.258665893452527 -0.4376246408689947 -0.028601722897092674 0.09241393225704729
Ni 5.927141797984479 4.747730869441233 4.937951535918426 0.7433766292646875 0.3060841749241309 -0.1456241977314395
Ni 2.475650429205683 7.2011586738043905 2.457790812408522 1.6035597606981737 -0.9212015800983876 0.4954631491440177
Ni 2.5903391820924337 1.357905200360934 0.47700924435845665 0.2847586739734773 -0.021631976447478874 0.15432172550543746
Ni 7.933060220879345 0.15505908274344574 6.4524887251079495 -0.05601688168525191 -1.1499148331415228 0.5969530755604042
Ni 7.025573074016945 2.0762638222504908 9.81151767115721 0.197167359916054 -0.3695120043614733 -1.0164702081954107
Ni 0.7052705240821346 8.472998677244979 2.1489454225170297 -1.2189402112713008 1.6402020945115559 0.8805583526557286
Ni 1.3220748073259652 1.9779896134325006 7.085717742035933 -0.432030691720985 -0.6655539645582538 -0.6910302544524873
Ni 1.3745235367375457 4.578546200777667 10.950436920787723 -0.4248917666833586 -1.3293284686185816 -2.511069959352398
Ni 4.820355037330104 3.787322565544505 3.0613282164112245 -2.1563471974849575 -0.06575107825388031 0.44120258802824014
Ni 6.772305551791225 6.483976489328339 3.3888289394291706 0.48148611813863534 2.945730889607378 3.1740402223438755
Ni 1.3565434972130177 7.433000213845548 8.91403487395297 0.12120771656028802 -0.3529343025084502 0.08755223328937178
Ni 2.17970694505853 7.748591129126923 11.21432572756719 -0.1357136234859469 -0.6624524428147947 0.7474726537109321
Ni 2.144997409716744 8.226298825304106 4.687838162821043 0.08482789237967325 1.2223546362694884 -0.18815332934290177
Ni 8.31037241557954 2.0796541851902006 5.0895007593234665 0.20044783043953865 -1.4725998498471284 0.4065580013711773
Ni 8.422180286296209 6.693215609771431 1.4950676131603362 1.8748008598011905 -1.5616631204643878 0.1493978058412588
Ni 8.746654693542562 8.931512843337247 0.12943775800316124 -0.9738328331408582 0.5871108926590017 -0.22163474892979892
Ni 6.616988023348276 5.9309397455398924 6.9225634730274255 1.672707780448745 -1.4988670110737734 0.07622112454726873
Ni 8.997180282899008 9.021005456344183 4.468961518873923 0.719272022907 -0.4153426895423427 -0.8031059268045201
Ni 4.7049344847924335 -0.012192337981547592 1.3928018540944747 1.3536477620902365 0.7466856390332623 -0.07571795965860509
Ni 5.119494355395836 4.762422442179976 8.89262741834185 0.48507460682084197 0.8996955877058117 -1.9429482062013892
Ni 6.5272823547467675 0.2870192337206044 4.389025838776545 1.0057849605674227 -0.29112986760714377 -1.3984235236440303
Ni 6.250782509425985 7.719198720362715 8.55952703850135 -0.07908764746178638 0.6478264653715037 -0.18923190711906118
P 5.795121435643637 6.681173337034756 10.374504111212168 -0.5272281002604403 2.050206916780753 0.057206274007662775
P 7.391130157868801 5.435937493055498 13.233970488724522 -0.36261836256543356 0.6574429054153451 2.0112583034316978
P 1.3435563692308496 8.858203192231056 6.986529246818628 -0.6377156021897469 0.09450475334780499 0.2900996265704165
P 7.592708540194023 4.03533780419969 3.719367094162775 -1.0714751036763805 -0.4766231336193791 0.8440314613742883
P 2.906133889681659 8.470849594725818 0.6257702184606212 -0.8299736977296416 -0.5062795230332313 -0.3863234194918572
P 7.756826191021465 0.10326619403167786 2.586765406075657 0.905520679028021 -0.28889737873219923 -0.4783928239252923
P 0.44062490677760063 9.09085990150362 11.561729548432842 0.46236559525910054 -0.526525674876777 0.11892200584990487
P 2.5236157278445326 5.604353308921261 12.224418596118094 2.140974571683629 2.2858315522317407 1.9051141660727515
Ni 3.228468477695572 3.4574569254268104 12.475644489950612 -1.7988777261103148 -0.29643559609077336 -1.0660166516649705
Ni 8.495017509779652 3.2954235141114854 11.02462565780369 1.7005150324690004 1.3164469846702231 -0.059925986931670984
Ni 7.078549810771595 7.521510918460111 12.329925579207465 -0.6037901530868957 -1.3003475080051992 -1.212074337389403
Ni 3.402136577131869 2.5076365582516362 5.014837742027409 -1.4816138804202805 -0.3253563928901816 0.7016951903655012
Ni 2.4685918047246473 5.010122729086664 8.596823809824176 -0.014214343827169068 0.018058914384239868 -0.606567972942349
Ni 3.517927661138361 8.393630836623569 6.784626649458188 -1.309830250684654 -0.18774400971962504 0.6653724446750671
Ni 0.0947467492348162 1.7803296013900582 2.877647430358718 -0.2931988343210305 -0.2112719176382361 -0.7635291929531625
Ni 7.947974112499382 1.1982431904460622 11.866358290209154 0.3095610777291379 -2.0926769130195053 -0.07611416665575924
Ni 6.644694513929351 2.5711363887207965 2.252919331654155 0.8220091914669262 -1.4095851966878046 0.2243112673206976
Ni 5.709037712149851 8.247771123922272 6.036048407300282 1.828081858478097 -1.8353413682539874 0.06924109368500977
Ni 0.24895731491466236 1.2226148978077487 9.371568984310207 -0.6650826813487901 -0.9850441284756455 1.0532189856796699
Ni 4.022693417826181 6.155203917043665 5.006445204258617 0.16070320355174905 1.9277573573935638 1.815985589435195
Ni 5.766664618838202 1.0261683763256946 7.485765747662971 -0.9404696842993803 0.3091980379627643 1.0280278311260231
Ni 0.20882875684137248 3.854685186576122 4.739303131182904 2.419556427422433 1.6634716065624577 -1.843634204390399
Ni 6.127034262126567 0.0964252567885743 10.88592924472337 -1.7362078578849196 -0.6723943845188549 -0.447218712315333
Ni 4.77568746876376 1.574925481649262 12.864860008086675 1.5007122918126283 -0.2926871847919346 -0.36870776329262306
Ni 8.912291523392168 6.1344171016428195 11.795831330433808 1.7636865229211625 0.9221037801976829 -0.7205999976898041
Ni 7.819612748413144 2.2153428090723684 7.519782389158062 1.0044983805455152 1.0685401894177726 -0.3228446822119214
Ni 4.920806118527417 2.8123616382098415 10.110439301985009 -1.3000492600384899 0.08029246640316494 1.9336621529137732
Ni 8.773712754053198 4.134001071059942 1.9616991974057951 0.23302190772081802 0.02702435110764378 -0.5530399191172217
Ni 2.4138365169196576 2.5436892701678975 2.6542289969325275 0.28110796459476745 1.2102318848640254 -0.07050324822688503
Ni 8.08331073148617 2.3440839679141465 0.28339358329819314 0.25314438950230594 0.36502054424902297 0.51381079841327
Ni 3.0468617415397894 4.70486964178539 1.1581646541210633 -0.6823298984650119 -0.21978561153620213 0.3682048555142755
Ni 0.8489820805929441 4.640397166210574 13.211830307133809 -0.4577180691847601 -0.437341305300621 1.8286896672654245
P 4.423691836670745 6.002758007484079 2.900370272684152 0.7421674394479347 -0.23342608513777216 -0.5842957918077099
P 4.534110214379336 0.8117047621722301 9.460534516302747 -0.5408968559967846 -0.6856080549956515 -0.44739843242630695
P 2.2037914905318807 2.6226958426072073 10.466045763241683 -0.15253275192581472 0.059428478469962166 -1.2699958922965353
P 1.071336162374947 5.658691748823828 2.024999867210464 0.34598538199444284 -0.3672890285682255 -0.5068073705122432
P 4.4504349454328835 2.35609845079066 1.369048934285719 -0.40391516443169145 0.3710184137036707 0.3719702360939787
P 5.919416216859566 3.3369045120459715 7.102949307993444 0.17395878301007459 1.1010934407634456 1.2081937713880742
P 7.553043146456759 0.27256109580721777 8.68214331216352 0.7028269899770994 0.0061912164123764345 -0.6275371189948483
P 4.5224014199645985 0.7087720464624909 5.7464141477384745 -0.5124913082708981 1.1423676169218842 -1.9854781091437999
