# total energy = -381163.18291889515 ev
CRYSTAL
PRIMVEC
9.37054165855356 0.00000000000000 0.00000000000000

0.00000000000000 9.37054165855356 0.00000000000000

0.00000000000000 0.00000000000000 13.71473490616996

PRIMCOORD
 96 1
Ni 6.416393899365468 3.0474874791368376 0.049943111636134054 0.20927622736444604 0.571535406818248 1.865906128414722
Ni 8.062432574947092 8.772176122837081 2.8811781730410613 -0.45873931136042284 0.18163326883619685 1.1073077971042737
Ni 5.508622699742501 8.854758704331557 2.7106352563337777 -2.7354915269987146 3.732538336362191 3.4005161014160596
Ni 2.7007680762232957 2.538339111327662 7.7310508742223805 0.7401720062844607 -0.03535446823989395 -0.40997422614157786
Ni 7.846132367453963 4.454680424579729 7.95792011537801 1.736780442558938 -1.5040788942920162 -1.5840309466366267
Ni 1.5746913732442904 0.06579994181938034 0.45565007276001485 0.1563392701560985 -0.49488593648430895 -0.4808646825045525
Ni 7.587908357668052 4.689909125732094 12.1219741350113 0.5683225563079051 -1.5132973275664905 0.6146494643989027
Ni 6.593084828295436 0.38383049513534123 4.849529739365513 0.3235031417315267 1.3959460086378153 -0.40059972690521334
Ni 7.207886050563955 6.667327627930148 8.074439986716866 0.8766525898434192 0.3796056411520494 0.724374891351204
Ni 4.943560311307259 1.5733326447390483 6.431305241919894 0.6469024108953375 -0.2980222238516028 1.1248843725354563
Ni 8.844601037437194 8.329436782039291 0.7080877732218771 -2.8076158557687902 1.7352676054588374 -2.336557103611066
Ni 2.9108368736751427 5.870737902201649 7.56495146825431 -1.4522819642253828 -1.7890820801761318 2.2077803164542686
Ni 2.245200464227737 2.2837602421523666 12.547349862566236 -0.6680299369025721 -0.7071942658068594 -1.7339648274870136
Ni 1.6143568750559447 6.05539379133476 11.664656105879333 -1.8826625219374544 0.3698439337795953 -0.6737149031024913
Ni 1.56172254392529 2.166412952006525 10.049498986586507 0.22607298720681063 0.5998995597832378 0.16570888429645655
Ni 0.9229139945503544 4.308012710344904 6.635215719553498 -0.4961288077524746 0.8583183103106057 0.02628335917656119
Ni 6.584613858855858 4.645717652416771 9.695809774968144 -1.7074505832465692 0.14812408133515778 0.6657689087825372
Ni 6.192690964154123 4.096725742509047 3.765654206705187 -0.04839458925330375 0.8720503151847175 0.6312971002579127
Ni 0.38596885268634984 2.4325550692885014 7.824420822994336 -0.9622716106658201 -0.9603849351660686 1.6142869173076908
Ni 3.6850310054206856 5.837041435271644 1.4445457976332097 -0.12186283364578368 -0.2569707052269316 -0.3547248187499697
Ni 5.47386736163255 8.960111701465605 12.02909801377194 0.24947233996735746 -0.6611447797469646 1.3290309919828207
Ni 5.449166614461388 5.684057976122797 11.702892600125129 -0.10246051785977194 1.2169404072324526 -0.40688170325918316
Ni 4.202078739643096 2.8862579435423834 4.72583671857312 -0.8923921120658631 0.054931104820240884 -0.7423160492106571
Ni 3.8350346323994153 6.194715001099862 5.765043817360076 2.5073117778615464 1.6449280392323153 -3.69493363863554
P 4.016560760699762 7.625184371418763 11.042226325844485 -0.0961327758695312 0.20320688124191458 -0.23118562584302765
Ni 8.742865069289513 6.185391312391477 1.6705098444881061 0.17532943810535612 0.15907492391970668 0.7433889705598618
P 2.407432647753646 1.5912303788425823 3.875743075470611 0.7337769013913944 0.8363202087729598 -0.39795097642845656
Ni 6.864240185234685 5.5771026164067035 6.011936031412269 -0.40647161230495804 -1.6176092968127045 -1.0635108545239815
P 5.733749957248996 5.101407081450731 1.0010361983310685 -0.1963654328400489 -1.102339654465721 0.2535431676026214
P 0.8901245960293668 5.966561058716172 8.19020646652592 -2.4908983695005293 2.0888428839853965 -1.1124404903451486
P 6.251238106917935 8.807250059355159 7.988846650265604 -0.2550817157343349 1.0884500409678222 0.0428641463533778
Ni 1.2569925370944373 3.6217985919491418 2.209306605335806 0.5297308120776361 1.6000826007828508 1.6027953717283236
Ni 3.6925742912601334 4.994461092276053 3.5058428272034963 0.17657513758699914 -0.5331868889470366 1.3306358745760956
Ni 6.19062944504272 1.7405874384636453 2.9726412166349694 -1.450859115735927 -0.40144459140401184 -0.38725724416003626
Ni 4.682740661549265 3.052763093953743 2.0870538367589697 -0.8459176226534076 1.2759893908758089 -0.8689999583941679
Ni 8.04637146696099 6.575196464733317 4.065459056968072 -0.2650455118152661 0.7900920310433555 -0.48187795426041524
Ni 3.895465253987735 9.045121253186684 8.891893222906894 0.17227419621880008 0.7256049071035633 1.0334531159066522
Ni 8.215650297631326 6.025745398296235 10.436158448175176 1.2508846253883812 1.5542380316449103 -0.6329899145793034
Ni 6.053847652001209 0.8787431364261455 10.350180919525881 1.0357426832717773 0.8910150292126784 -1.2615068809889176
Ni 6.8930920822528945 7.923495557380024 5.999702789594381 -0.4859012164871954 -0.4631001594322799 0.21045045017820532
Ni 0.23372004398447513 1.2300428599835658 12.626045543481577 -1.1432996418178503 0.312214713301901 0.023693744072514032
Ni 1.336548433711717 5.514882221408031 4.345253116038237 -0.5837674301080656 0.15291713184842698 -0.4226816464059172
Ni 2.8253306832590437 2.189829935003767 0.811146861817421 0.45567815593659583 0.20623846897938675 2.397322041504265
Ni 5.117768046762128 4.848814767055514 7.585085013539573 0.2080176723669966 -1.8809807633596571 0.5345390320995569
Ni 8.632170863548652 4.377673315227455 4.035436779327071 -0.3879941223260608 -0.8042045591853376 0.026961359080192277
Ni 7.064601101780113 1.7259975054797696 8.012942997515466 -0.4922459277583006 0.1145326185329576 0.9681501809337842
Ni 1.0508968492027464 1.300659260090494 2.2535364978709325 -0.9910373699446028 0.28279075161382905 0.14555066418102675
Ni 0.4304142676740318 8.190537246637886 9.40758129156992 -0.3952112088997903 -0.8146972311865454 0.1894851607804479
Ni 0.885392472614558 8.211873969440894 2.340995509118014 1.7814335624919384 -1.1916515507586767 1.7289529760947193
Ni 2.19971585619708 4.577087807089921 13.766987673362072 -1.5444012480601466 0.2009329976060733 0.34507289748250247
Ni 1.4455653125392118 4.529110635042751 9.530286657297124 1.3162870620535911 -0.13720640598138953 -0.3987523892838294
Ni 0.2707468013335352 8.361484033680174 12.028453320522555 -0.506838737970811 -0.2875346940567177 -0.8904578711576278
Ni 8.289471422902341 1.7548025497909023 3.2550412232727743 1.7516583881120351 0.9327108662895678 0.6266158927321596
Ni 2.416672001589292 6.953803820083679 9.615976510324968 0.8627552630360369 0.577470027135128 0.44115476550944027
Ni 0.030036333453124717 3.4180361688699015 0.37988174898286514 -0.18601211463018288 -0.35251624113442515 -2.2911938449849187
Ni 3.841903239256949 8.690755488478125 6.602191120442982 -0.4119259505513099 -0.14218071926752932 -0.8232775166563885
P 0.7244328086128691 3.9916632321588774 11.699724420072561 -0.5263765508934225 0.10131946227679325 1.5867493740090544
Ni 8.908648688011883 3.4057232774499835 10.077271397233657 -2.4852278014783136 -0.5405865238452174 -0.04721085335784773
P 5.728549306763415 6.533572519765831 4.327341326122579 -0.44437738621179595 -0.6687429038091965 1.0993031816322423
Ni 7.312779891168646 2.045167516631851 12.099893391219902 1.4093113742011276 -1.5231523659836994 -1.4477336827330678
P 7.460159766551047 8.133911064864243 12.300772498705605 0.6422903660446229 -0.11120663948351817 -0.19379921477476947
P 1.509453663909838 0.6040457148318512 8.397572799833547 0.41849589045934377 -0.437795105008588 0.21351314826392906
P 1.4303381827390849 5.964696320974495 2.184414699119771 1.4945406157842778 -0.22078525644531008 -0.3422652528303783
Ni 1.071352741112702 6.949765116733615 0.015525113017138898 1.7589929741002353 -0.974096114104574 0.9129704504378471
Ni 7.061911756393874 6.458964269015915 13.650357229634514 -0.01604548349863688 0.3992902640651704 -0.03344336726011014
Ni 6.432005221363629 8.931409733110042 0.8207422962268549 1.91163731190325 0.8609079254146528 -2.80465188804446
Ni 8.376608087524732 2.152001059309543 6.075942451604728 -0.4681287229951228 -0.3776945401722656 -1.5392042772402392
Ni 9.05857735065929 6.777834422842702 6.2186586085246525 0.09014056284183831 -0.9422378319433966 1.1129382559171734
Ni 4.850754469128514 1.2852634605448885 -0.08258914087346518 -0.20206325455577456 0.4002014630255301 0.13329627229370591
Ni 1.9612730593392116 0.7652087195822558 5.788180621168996 -0.884226031315303 -0.3733110663925893 1.2975581181855202
Ni 8.401552468772694 9.214521900895422 7.557244197940092 0.870250028751185 -0.3694492694443379 -0.7004142667705485
Ni 2.874198056740683 4.147139255324237 11.44767559707944 1.9083678971233586 0.13829886771461988 -1.6494112718146499
Ni 4.014555464836853 0.34460915698677974 4.546077874383729 1.005555875275752 -0.12683483293907835 0.10540468808976042
Ni 2.2120100065341672 0.1219135549775967 10.745768632975203 -0.5924125073775732 -1.1361573743461142 -0.6357227401294342
Ni 4.863920079817239 2.2733589411812027 8.837294826295558 0.11089862132479611 1.06240450883368 -1.0290297900279761
Ni 3.2030759487991833 0.2521369060824259 2.380959931200821 0.183165132099691 0.22838543739007117 -1.5790658893218676
Ni 3.473734667043413 6.448806602121554 12.863982331103012 0.5806386546710968 0.5500895782396461 -0.2613297535265758
Ni 0.7933418960738999 2.7314378582761054 4.699037907179037 0.8577691226753551 0.29971683794520637 -0.42959354303440206
Ni 4.380746852811726 4.045328322845234 13.184632887798735 0.19034030969189156 0.11146272135838223 1.4802866769684246
Ni 6.214908517850185 7.036180249667013 2.340076259005157 1.653091291769398 -4.738873770116445 -1.4472328318372494
Ni 5.59929205847852 3.3685128574891805 11.33208715755728 -0.09549539939584845 -0.563595326035565 -0.4612831608281992
Ni 1.4681483173504777 7.988742637255893 7.225826889158 0.9458463752302614 0.6043771359386173 0.44813171104790556
Ni 3.922742900048148 1.8849312584274356 10.799379374521347 -0.866976757316552 -0.9441695017484707 1.1548865753245015
Ni 3.2102725246062587 9.155824829468964 12.737148304828153 0.5578106010329876 -0.45668088616949737 -0.3872271622530492
Ni 3.15927803822331 7.538216376541853 3.325644504621721 0.5320622884242902 -0.9526106905372884 0.012460851471172088
Ni 4.8658410408074095 7.07588323364433 7.852426560122729 0.554745846064735 0.44340165256208797 0.592874020395024
Ni 1.3074060499096274 7.82905924099499 4.857114255587189 0.3519230876351165 0.7545491009417393 -0.4046602701278322
Ni 4.343489580143847 7.92513540212773 0.8044600434633468 -0.3897327022837223 0.853370222276711 0.17377597757530716
P 6.518045532640409 3.259889541401135 6.421568312335086 -0.4067999421786542 0.5573727421646206 -0.003475617253426272
Ni 8.895567412195897 0.7530616867453912 10.254465524237634 -0.6466540423299573 0.7056233217753138 0.05511725268911798
P 9.047641928827444 9.251741691397642 5.113661875513873 -1.0861679298018647 0.16677820610123537 0.08692334145612127
Ni 7.668654313045096 4.177602885465908 1.7999217067063562 -0.9516784085310063 -0.6500895503740676 0.5303751305298543
P 2.7265932883643114 4.390904519706089 5.531179467037804 1.1054005527792319 -0.9304092147395848 0.0684831324730627
P 4.017825783790849 4.2412288616769 9.513486213593342 0.3197207918709591 -0.39866034379065535 -0.48661469761445225
P 8.12666763635009 1.781414887410817 1.014097796010082 -0.4278102258817341 -0.2689178502864788 -0.22165428931382472
Ni 6.237210406418986 7.799335883625141 9.941728389767269 -0.1825822630130275 -0.33671012734010397 1.000197182067
