# total energy = -340856.49311364384 ev
CRYSTAL
PRIMVEC
9.43915358827974 0.00000000000000 0.00000000000000

0.00000000000000 9.43915358827974 0.00000000000000

0.00000000000000 0.00000000000000 13.81515540070933

PRIMCOORD
 96 1
Ni 2.300538802129952 8.582078338509506 6.371259634064736 -0.22535179277006995 0.32990647415470925 0.05291973081716693
Ni 4.756181774143745 1.0064686174661825 7.087879221891185 0.3989259387472162 -1.485735358787822 -0.5512681719287796
Ni 4.126392015208755 2.548042845370227 1.2037667472938989 -0.4228567385312008 1.458196529937605 0.1790955900160077
Ni 4.125249877638408 2.3299512043547606 3.880940043933716 -2.233914551647475 0.27963549381429903 -1.307745343131167
Ni 5.843893185560161 5.471650729161721 6.608990377798088 2.7413505568826526 -3.0457025796070254 -1.0888519043919314
Ni 0.7567775223659952 0.26486830997094135 8.574030516257622 2.59699905521605 0.9988977465292861 2.3994203187941907
Ni 7.625778821757335 0.4227117221929207 1.5939785201606844 0.10127318241989011 -0.9187837146855145 0.3029957658067943
Ni 1.257332999343181 2.0518548647054344 13.385807960447547 0.3254399537429234 0.7127447633114434 0.09678043675585912
Ni 7.06443236466191 6.344442055129915 10.77571023230892 -0.6661072659585624 -1.892586723029702 -0.6804396234208346
Ni 1.400071878176156 2.017468028599858 4.795627052596008 0.7481303418995889 -1.052664912948413 -0.7873581770519601
Ni 8.413674401380879 1.6447724928346694 10.479610595238743 -0.6862819411342245 1.7140871147264802 -0.43321648449897004
Ni 4.374065963211561 8.874550508899649 8.90120101481798 -0.7006474658272772 0.07251153690616544 -0.5408366921828105
Ni 8.641771545078726 9.323722066110728 7.249199074337618 -2.096405783934318 -1.1518020228619066 -3.826033931719192
Ni 9.433216246408474 5.042178685250762 10.799389292713656 0.06634063220876317 0.1150254990089761 -0.3276377327251906
Ni 8.021430378771154 0.33689282663852044 4.504886966868335 -0.28232666749321705 0.629471874123716 -0.0802076199988425
Ni 3.469266467813225 2.5761054486482613 10.57942492364896 0.45926150241248 0.37002571077309826 -0.4653393331754438
Ni 4.727307403666952 6.84329187707436 10.36423959798812 -1.9421542495451842 -1.0560821661600779 0.05690571204810845
Ni 3.4609788910631023 6.682571410873521 2.1275757538734097 -0.18640677896544025 4.224048928616364 -3.364608588886173
Ni 5.674356550014659 0.9318058574026362 2.790219430389808 0.06931976944174513 1.1387413330232066 0.7247638992595067
Ni 2.473379141391333 1.3247191159936644 6.977150400319048 -0.7897917261941173 -0.6748562157957861 0.03314589062434937
Ni 8.491301999550592 2.832302952238038 4.8818886444483365 -0.827545033683491 0.2774654827461738 0.20165933424913657
Ni 7.365003328732695 4.272094788232549 9.370059814429665 0.26742378223945557 0.04709721059811889 -0.5580561413848906
Ni 6.015496995716454 2.2479532781266123 9.669668928761455 -0.5866048995568607 -1.6445958527038773 -0.8537564019715361
Ni 8.689184412978344 4.058958702790902 1.9760367522566773 -0.2554835791584439 1.9357941116551114 0.49176795968061765
P 8.733425725310719 7.03025318993276 11.623118730670333 1.7135998906774166 0.5487009254222357 0.04430499256496241
P 5.829932677572198 3.070018593325833 4.599728749228477 2.770409936142454 1.5234675832312732 0.5917936428466518
P 4.03561567624984 5.8116773547535905 5.574788583510113 -2.422437091404338 -1.897643825837635 -1.7511143426831066
P 0.10113392206587374 3.9333046917457652 13.816675111241956 0.70535592704654 -1.0208989333907257 -0.44658159295196637
P 6.810245400762083 2.9217200530967053 11.548489007643946 0.8842905660046514 -1.8848952679227151 0.5134207620637029
P 4.234083317192978 8.46535376665072 0.29586554606402465 -0.535635093377213 1.3626173125786984 -1.171959214536072
P 3.6627313574151725 1.8619202185027417 12.737186146416692 -0.05339821311548222 0.6523624055686442 0.306752147525433
P 2.507039162679416 0.045829921862038284 9.823611138852653 0.49712511022747286 -0.7434463061603583 -0.9481598538547865
Ni 7.747156896278775 2.450139945538484 0.3928896607073434 0.3751278078863539 0.954335386537879 -0.9856336824305283
Ni 1.7682838160412213 2.901614656197206 8.460871112665943 0.7430254165728557 0.4814300680897192 0.4656640635047142
Ni 5.379836083320672 4.265742237944584 10.788351146641226 -1.6271971976114554 1.7622209941192295 -0.5941030077061188
Ni 5.66672027485424 1.2469310522148953 0.36632977066236094 -0.6263155878829213 -1.7793843932723934 -0.5689691887529685
Ni 9.13968689082925 9.111208964798362 11.379280854639338 0.449240113620736 -0.7238730120141211 0.07325792815388674
Ni 5.309419998405053 3.4946011557372896 13.08501045669339 -0.9051635527989186 -0.8195375899979821 0.5813181972366247
Ni 4.6046078476591585 7.1921535503178395 6.9490094520671795 -2.456394422186389 3.2473292608460134 1.4888183685885197
Ni 9.337597621717425 5.765434941884741 5.9352254906586905 -0.11312236844899227 1.1329944032371004 -1.9649897593824608
Ni 6.946877147297416 0.6440872447019722 12.421979774884559 0.9898603189173663 0.6083482047712233 -0.697534117009276
Ni 2.322805765174985 7.283222503034447 8.714600277622285 0.7011228628017989 0.6837764011035514 0.23593008250654854
Ni 8.351762993745284 4.056410131352938 6.809034357371376 -0.8197188527708528 0.6707337089869803 1.8480675575714043
Ni 4.326709730232786 0.38475216649745664 11.217602314360894 1.302322372343383 -0.6180230088568259 0.10137628365665767
Ni 2.5020269721847517 0.1528047920975883 1.4331155227423904 1.05059568912421 0.48285317368949104 -0.12300311789781397
Ni 5.906833460924416 7.989233426271531 12.022804581878917 -0.44839499201162136 0.38994173297073487 1.5083150438605506
Ni 1.33217604723808 4.210862999647077 3.412923216811908 0.25158784364846354 0.485044524913855 -1.0265029098410645
Ni 6.5632133151955045 8.163423564479688 7.622995215397868 -0.27060526529123075 1.3286581820244343 -5.302593023324384
Ni 3.2609349114898163 3.277368477687952 6.13951048188782 0.7251796466406866 1.5394156219200974 0.15305185765407833
Ni 5.353906728727749 6.69103833153965 4.22756180605783 0.8414307905266476 0.1772855333904624 -0.4765233748167213
Ni 7.475403667763939 7.46686123387002 5.529695859534391 0.7264564564705812 -0.17955633170251012 -0.47572221907166456
Ni 4.1059940045515635 8.58450420095231 3.532839166460235 0.2958612116445421 -0.40612451337818445 -1.398729227809907
Ni 9.389862214502651 2.0853261029240384 6.969967204525377 1.1615506176082384 -0.4802568737172246 0.2945124109261315
Ni 6.4642343518677325 8.116322188644709 9.592456653344597 -0.19489244783894824 1.396699341864072 5.397448732253705
Ni 8.76392363018503 7.964474526709378 0.28896646878991933 0.1613701477117866 -1.6809345392339117 0.28595063739904947
Ni 0.3489371864712725 1.3704140579610253 1.6439201372759724 1.1587707408702559 0.07171989424280552 0.942934343789789
P 3.126247630570115 5.268586220476772 10.674804737757118 1.0930011506736144 -0.11315322168692771 -0.9736618547806328
P 9.038961684108799 0.46262423874214376 13.439286428369522 -0.1459576698114583 2.0416474572465164 -0.09057327950388272
P 4.645989096488927 2.832463417847095 7.975102069605692 -0.26218850198244525 1.512386385716447 1.0868765258331152
P 9.354238849291988 3.474741176828112 9.287403979204383 -0.14967239965888418 -0.10153440650107674 -0.7956692680208167
P 1.2391248722919441 3.9489925648194597 5.524348579091401 -1.0970475528288464 0.9737613564729743 1.8407818225432684
P 7.87170652636746 0.10982927024607057 9.109727017702953 0.4211194441251199 0.8611511517737105 1.1502580754135545
P 9.040217091520832 5.759365566200995 3.578912618481901 2.7358926190918753 -0.06873741457571388 0.920338203656828
P 8.261449173306591 2.2499543786630882 2.9291854795792474 -1.2191217311544875 -2.2579451102341177 -0.8086332843806525
Ni 6.780927390072014 2.4057476067505275 7.242940915584393 -0.34328495234414425 -0.3285833844679116 -0.3650472837219003
Ni 3.8141542574441756 4.978134028930055 3.130541501485412 0.618151049794258 -3.8198820531851823 2.154601418438444
Ni 0.9717891676029138 5.403698263302801 8.133257917807658 -0.8976389622870993 -0.6161044516778744 0.6414521864140437
Ni 2.2941296169211447 5.10510008230807 0.7831731711405309 -0.2758132918547314 -1.1844717451807858 -0.005466165320893812
Ni 1.9983820602755442 6.394394055314024 6.2212544948875195 1.875215578741106 -1.1696835311280178 0.6914909961389898
Ni 2.1022316267958714 6.728049252310981 3.818674668042847 -1.6356162749130865 -0.5269949012037117 0.7231613306590771
Ni 4.129148248023147 5.00337432531938 8.5302781520752 -1.143142547414696 -0.83146210934971 0.3670704847995162
Ni 7.174549529088935 4.770585922344983 12.522112202766845 1.5651737047208076 0.604256808310669 0.623583533663739
Ni 5.511465078514815 8.982619377022829 5.375753649443191 0.640693196760832 -0.11853196950033781 0.08339141704346283
Ni 9.254702975909252 8.299762697257329 2.9439124468292945 -1.4882756087111724 0.29663819901988264 1.303396322133852
Ni 1.8788918164488924 9.11340828755779 3.865411692553731 -1.103173720331242 0.36808452788632734 0.5190861878795964
Ni 5.51020967110278 7.008646967630902 1.030596981576277 1.318266040156833 -1.9974936455474372 -1.5675985121122162
Ni 0.3800854490199389 5.8748630481081685 13.062381030154956 -0.3590530138116784 0.22840754887725823 1.1799741144207485
Ni 1.101596406176586 2.6886767929785123 10.96546175893422 -1.4538904463630833 -1.8662455140320116 -1.714186359308506
Ni 4.01890837460096 5.789467026629401 12.827565097014356 -0.12882255279306845 0.659042131581665 -0.9153204387272623
Ni 7.954242484343624 6.302485017938235 7.884156769799592 -0.0674966001900773 -1.017255165990551 -0.7207005278234104
Ni 7.402816577549313 6.822884427263693 2.854211227451061 -0.22859858184214177 -0.3086053986840879 -1.6716029774203405
Ni 6.15014652002226 4.027026046588551 2.4661157127931337 -1.010784213554227 -1.0358303578895773 -1.2460501801142154
Ni 7.186914820139801 4.97836056861343 4.175423697929156 -0.2667951475165211 -1.01805220797055 2.917509689978156
Ni 1.8085040489936948 6.7346377814357945 11.489525447638261 0.03812508900649563 0.22170673981831496 -2.0828043911008
Ni 2.0593401134102716 0.5403490601926374 11.790019010650562 -0.7412909503802524 -0.1820212483032349 0.38467174282104716
Ni 2.1872123255217857 4.05062393027341 12.106538368430924 1.0466055941282104 2.0074942084035747 2.6123955922767785
Ni 2.2387501034895174 8.063755542948318 13.217193530196452 0.11153625490879501 -0.0222572687363036 1.9227861294312174
Ni 9.384170404957864 7.4082157733364085 9.1502474157359 0.19238022294005577 0.8267719029628923 1.6075606543274508
P 5.925570180570194 6.145521334820027 8.63977705194968 0.5701182147557472 -0.057559543582023455 0.6241139522459123
P 2.396261257509214 2.5767378719310154 2.284087301540216 -1.9888701655444845 -0.604640674012649 0.71815230748026
P 0.2343383119748182 8.73065061418938 5.458036638106252 0.43275240037835794 -0.7213669577628157 -1.1869063227642076
P 3.533650933658994 0.606900755676024 4.981648225768404 -0.3401219812351304 -0.029111572653975668 1.7471813261772875
P 6.157867747563946 8.366204898560417 2.38470301408037 -0.4463347670484829 2.4008804482794845 1.4108923455350024
P 4.730252419550822 4.9569431293810515 0.8549522698177876 -1.1413211779352408 -1.0836618755505596 1.1883715944558242
P 7.678732472746158 5.830602857468848 0.6239818478024725 0.1464981156959606 0.3081076331120629 0.6330688474463548
P 1.2706422057414417 7.832090399237319 1.6844405353089174 2.225190027290284 -0.8753510974231763 -1.4828428677313752
