# total energy = -340863.0138083084 ev
CRYSTAL
PRIMVEC
9.34762412965408 0.00000000000000 0.00000000000000

0.00000000000000 9.34762412965408 0.00000000000000

0.00000000000000 0.00000000000000 13.68119278607757

PRIMCOORD
 96 1
Ni 6.805089213385995 7.226639028161322 4.738043434927181 -2.7917572914699793 0.47907185227018784 -1.694857834183223
Ni 4.6945171569592485 4.561836977104247 0.9819800886291192 0.35200562004659375 0.28635687169853263 0.1903310537205109
Ni 6.2681897142785035 3.2902609431437315 2.2320042399157103 -1.7447192377900402 -0.9415649742460882 2.5291139613383025
Ni 3.214844309983935 3.755800678054161 11.954845023235086 1.2842950825280268 -0.31678227806792536 -0.031901219583970866
Ni 1.779376378503499 4.562771739538058 7.273264043597335 -0.7109483335326531 -2.6827656573599086 0.36200104069640876
Ni 2.7014727813354438 6.638121947458839 1.5268624589213478 1.2280480871098398 0.8806655676575543 -0.3744899171920389
Ni 3.3426637251831237 7.81134227813386 5.805628132482193 0.33865259577845547 -0.3774921943534725 -0.9372570908993536
Ni 3.8111666570087315 9.300979692653588 12.603716910001383 -1.012575758237011 -2.04723446441599 0.5533679918806019
Ni 8.267936336552726 5.357076770043827 3.564443590704034 -0.9125984118104089 0.5917779591173679 0.8790722550285054
Ni 3.9715531954018637 2.0007748609514144 7.393946547614384 -0.10675683124228066 -0.6602024704383532 1.5130772411358844
Ni 4.5866455720975665 7.142594537737459 3.6407847039108683 -0.2821214934609464 -2.1486793965270543 -1.4867033791280462
Ni 3.3667619007267477 4.543964319369799 3.0810461542580962 -0.2887192012831221 0.6581322181728858 0.5771848917945415
Ni 4.736796461840479 5.281239493788816 10.204774381793966 -1.0657572273559968 0.5771794924779028 -0.3486431313322641
Ni 8.520976527385113 8.930009873171723 10.82871895873785 0.5247909515738576 -0.3186167601735029 0.0704122311749755
Ni 0.5398692393597052 1.53870309467042 9.80280784000696 -0.5201557667946912 -0.3561654078512382 2.309527096076468
Ni 0.631392764016483 5.789871776897891 12.573878358351733 -1.533062940229192 -0.3259508319410709 1.3581950151412867
Ni 1.8464268878806955 7.5383822998369805 12.06013572901702 0.3062574672772016 2.5237280144360406 -0.6179649019253808
Ni 3.26374173289654 0.5992733920283353 3.8531711417344208 -0.2308210434147573 1.0655163149897842 0.3374665458901543
Ni 6.193978924658323 0.2914421011381716 6.740751384591714 -0.4425292772594636 -0.5917437634453229 -0.9193933232450553
Ni 4.2831936432098034 8.791627642470482 8.183008495628913 1.044785510200336 -0.2447433099228043 1.2612199458761182
Ni 4.184968806665041 7.095734896930559 13.207057453379225 0.38945502314230346 -0.456590126227904 0.12154813061884229
Ni 7.782916152521696 6.709276063920462 13.034688195347083 -1.0497107154160954 0.22097166142450334 0.27916241083262244
Ni 7.361366337746367 4.859390555034669 1.082023972870076 1.0974784697186777 1.1989604257152642 -1.684530484115286
Ni 3.160618741198612 2.244757203800181 0.35247554472893255 0.8464914928790066 -0.07866315832985808 -0.3913900353814872
P 2.761923867929941 2.122967006299067 5.575510186051697 -0.33172141587626097 -0.5451648872445192 0.02634120899769012
P 6.062420459723893 7.618669045276929 11.720842204129674 0.43133032321985065 -1.4986073296544835 0.8991564273728901
P 7.549234891693517 0.7818885810974707 1.4245676667397766 -0.5025100286884701 -0.3253525362354397 0.5853625425093273
P 0.831123453248681 4.735141932332635 3.2077195507134344 3.050787193218784 -1.7676449933482785 0.8258607040025326
P 3.9629720762594873 5.60196583245339 5.173078132572653 0.41365733142011984 0.5526079737861257 0.15102300014950765
P 5.129050821940199 3.497852984444272 8.974041857616347 0.30599547186506654 -0.6042025580339659 -0.788755571620119
P 9.338753442603855 6.806276361676933 10.264766500033462 0.1630135968524805 -0.3574049366852941 0.3362552991908725
P 7.5652473721846825 4.034032716477729 12.633993865232492 -0.10649303605793274 0.7704493171117635 -0.20871161311022762
Ni 0.728339780314227 1.0022803244041727 0.9746852025956655 -0.8343394308975052 -0.08581493888329092 -0.14340327882072076
Ni 0.22798107950680588 8.074290950764633 13.52432423627627 -0.8600651177983833 0.05453438360245447 1.7861067995978916
Ni 1.6464344651670308 8.181769935404114 9.63814102442941 -0.7327296910738026 1.680059592828126 -0.6938263291403858
Ni 0.7838861684185228 3.0927923790013536 5.442186889642235 0.06885825642429431 -0.16362963316992465 -0.8222254212427903
Ni 5.596002048125682 0.7145744687139398 2.778978608534806 0.7561850938832654 0.1333554076664155 1.4334249794198797
Ni 6.314656754863202 6.772110794721175 9.195225344704486 -2.022832638532858 2.0179300590249185 0.34083443392112267
Ni 9.218253217261399 8.462937127869846 7.8560828125033115 1.65149129427213 1.426889492294207 -0.22832835889989062
Ni 1.849081613192716 2.818168523572293 2.1382195249315457 -0.6693036614086731 0.52055300223311 1.3611414993641202
Ni 4.02699395535114 4.945285875077476 7.659278864451372 1.1270379285433492 -0.1456241977314395 0.3236178129325201
Ni 8.948162959636315 2.2487766822655644 12.58631443777114 1.0842097776342297 -0.004916977685643145 -0.07758226656085347
Ni 1.8124856639090516 5.805772085896999 4.914585472463853 -0.530760281783415 -0.05856510202840236 -0.0499580770856817
Ni 7.437156875879688 4.3928225814470485 8.539089419065052 -1.9832746737345777 -1.4334609748641376 1.2694081381138653
Ni 3.711586414934945 7.664061109062745 10.665652456446985 1.2306500435090613 -1.0581300498280422 -0.5339841880373514
Ni 8.619322883046271 3.1353053744910357 2.467156816814707 0.8772457433427279 -0.8940712995404989 0.3192695632661534
Ni 6.656929367627098 2.410799054917864 0.1892146118518346 0.6564674288759532 0.6873633471238614 -1.3705082852910009
Ni 7.227779438330571 9.334472230657003 13.013003576407558 0.20771248242175194 -0.8598316616313385 0.5311989119827303
Ni 5.339662145901945 6.998781337295779 6.6070719436949705 0.34208219028529474 -0.6471183835608856 0.853040349741118
Ni 5.764249938587157 5.261347749197338 12.57672377520025 -0.8593981736383457 0.3591926247133362 0.47808686264909916
Ni 6.212132011122915 3.0720500005951084 6.931521441133409 -2.6480912459061745 0.46486599308345106 1.009000896401559
Ni 0.4307871371462389 5.809286792648126 1.458032161870177 -1.1012515636078648 0.909457552188582 -0.9796820928327838
Ni 2.104514795855656 7.915428075138611 3.2403773458634566 -0.14379408650123623 0.7586214712388999 1.595544346592865
Ni 5.263376183678706 9.294707436722723 10.757303108794762 0.7544714536262683 1.0997976047701574 -0.7235117720199604
Ni 2.439683214122595 4.717334707968552 0.42320995285777446 -0.9135929145131944 -1.1574687342293808 -0.8989042021527681
Ni 7.0377422355369825 1.541198910368693 11.364201357995684 -0.6723100523351647 -1.141107519262538 -0.4899249929346079
P 8.009913861948133 2.505387665595105 4.8777558325717365 -0.31989896932003614 -0.22443750848591668 0.2918405205209232
P 0.39869393850623774 8.248633492294548 2.0778862184037084 -0.7409533645351756 0.39335307264512903 -0.4615531266601341
P 1.3999843494930055 8.463385813838075 5.386586285316778 -0.029890616911845296 -0.4878326291819534 -0.34074135998668414
P 2.995352742900992 5.822093037991324 12.1241501300092 -0.29467207643244736 -1.846653450832697 -0.8396086497162443
P 3.4084242624016627 6.786281793217736 8.479534769644577 0.8206714464921092 1.8795998238517306 -0.4092700009857016
P 2.79396752416095 1.105066801625928 9.317782047401325 -0.18890769101042307 -0.6250580613267365 -0.2450551847362683
P 5.04690389925697 8.883972823306578 4.605841853438291 1.8420010396623503 1.2981903524528802 2.0161894221847274
P 4.865522596600464 1.7221689175543229 12.385419969308849 0.43215873265841703 1.1824865964299571 -0.5282215745219613
Ni 2.532738814408388 3.3108911500579197 9.600968326724086 0.82864289473336 -0.48442514616230126 -1.0767435511641714
Ni 7.938638226370116 2.061057690307826 7.306988402684334 3.664985686123198 -1.3798200496102302 0.600207835052276
Ni 2.2842322213799804 9.325423730297722 7.331641827113641 -0.8673763067478159 -0.8664964752460238 -0.7523646916959107
Ni 0.6779233684466807 0.9074795226544565 3.596662982272599 0.04360308140193136 -0.4157260410236905 -0.6188619598183536
Ni 5.579269800560481 3.306376247502617 11.076280506945677 -0.2016616482419817 -0.16825556197771022 0.28870300333320603
Ni 1.274819659605837 1.9116172200146098 7.749383419733626 0.27739349185765777 1.7529051160349425 -1.7330235466196668
Ni 7.941694899528674 3.397749275407551 10.586096695230276 2.1618298178660833 -0.6838864443188545 -1.0916672623535393
Ni 4.353394301988939 3.623681355659446 5.782575021339569 -1.7061575754667586 1.8857362757667715 -1.4647073344729291
Ni 1.090755588764296 4.349393518772232 11.05023148220269 -1.685328297426233 -2.4489161115314726 -0.2838238208640338
Ni 8.709480719787253 4.6206989675612675 6.650729088403636 1.1601233982434085 -2.0481621184365824 -0.3692006437686416
Ni 5.252486201324818 1.7687294343824023 5.084163529868639 0.6267009962467981 -1.4031479257028932 -1.1952043011069418
Ni 0.20472979872821415 0.7083311904185223 5.962619613715726 -0.9585057158654846 0.28776840733407855 -0.06250634606433751
Ni 5.158056500261325 0.7347887063450826 0.654121512594575 0.4438292270178098 1.2167540022532592 -1.0423221362615083
Ni 8.993414809057061 7.5948886889608 4.4455534651007085 2.033389845223414 0.7673274836533301 -0.6443055967024387
Ni 7.420667666547279 5.565454011788768 10.898233501890571 0.7748970684704719 1.5299200237248363 -0.2697837978311999
Ni 7.404402800198984 0.34022641779628543 4.4243614659638 0.1556479005160287 0.46168271025946295 0.09396842122836076
Ni 5.8887509471463195 7.86857778195605 0.8363356885796059 -0.0784384439135617 -0.56358966960861 0.07079403999442647
Ni 6.0508107102959725 1.3030681803555773 8.89344570581081 0.39076885685772056 0.6143193347529936 0.4218781766680154
Ni 6.575147002293055 4.59307673764218 5.343915314975781 0.41987682996727044 0.7155642350381096 -1.270882922887179
Ni 7.544514341402775 7.57820317951729 2.340181492093248 1.1157757253659688 0.20251345471931573 -0.011237263476716131
Ni 8.196838305837133 6.42008860977264 8.221562772211408 2.0077963130250263 0.9459098814783452 -0.6961056120928657
Ni 2.090269016364391 5.886544907802528 9.81202833665406 -0.19769752138791113 -0.7005376797222903 0.07106991936363244
Ni 1.403106456021931 6.64244989752738 7.301009662157685 0.14211901279165848 2.506854892829786 -0.08802994425673873
Ni 2.5890395557967687 1.4709515134678661 11.682713244454563 -1.2691669686373368 1.1865502249763695 -2.2946491505233704
P 4.086276588903374 2.4153700432191956 2.570969663188786 -0.09601244824158303 0.23464838758064752 -0.5566134954010931
P 6.270900525336553 5.5861870425706766 2.7845058588059244 -1.557628031163066 0.6924266205793816 0.4198012395343286
P 8.097669359234223 6.3882692965257455 6.004182890572658 0.3110538602245805 0.8051844066001036 0.6454487091679465
P 0.39737685823699936 3.583150056529441 0.4941808558823703 0.9410353269948631 -0.07529398474730904 0.4861477852803628
P 0.863980352797105 0.3562744192599367 12.324702475420716 -0.5260603052045844 0.44533692191158786 -0.21008355375708979
P 3.678916467873283 8.737308597441778 1.067047209155571 -1.039070976314062 -2.1819749253553904 1.1128009590083607
P 0.10711629681516367 3.5138467696867624 8.601174470393849 0.4325595676412615 0.04939114883861816 0.7015622643320628
P 7.292100441401041 8.757705113747514 8.342996825225242 -2.1981870163388786 -0.07293679736904213 1.3662402540432663
