# total energy = -340894.52492076275 ev
CRYSTAL
PRIMVEC
9.06757078636777 0.00000000000000 0.00000000000000

0.00000000000000 9.06757078636777 0.00000000000000

0.00000000000000 0.00000000000000 13.27130640995391

PRIMCOORD
 96 1
Ni 6.271929724761424 2.041064788452558 11.534928105032664 0.3609674572255719 0.1980867864065298 -0.6154346793043595
Ni 4.775971006290936 0.5452692862516099 6.1137985487744775 -0.2744390372150241 -1.1613829816821224 -0.9914266349632216
Ni 2.8802231031523156 1.619803596769362 4.860695665052189 -0.011244976786199989 -0.8142670856276623 -0.5551176275818569
Ni 3.307069918281997 4.4580347807972025 5.050926040715371 0.7401833191383704 -0.09550979757355163 -0.19982588058482362
Ni 5.165921876934008 4.486225857575003 2.6568362490890998 -0.34160422220761166 0.19584581289115302 0.3128657166223386
Ni 7.301225925904958 5.863471942666603 2.4762265657582585 0.36702446205292916 1.0960913595631638 0.3592368476877103
Ni 5.007012703395587 4.570445452657734 11.599520036946135 0.3733622313454989 0.3171412040692409 -0.10804469681576877
Ni 5.440197750325745 7.945250122798904 12.434019433907576 -0.01962265932693395 -0.11360059363699145 0.6304285816100303
Ni 1.8049180491395125 6.383986761371285 0.5893159168581854 0.7170693588287264 0.7018669400566752 -1.4046479072871874
Ni 2.6499158792605964 1.5421851930324781 0.3316472988921617 0.7894731665124339 0.6074483186647732 0.5887080619427926
Ni 0.5821162658573577 9.064696110151795 4.8948423221540995 -0.8962986462091208 -0.05232014955995505 -0.6574853286175063
Ni 8.530171894978247 2.2140105611714347 1.3125417153035557 0.687544609896732 -0.03973717068862189 0.7004134954396002
Ni 7.0824798544390015 0.7783611610530949 4.694114420088325 -0.8952488647883678 -1.5150423352820552 1.109979944619798
Ni 0.7720628265629501 7.37722123451697 2.5112500569304212 -0.4110900849135759 0.7151723989163296 0.5533733911972405
Ni 7.697832393317056 3.783171776530692 3.9809672262870612 0.6297043018494961 0.08235089159409043 -0.6656820054956858
Ni 7.639038266000473 3.7310604486947256 12.727912089383935 0.895911180962715 0.0028302703599435127 -0.860376221280899
Ni 7.892875835417567 8.82015280052796 7.104568456250106 0.3465654228676289 0.5990737214478328 -0.978889164617843
Ni 6.983335038263874 0.6263388073322155 0.21582359348413444 -0.6133680265833178 -1.0278527390007395 -0.07033561230076918
Ni 1.9027934054404383 6.513281249558696 9.406276932559583 -0.023307307267372762 -0.6109946412551348 -1.4759628527820903
Ni 0.1373029664795145 4.682067245882154 1.2909327879734893 -0.12109921600688177 -0.13191636122704375 0.8070921651457778
Ni 6.4044704031985775 2.032795164129189 6.963348299301626 1.16999617727243 0.6244723640265956 0.42652364585982677
Ni 3.683600784540655 4.360195694778397 0.5434929491847809 -0.49209346134083637 -0.8418269975238017 0.35257151985239277
Ni 6.135725747830147 5.763184612604694 4.708871891125916 -0.8029768574258236 -0.39815820734325624 0.15311382124026532
Ni 5.446535982126221 2.906655071247294 9.274360102974894 -0.2571455402418991 0.49276066261119 0.4874117395944509
P 0.06634560005397577 5.479877438965068 12.513912891090436 0.9350783380804799 0.1498426066881613 -0.4805762047298562
P 3.863057072900079 6.187637589114453 12.795742050733674 0.8005520500344149 1.0798746405939854 -0.49512299219577954
P 2.3578403649184505 8.57063139468315 1.4640245485778995 1.497424622200292 -0.7762517827261535 0.29086710086406037
P 6.534852999849589 7.758322156322753 5.855830700980963 -0.7329088969641442 0.3919392230167379 -1.9726215648961059
P 4.6588814680369195 1.1168617297518382 12.661290835185847 0.12250098145041484 -0.7618654320974945 0.24389741698274126
P 4.019173434715258 6.324458160841771 8.253491301881953 -1.0258897017370978 0.23179729128509757 -1.048417964746601
P 4.802031203994185 0.9238584910205794 3.8006894160376183 -0.001275781388630061 0.25043984608694936 0.3716609323836761
P 0.32416745996195667 5.4621775412904885 3.439869022479256 -0.7295350953959049 0.28050684067565884 1.5177417364910895
Ni 1.7744782148702696 1.287105366452772 2.6307316202902546 -1.2750069723578816 -1.304431962487218 -0.10708593244692527
Ni 1.7310808223136425 6.643527832651756 4.9656183371690386 0.4563823810924721 -0.7845839567409326 -1.14662227843318
Ni 5.880482704980901 5.783894943695237 9.319429555537255 0.35527426349553654 -0.34764991418105934 -0.4071246725079246
Ni 8.476437472017409 2.3335846137506744 10.27338421990399 -0.2817180873749406 -0.3327020346219754 -0.2099118040659159
Ni 2.1648189910461317 5.298090784979431 7.194972134434303 0.8821349531142292 -0.2691572199907945 -0.15081345524186285
Ni 0.530592516591736 0.06177554450685082 8.791523760093561 -0.2829056799251386 -0.4390991685319922 1.8377839162572092
Ni 1.2860716634123512 1.2062226373250848 11.422214576316431 0.8001237042477446 0.04024213534949844 -0.7912464563627728
Ni 4.07681598057453 6.851637643886011 1.758355167710859 -0.12347697221043898 0.2075754426232554 -1.247031313080562
Ni 5.581923877709798 7.902986176558528 7.74958011157477 -0.5357469363647289 0.1611364344344257 1.7193966998648518
Ni 5.281007482100892 2.9548492086142963 4.986016743833349 -0.08259848882852226 -0.16234716691307524 -0.8024253557977277
Ni 0.7611382175883943 7.415404774018842 7.027183089075843 -0.4740170634550998 -0.3588930911950465 0.25889543305347024
Ni 5.108596696043286 4.405796506973815 7.23969611255947 0.5003395033997124 1.1085213577964006 -0.14690126467165024
Ni 8.063473107369171 7.200521487598669 9.112609152832366 0.5012692143028336 -0.2652550567229109 -0.3490984737021278
Ni 4.579721577309934 0.3709842333654503 10.538159999651436 0.48431330317478527 0.34231153268728143 -0.7212854537926029
Ni 8.087801399101188 7.152046255545236 4.4321650020750845 0.631655512038596 0.4690995715488243 0.1790472532765755
Ni 7.184499090472141 6.023115589417955 6.96735616547589 0.9163064567896154 -0.5168709253958323 0.7691730215025011
Ni 2.347131564122509 5.2924779588213555 2.6524693071218475 0.29388069087940355 -0.4402253117166354 0.3558735876424322
Ni 2.3422350760363035 5.29756486588869 11.57151756563536 -0.33906062985015156 -0.2151475985435585 -0.5331835465129269
Ni 1.24779744820518 3.2763943271789744 3.773416884154508 -0.8375715646815574 0.7099070367523322 0.07215466778737896
Ni 3.744852223470871 2.502613196000587 2.5632063293103244 0.9135571761792526 0.9481233441898962 0.09779550828393481
Ni 0.9896346476452705 3.2847999650602935 8.287187300728522 0.3093471619461189 0.7290252456390218 -0.6753272418949336
Ni 3.678985391140879 2.649072595201306 6.920760640793329 -0.2782913210815788 -0.02093083661539621 1.0139065612332927
Ni 4.223801298865989 6.930978886023597 5.970933534531855 -0.6092606892831636 0.1992854347003213 0.1850070704044362
Ni 0.4960441661153456 7.2225738191276525 11.221911036551461 0.18648802582533688 -0.17825072551720914 0.8885894504903213
P 0.1287903312659413 5.526040440533348 8.079478276111693 0.2362501848501286 0.06377749946727726 0.19252574737898456
P 8.493167139645276 1.7913892339087378 7.983619547496641 -0.7643745716725932 -0.7740246931678476 0.07681427804657738
P 1.9927527726686656 3.348390837187252 10.188010323092788 -0.007291134344774541 -0.4942357044948198 1.2513289120146516
P 3.995806305459422 6.128743718522039 3.929673793312902 0.3067115240954847 0.5362267042146248 -1.029335494193853
P 6.870461920306312 4.085013064333659 10.524066274776642 0.255573824879405 0.039916119468647385 0.38035460350293204
P 6.19401209119705 7.7700465250180555 10.148222730364159 -0.691337501280261 0.5383740895749308 0.807510740740435
P 2.3337659651612745 8.53329113924057 5.857423873123086 1.385224508455253 0.28164018294915366 -0.2009448246806152
P 7.096344169779386 3.8649793978524407 1.7590452098281928 -0.6176918507696523 0.3025936452723692 -0.8485805141975514
Ni 5.601265005650308 2.820105110538351 0.5473421328747701 -0.7215304799238735 -0.046773508710112995 0.115207276002479
Ni 1.5033397208819161 1.2365083228953173 7.036724893544572 -0.06698443644034917 0.43805761464135523 -1.024792612018177
Ni 6.828324920053356 0.5340064568962846 9.07692282225446 -0.7901699354691424 1.1026304462332623 0.1074703123695375
Ni 2.687981540345578 1.3556834023712365 9.279058011266493 0.002093649304235104 1.2076106451910944 0.23258533440403167
Ni 6.462738611424421 2.0313171501327973 2.844638329364345 -0.33358212323408354 0.33692095779932946 -1.195749117866818
Ni 3.931689514241723 7.1194846097719715 10.658464898415394 0.3240680130960612 -0.9991779967738663 -0.5717318390997702
Ni 8.336824088566848 7.158982947000694 0.38324721575023557 -0.6911855490834291 -0.0948096861827335 0.05143260474867917
Ni 7.592566967034172 3.8526656370726875 8.398082781553487 0.016865922517403212 0.5061676800457153 -0.5322885455024832
Ni 2.8597303937544933 8.668153115733407 12.314418178616746 0.5565425329538416 -1.2405115096841732 0.5411333974876229
Ni 0.18846038589572386 4.623663024098362 10.34704009531926 -0.5431470854835421 0.9876509699708732 0.14910547141182062
Ni 8.685408702452015 2.2563651831171105 5.747789691358843 0.23354975519983004 0.5797989323786208 0.16831598290200042
Ni 3.608475962699523 2.6530169883818595 11.518630960519078 -0.39029603098636007 0.35801840189957695 -0.4037560131460079
Ni 1.2799419857340646 3.4242591998118437 12.69683117787822 -0.7656012449908427 -0.12296455135039466 -0.42030543286425676
Ni 2.9605708456187325 8.573623692958053 7.870627644365136 1.3199562833750624 -1.406096723918572 0.7993019796773977
Ni 5.5509762594908745 7.82077051456293 3.365006253426442 1.0138091164234797 0.4677078334076203 1.1048904459120328
Ni 3.1147195446288993 8.336941966983739 3.6888654159903784 0.08645540068076724 0.010853911995368403 -0.0011659952836431532
Ni 3.6641871160359036 4.600277759701466 9.426807725753632 -0.5305329962639572 -0.8125645011142585 0.3199056541882555
Ni 7.230553281194061 6.26774957474709 11.397091965405984 0.13029913733859494 -1.1047027553812587 0.23429357534439005
Ni 0.6630660950069672 0.019416388775910003 0.39759664611397605 -1.2374727228578493 0.09855912592283672 -0.46372905126553043
Ni 4.9078406845088685 0.477893610185425 1.5562335800546225 -0.4978918131901683 -0.8165797929212388 -0.19865371465359333
Ni 6.177944356217873 5.501730283942391 0.29116422350387994 -0.8761825921855361 0.8021127096533154 0.688022577974415
Ni 7.905915001839722 -0.22843749084843112 11.042960718627612 0.23499600072805335 0.8628984734821203 1.2115050951494941
Ni 0.2520204282828806 4.757781459807736 5.682335433487967 -0.7014905305538629 0.3735427227874212 0.3144410315292585
Ni 7.79256130264407 8.931647647764962 2.386074966034795 0.21314522340154904 -0.7290049339240476 -0.07163196251468953
P 8.804039727696134 1.4388239565608965 3.4727289913229584 -0.20078233096082196 0.9919578248763432 0.7202945506342434
P 1.9101200024286862 3.329920196017622 1.5574676764037567 0.5003593008940543 -0.5267609308160348 -0.09668144928414962
P 4.739573778183477 1.2322556323167428 8.23138184465863 -0.4718244266791552 -1.7530231296700454 0.3597924630808642
P 8.576198882988578 1.5453316400063914 12.45739019019162 -0.6506521077457569 0.6652546881502801 -0.6207118685428987
P 6.311899575657708 7.600138388426731 1.2720522926159028 0.2009725925947571 -0.044890432754787206 -0.2053879480536334
P 1.8410613852721314 3.219767349219063 5.9764139741601925 -1.3494859174030631 -0.0799476814692365 0.6865943301683207
P 6.913560083035449 4.08658175403535 5.948345309584548 0.11788199462116473 -0.5015258103983298 0.866389003133882
P 2.049923804860377 8.436830323942326 10.272853767027984 0.8691254282284387 1.038826464403424 0.09074734318790179
