# total energy = -340872.2842379389 ev
CRYSTAL
PRIMVEC
9.13584718091280 0.00000000000000 0.00000000000000

0.00000000000000 9.13584718091280 0.00000000000000

0.00000000000000 0.00000000000000 13.37123581485390

PRIMCOORD
 96 1
Ni 3.024011066071929 8.574202618579855 10.962367863025102 -0.38292339267137276 0.5667680673365917 -1.2120650814180223
Ni 3.11256483191666 2.6209831716903844 0.796948262798928 2.010313680130241 2.9733206263001892 -0.05495527318995697
Ni 8.308961570011808 6.9966062713602275 4.685240611893538 -0.4347010394642965 -1.8374625283620485 -0.9517066906657803
Ni 2.7060287722525014 6.1244709005941536 11.636131104414703 0.24154974268617108 1.6687577946620615 2.0384374349496506
Ni 4.097518778398879 0.9147540974415798 6.384871777373843 0.032685663158479185 -0.566920790864372 0.4317915791269854
Ni 3.6726288019306286 3.8037464793683236 11.558109143095486 -1.813222424867761 2.640513947779549 1.748867455630459
Ni 0.7851904275939173 8.987234265525103 7.681454036024297 -2.4257586995784033 0.9128331535290344 0.040735272935833074
Ni 7.231059515234501 7.947748447761836 11.273743112228939 0.7718194579864127 0.467525285083169 -0.7965123327474024
Ni 5.525634395529629 2.707609273799096 0.1434373672387496 -0.34695083123150566 -3.168258839775408 0.958882125368297
Ni 4.33768192670449 6.850350495294171 8.617306458735847 -1.6222280265316384 1.4940562199486913 0.9239804283951055
Ni 2.5702609486459247 5.1510920723751425 0.385881736562769 -0.6444292667644965 -0.5161098788600919 -0.09813669367343744
Ni 7.589595834287062 1.118026695197204 6.712480513272152 0.35217428441397414 0.21517510934738426 2.1210667770161082
Ni 4.403779780401656 0.10561587387027732 3.627081122678024 0.799382712316662 -0.13764786439418228 1.124349840188225
Ni 8.455116851759875 4.73979623637702 5.8169153490587036 1.8066493996359336 0.9962083726225811 0.4704730548575833
Ni 5.77036546738031 6.302839179182055 6.986564148238745 1.9003231724420109 -0.7337604463311621 -0.6599448459015925
Ni 2.4423499535368687 8.058018122139831 6.748195280301638 2.740930181515783 -1.3035716713694518 -1.6791735906787468
Ni 0.8582808586538768 6.46910246037552 7.788544435614924 -1.0951148545825076 -0.6161589590648937 -1.6096429907777763
Ni 5.123912927281975 4.546947640151246 1.2266263367271213 -0.6065255497401877 1.659113072483446 1.6678468528120178
Ni 5.861093564832495 8.671243586371327 7.564883367908232 0.02537138888525308 0.3147462214745031 -0.566336893336444
Ni 3.699533871611092 2.2824178143768705 4.353005483028783 -1.015487018346535 -1.098362672095844 -1.5414899879506225
Ni 1.3684585356321333 8.206621810908056 0.37148729588754376 0.14130320175858246 0.17266886055405747 0.7588713824661769
Ni 8.974115189103662 -0.08472036440570814 5.208096103878782 2.549649619397809 2.7447428703936536 -2.075676521806767
Ni 5.224690456533313 4.876020852338105 10.228487093443539 0.6547766714370917 1.3148004502057355 -1.1513672493173333
Ni 5.562735070562689 2.7403338780759787 11.241264262238781 2.1368289249463714 -1.5846402980858516 -1.4374492700879242
P 5.680368237695337 8.04889141089678 9.640754296932371 1.2555601764871795 1.6100317415757628 1.5870057129942348
P 3.157211716646176 1.9628093397753985 10.882314089313036 -0.5094910879919935 -3.1458514186144853 0.09411163167444436
P 2.227392607352955 7.823546606571378 8.917197034562669 0.4434026810033525 0.4857451505253054 0.5233606468852341
P 9.104410640303245 1.6089414385858993 8.489771860526904 -1.607957118434921 1.7790205821750718 0.9445479681338119
P 1.224916106151847 4.769725271444321 11.100492735180934 -1.620215881197616 -0.2803618304573623 -0.42136652713891953
P 0.5009029650123459 8.423442869898357 11.759827733261078 -0.07028239046533057 -3.08370554121336 0.14448134237624793
P 5.626265751227526 4.607152872475272 12.482516176572508 -0.33181063315595755 1.2038990006674621 -1.2348748802236862
P 8.13794764833147 2.7556638294932347 4.877986886631902 0.09720389744652291 -0.6574246505829 -0.4316221434286566
Ni 7.999795368634367 8.085279489856811 8.74323680219576 -1.5694178247091424 -1.1980230015026594 -0.6815135732113037
Ni 1.4611325685145176 3.0092109937859015 12.220841762708453 0.2978491886088483 0.026578521819476807 0.23832172266717663
Ni 0.4116009732909323 7.0468168869676395 9.984876990030818 0.413215873007327 0.3322783168209955 2.183594720347001
Ni 8.35065757613121 0.9104282738443982 1.4897697948032718 1.9028161140671938 -1.5010434498998018 0.5735794338314701
Ni 0.6877949889353484 1.7435764171532986 3.755311872435235 -0.776848792880204 1.2819708052702246 -0.26798402561829976
Ni 9.016039591400316 4.983878663084302 3.688294952520801 -0.18577942979408651 -1.2986809189360538 -1.6471142482503567
Ni 0.34518884645386555 2.6139485694309763 6.640075270743952 -0.931869601335195 0.7475456730407126 -0.18310059741034274
Ni 2.7194950108633686 7.056446069800648 4.317652495544066 -0.7332133155784405 -0.8404560853182043 -0.23461470612923468
Ni 2.6250851670338577 0.925762793185199 8.737755293941676 -0.11222582477665187 -0.5504567317710778 -0.3832388670292625
Ni 5.055129134540307 0.5277742320585759 12.150495740114371 0.49506462815401836 -0.6277356081588996 -0.267390615008675
Ni 6.603819661566731 1.276707223305853 3.060569071787835 0.8386658261870008 0.40576661581813345 -0.2906966367244671
Ni 6.610059445129297 8.792595043269662 5.058793522808163 -1.1921863402162243 -1.3786270577433934 -0.7044809806407545
Ni 3.808332674607574 2.8830906247065133 9.044691435044415 -0.19749620401038243 4.027085200070683 -1.0968061262420015
Ni 6.612379950290192 3.2113050672668977 9.093028288413638 0.5688524606694462 0.8743673933536683 0.5998591934636056
Ni 2.331934105605432 0.9283208303704382 1.9975822009698907 -0.6232140661394622 -0.7154637049045033 1.8633723062492749
Ni 1.4215834864612997 3.0441190655173282 9.504207185569006 0.06862814269135922 0.0636977952692774 0.5772633104409607
Ni 8.773738654875611 4.329898184983691 8.282009907511185 0.22709191538962828 -0.6049003554319389 0.27231350623158906
Ni 3.9700371681030595 4.544417010507278 4.186774177300133 1.693818337175115 1.1874046025568645 -2.43061834166355
Ni 4.196834572115796 3.435297766222961 6.22667727633039 0.2674368948655781 -0.2682879300119637 2.2343033024454617
Ni 7.0115799247409685 8.77108925921947 0.23434270012448286 -2.1603113243390277 1.6582962330091056 -1.5845708783004968
Ni 6.096880642381929 1.9608908118864687 5.234090329604359 -1.4316432049291086 0.7240812713701853 0.10156525973901218
Ni 2.267800459032646 0.1113659760288117 4.535122199677769 -0.5367992888886433 1.384190410763784 0.43676280708933174
Ni 7.532085676854628 3.5869710996134714 12.828845176743222 1.4747176675210796 0.8282677707821284 0.2329442604053472
Ni 0.24902491998304752 1.0978638806692642 12.539357589997943 -0.9924743595014457 1.3982173211704951 2.0733561012037067
P 8.551618804573028 5.283379138240375 0.7787542233189134 -0.4545401856774108 -0.8863729024549767 1.156995137027072
P 8.115647045584437 7.903430453527566 6.5991731697366856 -1.3117002140138572 -0.40580878190997854 1.7625688643769517
P 6.025091155947606 5.480475903363065 4.914477287079341 0.7597406724450076 -0.8534265294359432 0.15948372932235114
P 4.382036464327122 7.934519741175314 5.590473329497773 0.5815146295181469 0.3816589241366524 0.5461563046235111
P 1.3287084649429324 6.006015507223393 5.706187968741491 -0.23361326144791378 -0.7405137058945956 -0.49025409413925247
P 3.461042583322976 5.556860720883729 2.221483541455052 -0.6110180382939024 1.1007046899654591 1.4617341107772182
P 0.9592365369234734 2.310419185708151 1.0771684462559692 -0.15493673338161704 0.3487277206262704 -0.6727440545487898
P 7.355645062002746 1.4209805205533506 11.979543942194246 -2.6516069723689175 -0.8641732264294859 0.4591360325782093
Ni 0.33812409589905995 6.477352130297916 12.59924763559736 -0.3128631455191774 -1.6600846923680959 -1.0077315427708322
Ni 8.37082952650624 7.401269482370908 1.2209986549195946 0.8283821848728056 0.16334166961586064 2.282438724500108
Ni 0.7300921337932805 0.6048871765923242 10.223753811066139 0.08446022462760938 0.4931440140925377 -0.9249044828712717
Ni 4.826577647886264 0.6504065347189487 1.4060251388667906 -0.14348144035682386 0.32301617479277916 -1.1191880934816274
Ni 8.257152181163622 3.0895790406378665 1.8471294167506223 -0.11915469068600122 2.5381264492495577 0.6904808097069205
Ni 7.164861167219344 0.87326090712758 9.66252319337876 0.6882652901128405 0.5411691358215648 0.7916025541506109
Ni 6.9575048458144275 5.735183320236179 2.345421356664606 0.46075274224602586 0.21636758699358866 0.4533546500097418
Ni 4.92192848396606 6.862784383183851 3.640212075700683 1.1553329188333006 -0.3090010914606097 -0.5806921336168516
Ni 2.1889124194092835 4.200187427997877 7.449115740751391 -1.2520544773267663 -0.07315791224091273 -0.4183557653370537
Ni 8.409784778498597 2.7599485417785106 10.746301425004445 0.9165609960025828 0.2377103143354229 -0.9377772250688818
Ni 8.207014652332932 5.2599365546070755 10.800950235128248 -0.935996221909059 -0.7969141961715114 0.5076751178291773
Ni 1.2271817962302018 6.476749164389967 2.5831086904087894 -0.11811467945726112 0.018820989361245006 -1.1277316121762644
Ni 1.8734242118454645 3.913796893416155 4.861968092344051 -1.0737340749138864 -0.08959677452322633 1.6250228156679563
Ni 3.5904701290489953 5.793844594401971 6.111296095505462 -0.21235666606198267 0.5746343574585459 1.0014873616333333
Ni 2.6700335347173483 0.8764630215326742 12.952247631313295 0.8700440833879661 -0.8781302028302103 -1.5350691720259433
Ni 6.775875069815346 6.43849737262355 12.990476583461987 0.7254848365859312 -1.7381955777389095 0.12748686470078044
Ni 2.394615152490885 5.708323929791167 9.519089480478845 0.7713515172110587 -1.6028557926526137 -1.952980907847043
Ni 4.860910161251012 1.0939628739617742 9.356027400105765 1.6375638855577603 -3.1541121159613805 0.9720284329422679
Ni 5.186191996895462 7.234092616468428 1.1927606651486795 0.27567830893876394 -0.24752910019805754 -0.6684225443553005
Ni 3.142347693430518 7.946222761297784 1.9486305050915005 -0.33431025964935973 -1.2303476817772938 0.3538452443584938
Ni 6.611411550498637 3.712123068901305 3.6127076944511063 -0.06029982533132195 1.105533221702354 0.45803508620454664
Ni 1.8764664489264813 3.7595563869933146 2.558518644380967 -0.001744236384616351 0.5758939408972598 -0.3664027693085303
Ni 6.675819272484127 3.8908567813728125 6.698146369187722 -1.2831751099909707 0.20992465958172235 0.28761594091661435
Ni 4.883512246952019 7.015544882378089 11.502926799501621 1.2508558290329748 -0.024056012507939217 -0.45416737571902427
P 2.1639806927002905 1.8458339536332404 6.240730036324444 1.9021972495362724 -0.44495434176118853 -0.8540374235470647
P 4.116219857392396 4.861768930877485 8.139819583400241 0.06095648507871437 -0.7208874470232359 -0.40718766453537614
P 7.43395754325943 5.8212704073665735 8.877911978490356 -0.4498587210413414 0.11301952432254085 -0.6132276443507116
P 4.972285273126914 2.6750217072285647 2.625495366568205 -0.8340625230870347 -0.5176551118600247 -1.2232462948458223
P 0.7464215468821974 8.652085715023302 2.9659271774422344 -0.054004736351229564 -0.28214154806560443 -0.0028868346294918024
P 3.5269120408428885 7.776131560173549 12.9973494812279 -0.19943353024241137 0.6482638100192384 1.101058473760452
P 5.6038372466212305 2.2083078227816517 7.596372805658528 -0.5055742694360906 -1.6208221473230473 -1.4540696522534249
P 6.477891145276235 8.330165871108026 2.6809061063393247 0.10098830418961963 -0.8950827715241487 -0.658724086120614
