# total energy = -340890.55483768095 ev
CRYSTAL
PRIMVEC
9.09674135870843 0.00000000000000 0.00000000000000

0.00000000000000 9.09674135870843 0.00000000000000

0.00000000000000 0.00000000000000 13.31400049117740

PRIMCOORD
 96 1
Ni 5.862122108209392 2.4235629468223436 11.580384708849083 1.972791771925383 -0.9322565523609686 -1.6233706247765138
Ni 4.645915070095629 0.525489642469989 5.987518869385713 -0.19370999749507284 -1.0008913799205472 0.31456752980479374
Ni 2.658331649483136 1.5202656201982714 4.828029104374081 0.16185171533389545 0.05536150748944014 0.0885055983415766
Ni 3.349547546556924 4.164087967110733 4.6565182318990015 1.2289438594512316 -0.6065384052559942 -0.9306077039036359
Ni 5.4120426327929305 4.7467615455178835 2.4796125191039797 -0.08104528540878946 -0.2973861329295007 0.7355123960252623
Ni 7.361847286273129 6.241101452658838 2.73999491659126 0.3976761255005151 -0.6929511256242841 -0.23976488287160638
Ni 5.266849542930527 4.743031881534199 11.688161081887852 -0.6009264583858553 -0.27496251381866194 -0.47469763446189217
Ni 5.634003123529266 7.831721271027388 12.497040600253744 -0.9142511169224835 0.41266128605543767 -0.868274135971737
Ni 1.9235150707659356 6.243102735772035 0.634937996582419 -0.060647438478727805 1.264186998924242 -0.911242926223779
Ni 2.4586763687175175 1.2276234486004063 0.26557936586259456 0.37627966210261005 0.5297824912511779 0.8468398773573609
Ni 0.49011696344424144 9.101653663989053 4.373475851525482 0.26758730440051337 -0.2838014522665306 0.9633293625063734
Ni 8.971824970391143 2.2798344323291424 1.2652011777472396 -1.070696830749459 -0.2703684666900763 -0.03586534643804146
Ni 6.842432447725834 0.8536618667202301 4.941504585914747 0.7949087357057084 -0.9527287041723915 -0.4096998894342686
Ni 0.525404133100607 7.156306413806428 2.559829404325748 1.1085097878321748 0.3783460577133355 0.0863219604266965
Ni 7.7494503415921665 3.8204039793849343 4.008246231737839 -0.7079897651249614 0.16386951709487263 -0.5777911579199727
Ni 7.803794274856874 3.9435920517436003 12.71926398681722 -0.19328293725998325 -0.4494337176887808 -1.2408668361410629
Ni 7.893806531243597 8.768139833174862 7.497340520755527 -0.1322770870005722 0.4542010571704372 -1.5155066765129837
Ni 6.69173582930214 0.5835968976616485 0.038399164897386 0.5892590493502562 0.994970900671054 1.4342904127439686
Ni 2.013327198841339 6.405652408270704 9.311412695453885 -0.7710285866540011 0.08821403524308678 -0.8472862208661601
Ni 0.1987328711852632 4.673023359538018 1.1637252078184703 -0.14941091846738142 0.46817217463854854 1.3755080524984373
Ni 6.372349237918831 2.088648217828915 6.859879088102195 0.49016384841829125 -0.49998726226661633 1.7363577531992225
Ni 3.609941769808055 4.335979993051462 0.4194653018294097 -0.3436850159960404 0.43216310353379117 0.20234016236624508
Ni 6.08976806233549 5.695005871516064 4.7487846608104975 -0.10405897269514336 0.01655841857931342 0.3949983215580359
Ni 5.210595293966859 2.871395527107171 9.174797832753956 0.11838618795109287 0.8467655724759998 1.0649601853759982
P 0.3221474524053774 5.764195686784119 12.49159438116342 0.30806238169642425 -0.9177267341759098 0.048928864490218965
P 4.038052614686474 6.327365851579028 12.615348270838636 0.005625573716893538 -1.0359221462724353 0.4548690297717392
P 2.1340136673085093 8.472996057685501 1.575232680250497 -0.03956027879112541 -0.47981747218696075 -0.9801289505622153
P 6.480627751084184 7.902675854131626 5.797688069357605 0.4290379276412482 -0.35213366098402576 0.6071757817296769
P 4.567100902401384 0.9959840249893391 12.744826739891733 -0.1395761917651467 -0.7044714675590577 0.27397675286662493
P 4.08824843386201 6.323636187595345 8.168126046266005 -0.41352697648984266 0.050706010995299776 -0.700221176923136
P 4.6549390375878605 1.0436418533076859 3.7734939032116097 -0.38314682153608853 -0.8345188938981627 -0.7319820142745007
P 0.0893472845886562 5.547738724609075 3.881723293973274 0.6194710541572621 -0.3917368771979447 0.6417617472346625
Ni 1.4860982594111536 1.2175533558444587 2.6980689450439366 0.6077936178193339 0.14752964228426851 -0.9985007682011836
Ni 2.0804793440305036 6.38274681336603 5.034223122874997 -0.7296204560208596 -0.05971412803118102 -0.8984917972056977
Ni 5.869636016625303 5.73017387385978 9.328480911387024 1.1060878086542434 0.16662368280124207 0.6898503752117732
Ni 8.772233366815492 2.4106455740008026 10.218894523132823 -0.30500174049322953 0.3561432963640511 -0.12818466209875343
Ni 3.0077011005986973 4.91105779236989 6.757627166129991 -0.7209751216410357 1.4447584021548279 1.9572247707250618
Ni 0.39898853688484043 0.32301437186304843 9.182506411436332 -0.853846133471865 -1.3191936941774247 0.263129782849792
Ni 1.389272543698139 1.0367920070157 11.356336515956027 -0.14225605259015497 0.07153014682950262 0.5217943308393789
Ni 4.100374390179696 6.713686266357335 1.5427727778285927 -0.19520715086588963 0.45270878889562677 0.9493993826888424
Ni 5.655062079924948 8.03375080130457 8.01876937785401 -0.6434494193497305 -0.08485386052160225 0.29502868844091773
Ni 5.324759398833294 2.79963133401623 4.816939266904545 -0.7002322326667296 1.011214102002794 -0.11415723747140985
Ni 0.9470071691645675 7.553952271657142 7.196869693488494 -0.18287125500835602 -0.7812044987457385 0.709872326859655
Ni 5.167322095014698 4.442430061190667 7.377194398728919 0.2132123291940586 0.2415327734053066 -0.6359135159840016
Ni 7.911299565001219 7.222912754510176 9.360248551786592 0.5784529598736876 0.6427577925993446 0.37277242028029994
Ni 4.456075173326098 0.5285497862848949 10.471621103037984 -0.4187789689174013 -0.7700073444783384 0.12818749031223084
Ni 8.682885172552693 7.218791930645276 5.324135362371634 -1.0213627604010216 -0.7320820301874746 -0.6837110950832547
Ni 7.27744771934478 6.210872980908147 7.112991369843718 -0.4584215230096879 -0.37816016695477456 -0.22853173315994837
Ni 2.435343226965932 4.95751485082032 2.682012286757104 -0.12249712479567293 1.3031052732559945 -1.271400485953546
Ni 2.503950850782876 5.10249871562998 11.684060270854085 -0.25298292422377716 1.942464067476119 -0.683451670774281
Ni 1.036764716791429 3.4836153216582404 3.7166701982348225 -0.48582228362014396 -0.6440374306427167 0.3857202386902196
Ni 4.002147776287445 2.922382762786562 2.526997445179618 -1.0108855150187817 -1.3846892047770734 0.25391443489911103
Ni 1.4554058538478587 3.5082674909162512 8.173332111382743 -1.5266056146396225 0.8029766003155074 -0.16203683476150804
Ni 3.5696432053014173 2.48305563573282 7.221114328730727 0.1433647122733015 0.0968187461929623 -0.7407006250944211
Ni 4.364616535053019 6.999105625264846 5.895452568785537 -0.2988439484219499 0.3327884236881946 0.24419052274312786
Ni 0.7422231455843121 7.468315547895181 11.174200649498161 -0.9888575886844646 -0.8367644953992299 0.9383968609307517
P 0.06831288939481898 5.851951951297785 8.325537879208616 0.3107301583365745 -1.3394951247389384 -0.5695605424800642
P 8.406689909448733 1.815618620740375 7.8578434736994565 0.06506485082013311 -0.2735633194782902 0.5777032261918567
P 1.9707453522373721 3.3790573757351487 10.318656666977382 -0.916185357830719 -0.13884856957050282 0.2522889834805461
P 4.069563726977894 6.05383593371219 3.7534965365400645 -0.004801535153701408 0.8979207551935762 0.44660113333599216
P 7.037421100141135 4.016120371114125 10.476374150431825 -0.8301336203462736 0.35464485744165375 -0.4858557079612406
P 6.202194689590013 8.030439587426374 10.3651091770571 -0.3580261152090608 -0.3465163147972484 -0.03129341079664288
P 2.31251902426421 8.460224232726738 5.750343168944231 0.4207193804732238 0.31352237636973096 -0.31710726550751195
P 7.093402446862093 3.9011193660367174 1.4271677491206565 0.1789112419193435 0.12096706130439165 0.819927112126917
Ni 5.3799129420847045 2.894228348080458 0.38396344907544677 0.3867221975921727 -0.052493441913025726 1.4602765523950851
Ni 1.2469358306427523 0.85458609564887 6.978466938322937 0.22707211789528634 0.8575076414838522 -0.12967127394660893
Ni 6.796402936122315 1.0232651525187764 9.484853896459057 -0.10912533147445723 -0.4705992960228025 -0.8546046089044442
Ni 2.349570052082616 1.6215760294331307 9.155026065269718 1.6739043718600075 -1.1478654068116618 0.4449445715691756
Ni 6.380472628010124 2.0082785073512293 2.707801548693068 0.36151947307429994 -0.05875304966949236 -1.2777462256659153
Ni 4.057701576161493 7.033846080761652 10.33548563861108 0.6141355008769617 1.0720021798244441 0.9111537089440824
Ni 8.214584924064718 7.056042129835285 0.5151866731335967 1.0438483430980474 0.1839302924004897 -0.10089574447581334
Ni 7.480723503196999 3.947494553814334 8.155357860003813 1.1467786015053862 -0.24221488707399574 0.6353103351823639
Ni 2.986833175772912 8.175141453251902 12.440881867075023 -0.30647035461895605 0.8633551014035648 -0.15154107743650677
Ni 9.131218073615818 4.771531972414402 10.459438746923473 0.6352653408770415 1.044421184882382 -0.35826805601653783
Ni 9.002517375954438 2.338735833047084 5.686569553519798 -0.808142460787163 0.07600849431583039 0.05382527335057182
Ni 3.4431439190645534 2.589787702856157 11.729115521451133 0.4986186640538638 0.6535785373639326 -0.19509839320216724
Ni 1.2667212432391266 3.4155353088438662 12.474766319203866 -1.6697193872443825 -1.361176980587746 1.104623565403891
Ni 3.1449436384568563 8.529086565303544 7.844635914826502 0.4256078189137767 -0.19630192659196513 0.8556980990789392
Ni 5.882298680686983 8.0330685456978 3.671642237862045 -1.2508563432536068 0.30578001342015076 -0.633252938432703
Ni 2.983867638068812 8.32610187717688 3.611875737034717 0.7932434321881435 -0.03561646365202898 -0.0010130146455466426
Ni 3.611169829900244 4.667583508166693 9.621029386548226 0.5714431042147577 -1.0028369336826923 -0.7795985877111993
Ni 7.3644034706131665 6.208471441172311 11.73397500071963 0.0597210700097165 0.11772412888706178 -1.7168225113797722
Ni 0.3689574644230427 -0.05013760003042563 0.07671645912195943 0.18800163425638589 -0.08933040823571711 0.3451096642577089
Ni 4.425755734161171 0.02700640593844394 1.5687357875257475 0.6524205125000893 0.7404453145505054 -0.06491649816772692
Ni 6.035560580192137 5.860320953407515 0.42755685332571997 0.30125332919439085 -1.4725895654344832 0.23887091030242733
Ni 7.988021482168032 8.960999848097035 11.267665119255147 -0.03615151021989258 0.3795722168109527 0.6319465609164535
Ni 0.2508499221494686 4.77820898061934 6.358633171200296 -0.3352839364165387 0.8454507103193181 -0.650060496908345
Ni 8.016466992599693 8.951420979377964 2.2856008567175756 0.14071390491401572 0.4998363385110488 0.19914968045340542
P 8.36675521459904 1.6105598755691266 3.5689773238292086 1.1061022068319468 1.03563958203501 -0.290492491133461
P 2.013436359738422 3.0805114189533542 1.482407711415591 -0.42218953726084707 0.4896516846685632 0.03417433188886372
P 4.803688953346899 1.015924082189915 8.328399714060488 -0.35722675923621705 -0.544850441327894 -1.0540695066054233
P 8.380891550771345 1.7504222749572886 12.45052077428749 0.5848881739760701 -0.5249025374510573 -0.3930908201226778
P 6.418133137503912 7.782244094424318 1.387119345003168 -1.3482253055230844 0.605538246126254 0.6722717428980616
P 1.8886381641477754 3.3041911938187534 5.904280046663018 -0.9302670327347656 -1.1000470017768023 0.4008321546309936
P 6.752301933700603 3.999955461604352 5.9681473585241145 1.2646575108027576 1.1007370858652912 0.3709104273708967
P 2.201911745294411 8.513813136453285 10.140448773466234 1.8713339842985126 0.6391973289415959 -0.7479966445352021
