# total energy = -340896.74554560776 ev
CRYSTAL
PRIMVEC
9.01111354816083 0.00000000000000 0.00000000000000

0.00000000000000 9.01111354816083 0.00000000000000

0.00000000000000 0.00000000000000 13.18867553505731

PRIMCOORD
 96 1
Ni 6.349987626843162 2.067645087609904 11.406027990400236 0.08392106429468772 -0.46420856200511024 -0.3096695782825441
Ni 4.641786852495865 0.29153295618490854 5.974945075814315 -1.4077080342697499 -0.4162952832635992 -0.4574085083641413
Ni 2.8145132220866937 1.725430023688171 4.809500799047854 -0.1856318484726287 -1.075984818621276 -0.27579889367702826
Ni 3.4715405532535932 4.3198918499045025 4.9219612998972115 0.5598610558041133 -0.09034702242568957 -0.676821309941957
Ni 5.179885505419643 4.47075591500121 2.568718876678148 0.36513135879527436 0.5786285662196035 0.5519130046016302
Ni 7.217911062389666 6.12288052896762 2.632103951358398 0.7271203153068251 -0.8257159508945522 -0.4505747732717595
Ni 4.924699777342134 4.403370806961957 11.541344279967268 1.0275578334681401 0.5859700941863392 -0.4627090946414482
Ni 5.80692385028611 7.9732766770591565 12.272260941021873 -0.7849354265430805 -0.78233141326133 -0.18493842195002988
Ni 1.9988091902694582 6.383977547613965 0.4583962536062609 -1.571948047330164 0.4985672419906382 -0.9453272695019977
Ni 2.7227620626783384 1.5681320234296519 0.44636371352003257 0.2992553249277556 0.05562761666663323 0.14955721423725857
Ni 0.606764240215823 0.1709300130215282 4.720504337089031 0.3337628717863219 -0.24900491341263567 0.6719593538639653
Ni 8.567766879342342 2.1516376781466624 1.2993944815008143 -0.034791910868204594 0.9891072428014256 0.827495154282162
Ni 6.71181988522885 0.6824792217334776 4.768998546426293 0.30545631153214486 -0.6526696523964179 -0.4507331532264947
Ni 0.8229714949937075 7.527839306024606 2.725400516761502 0.2528679959124677 -0.8827877562068798 -0.48086725360771376
Ni 7.454912363077069 3.702450341098721 3.8645323416057074 0.7154251383570841 0.20743506039064918 -0.3782319007329744
Ni 7.559765681764519 3.76631210369222 12.600843091069232 0.5816866363196369 0.4717706906230843 -0.33887036821621636
Ni 7.8022006839961415 8.86434966362904 6.773967734001935 0.5242970426565744 -0.07526107462684457 0.46035653524887166
Ni 6.794262564214024 0.7074868643960259 0.40612007986085835 0.19894810596556062 0.44321627602415925 -0.24029761544662484
Ni 1.916916189218277 6.272987660515879 9.19381310059352 -0.42157195828150623 1.1479623374008423 0.11126063264990516
Ni 0.15713580021242293 4.65560990086872 1.3448231099668602 -1.251560054188851 0.5502716123434652 0.3611952569656618
Ni 6.311789515987533 1.8043763905686065 6.934236698438114 -0.45611627191527904 1.0366281712005245 1.0423092807457017
Ni 3.277711498168766 4.228879601817252 0.48596575588576013 0.28429716095602653 -0.0943402027454827 0.11238369051075484
Ni 6.030147158169017 5.492111583040943 4.8290999712844656 -0.8014647916566714 0.9915970991028149 -0.9541209565342278
Ni 5.35546705531866 3.0877842553039168 9.085758133218407 0.38773726912024836 -1.0397687737120351 0.23128178510125977
P 0.18930006935327756 5.441703413159747 12.387173365901383 0.7028879251220218 -0.05611175539190337 0.716610931135069
P 4.017415797276311 6.097901721868823 12.51695052389423 0.7687166506913728 0.7642930677023805 0.5150631827631322
P 2.377879709109692 8.319934220021189 1.377095512471779 0.34332788976693773 0.7074372350556011 -0.056267050022845023
P 6.278772795493307 7.634810236424976 5.621567945387069 -0.7613062171599148 0.010660050817007447 0.4820736152109892
P 4.80980807802407 1.0993648790982804 12.628341405550719 -0.7010112769245992 -0.702106566871307 -0.10921969096047641
P 3.919365869411225 6.170306020223383 8.315222308682097 0.6006464652515914 -0.02942010503332998 -1.2240821604835563
P 4.5915679160017815 0.9476447582027324 3.686656562165798 0.6398159363622014 0.08722647451883687 0.43484656390322524
P 0.09026432565247396 5.438414356669466 3.721052884163208 -0.29461705482479583 0.7586497533736741 -1.0024733796956864
Ni 1.349540427974155 0.9847975798724089 2.5001641260842686 0.5096566670355803 0.8997709210284375 0.6920918629477822
Ni 1.7338554149714955 6.485992365494734 4.763288203692343 0.6522749880611605 0.5480872030976368 0.5148950326163843
Ni 5.961212138578179 5.6389386692125925 9.106213361253857 0.31857973628798036 0.4646533628520127 0.712407948797315
Ni 8.576507659604186 2.5190027603269622 10.247482622261064 0.3358153834399765 -0.14165672844325927 0.006754288004698045
Ni 2.372527107588521 5.35623299998078 6.835519047049931 -1.0518766127191628 -0.7392484660289269 1.1468665332335024
Ni 0.4307330357445728 9.301091309970108 9.143260752893573 0.620592312245899 -0.09164311552929379 0.35717893671741713
Ni 1.474452485695488 1.0226803017495179 11.450355460775564 -0.07489314976446457 0.7332174293434985 -0.9426648921784863
Ni 4.067409455928595 6.545141315637774 1.4933271643928696 0.8733906312626958 0.9553337458954063 0.8851732257199207
Ni 5.488957693255742 7.923346096202577 7.763553819679647 0.6640724949167208 -0.5599836974249066 1.0895838974619492
Ni 5.290956492540776 2.70276640144016 4.880429978094307 -0.34310703200538334 0.62314978856043 -0.04620349513925591
Ni 0.7271878622171305 7.520134803835041 7.168559896142196 1.0003139101505225 -0.1619933831180823 -1.318708012790258
Ni 4.879977620187972 4.559019773418498 7.121885030655312 0.5414524713899385 0.2850908605019155 -0.42925852829248645
Ni 8.26974231686812 7.315699667958265 8.911271433630539 -0.8648851648948459 -1.0236222458591597 1.0576101727688303
Ni 4.781531203321318 0.3812899561376486 10.42119076162767 -0.7660766419653645 -0.3170136773524411 0.027872043819919742
Ni 8.128222776649283 7.283611092172255 4.615297782745639 0.23400226935621635 -0.27367747645865126 0.331775409042648
Ni 7.266174587216925 6.079915538979501 6.9385359007710266 -0.25287339522910646 0.29438565554028007 0.20884093959924035
Ni 2.0520648720710075 5.324441790945947 2.599633304352696 1.0580228348262164 -0.541121570413081 0.37848181196025144
Ni 2.3935139913306207 5.177137115749681 11.475242354514908 -0.8719310159980338 -0.6336977392796054 -0.5767956267759228
Ni 1.1334449110058034 3.3997670328560736 3.8453828239413297 -0.8365480085130497 -0.4821870008604019 0.007168235613665074
Ni 3.8336251228220974 2.632894226027433 2.5649206922653978 -1.3213423650893115 -0.2737841772398446 -0.03899823564006832
Ni 1.076999294964364 3.321433421705334 8.125569904784243 0.36282019416359446 0.1347476600282518 -0.253090396335919
Ni 3.74037811854419 2.5185612157570336 7.010506764557963 -0.44914421147282 -0.1616465413016248 0.19865654286707077
Ni 4.1283065621240045 6.6933380910875675 5.949635560843754 0.1450708963311308 1.1215581363757008 -0.6599116786708119
Ni 0.8191381672376365 7.405576515722842 11.640404353674985 0.3901263381777152 -0.5104120571443661 -0.5102935292886308
P 0.2851765166006762 5.4851189588314675 7.894015822311567 -0.06712404734200698 0.8382981584349369 0.7796312407213476
P 8.31872673078914 1.738487127398906 8.000791211545257 0.9887619436468649 0.05713351178819838 -0.8024472101745986
P 1.7469035075685588 3.2171568142928924 10.390315982853279 -0.00989771872968618 -0.11841626985807994 0.27019003213068304
P 3.8884397272889037 6.007403107260877 3.6652254305196683 0.36656140637358164 0.8144789445281522 0.42596545936351154
P 6.864035617376358 3.999051147612765 10.474683435718793 -0.1358385790995854 1.193931605042105 -1.1426198421420064
P 6.408911299144403 7.7909277807924635 9.94899578965547 -0.5847431637577736 -1.0486107974836973 1.0859316454213426
P 2.4026692828213774 8.370180189856288 5.840604689857963 -0.023567245796978768 0.47945648930311624 -0.1335155873933636
P 7.041617634510561 3.8028341474048566 1.5343439516051018 -0.6585610781801884 0.6553723960395617 0.9246262895092204
Ni 5.287099735889158 2.9558435289184195 0.4830272317173193 0.17593698978236796 -0.2270430644295638 -0.1045539100536909
Ni 1.4805980652197954 1.0459199639096188 7.072149990965415 -0.34104037928434167 0.46763044320246566 -1.1133632592697342
Ni 6.8353442314446955 0.7749539735696944 9.204205617991443 -0.3920207269869507 0.061532926407474674 -0.3217182819169621
Ni 2.622945956533539 1.5947057976483945 9.154905815091904 0.6390973130286219 -0.3545708096706087 0.5469667163399484
Ni 6.271194448895151 1.8382581779753453 2.6561203715170256 0.6595563522139222 0.41646754717540535 -0.9638685228392948
Ni 4.04275504892199 6.860205894065756 10.39937665765048 0.3602673458347537 0.6477015097578652 0.2207459185669424
Ni 8.335784768970244 7.16691717011979 0.26427073288162467 -0.7422288888134895 -0.13509501606534152 1.2769741233865812
Ni 7.746791346026983 3.8835917481333655 8.189059508383089 -1.153435958920904 0.12724132434887764 0.0021522704563124223
Ni 3.2606174155329724 8.441755465753024 12.273698213652558 -0.31569058766564345 -0.5771956904278188 0.6377564827300113
Ni 0.17482641857330314 5.026381184017038 10.216317685626434 -0.5654501198561165 -1.0814383855366796 -0.35187629355758104
Ni 8.424517205298478 2.3266605389980155 5.786148727715302 0.7406965113293631 0.10153929159708318 0.17790259814917103
Ni 3.599687600783176 2.544675423178504 11.495579536961255 -0.5581816112191613 -0.23999628215612218 -0.452645282647543
Ni 0.9937816602033979 3.3147021197923463 12.625400178048178 0.707885121226297 -0.17448225961371241 -0.6207974862781696
Ni 3.0187591245763588 8.287683444189083 8.022183595402597 0.23231305457925153 -0.09735559253303878 0.580205166678104
Ni 5.604840615077726 7.916335449765756 3.306084791787808 0.13006568117155018 -0.6501360873412868 1.159796353921293
Ni 3.180616748352912 8.342624204247297 3.596459819865864 -0.8237565131753363 -0.7314204853440758 0.37757446965463365
Ni 3.314972453202506 4.247406451526895 9.21595611021974 0.00880577121708806 -0.3273721377686297 0.016745080668822774
Ni 7.3890771665894 6.231969071080912 11.375549700627415 -0.8977158382716217 -0.6410945459643087 -0.5993663129875871
Ni 0.5497500229016802 0.22376577692596222 0.2992131283675584 0.3607599692004561 -1.4707340002829832 0.658346391066221
Ni 4.556118194816114 0.1611971091443956 1.506924934923925 -0.5292317609540305 -0.16647147349409394 -0.5671431912878232
Ni 6.086079140731152 5.576077140236686 0.4659070168518771 -0.04242371638184952 0.4883203674516493 -0.8852184771355592
Ni 8.013150855057779 8.800127456488662 11.171375887047125 -0.14734580840823655 0.36262787564713034 0.35348580413654607
Ni 0.008122617863945296 4.807041666126763 5.835963065205513 0.23296174390684393 -0.8975700567223768 -0.2907943386445959
Ni 8.011042254458529 8.847769214472553 2.427151577556848 -0.8371198218561197 -0.13768900204476286 -0.17701582466884352
P 8.344813904869595 1.5838654279009725 3.634442565104732 0.5881784146915677 0.7693064617565719 -0.19131938577570923
P 1.7953562657829296 3.20132428757118 1.7349043086029168 0.10804263993323972 -0.9187495190134694 -0.5661787704920249
P 4.630459882610155 0.9529703263828874 8.311714282129586 0.2066961253420956 0.8272984648903235 -0.7306915775978513
P 8.453442880185614 1.610295024300963 12.323181843271005 -0.5152071645401644 0.40713752802373104 -0.40893781445726346
P 6.391186438551569 7.729255718821261 1.2604430415422054 0.08377374008354604 -0.8227776942018347 0.18116892760526865
P 1.8678596863878816 3.299644548846426 5.948923682863666 -0.7021322779029198 -0.34774067412265275 1.041312206939755
P 6.764291600140935 3.9785959195773137 6.109271945100159 0.3027522823374205 -0.7890101108330864 0.0758745398411274
P 2.1346337066475893 8.289792044788332 10.265089437264793 1.2460283257373443 0.642492711863416 -0.8786086851285255
