# total energy = -340891.60507151764 ev
CRYSTAL
PRIMVEC
9.07755676887344 0.00000000000000 0.00000000000000

0.00000000000000 9.07755676887344 0.00000000000000

0.00000000000000 0.00000000000000 13.28592190474978

PRIMCOORD
 96 1
Ni 6.1750351323420585 1.8894298702851335 11.570549612906524 0.5260862733465134 0.07014380800493726 -0.32154113290914943
Ni 4.354177124863427 0.49470051159018535 6.293394670014171 0.7870439882456509 -0.23238427413681917 -2.053132832178296
Ni 2.633980142889338 1.7231381103232162 4.878059257762066 0.45584373498018266 -0.9270207578833262 -0.48505120978207433
Ni 3.437153276230158 4.176665504902988 4.75622755467779 -0.7182034724331696 0.4486220204207629 0.5365815164508824
Ni 4.849739096578094 4.618579116915983 2.614695781577962 1.0612927638267398 -0.8538787864820133 -1.0877530149007977
Ni 7.298745867954578 5.990116226169001 2.591777674346353 -0.5973842495605518 0.1995335461553854 0.6689370220978738
Ni 5.13717992736548 4.726592963293343 11.734099043009579 0.8704734576159009 -1.130912581007407 -1.3042267884549474
Ni 5.525617653252833 7.846213308497361 12.543305120488764 -0.44327746827939785 -0.10374015590314392 -0.43340314658847934
Ni 1.8628961722465571 6.139877755502028 0.2613728114040873 0.5850578667847149 1.0822022602858974 1.5351121094487368
Ni 2.5999120728452816 1.6538218878727986 0.42844705674777855 1.0849841939064089 -0.9950940565124797 0.4950975382744828
Ni 0.6410152926696204 9.09671027760451 4.553789871958497 0.34005538966325305 -0.30438030485914674 0.6878713971085315
Ni 8.648133739022812 2.2795832543761434 1.3308378840884763 -0.5660314462808832 0.7970347809097758 -0.18772781176970896
Ni 6.801713332065347 0.6720496432868923 4.703973507674963 -0.340607148401665 0.8618564053708513 0.5121807190090146
Ni 0.9820282316829599 7.407104661483996 2.496053024138895 -0.6773653553708849 -0.6512100371317558 -0.012035333897979273
Ni 7.64679754438123 3.7530522470623393 3.6663960759313574 1.0096773536432933 -0.04749444603653755 0.8243751205959416
Ni 7.6336713974897545 3.802352457136753 12.560989108565723 -0.040735015825516946 -0.18751363887637384 0.42247570104269816
Ni 8.23332571111628 9.097164155436163 6.877231341207504 -0.46667862081215755 -0.5409701324368812 -0.386696743670876
Ni 6.884845595711356 0.5279788342071617 0.16873089942923364 0.009964824522195742 0.4389256190686054 0.9809966978791491
Ni 1.8966828380349874 6.5535147786028904 9.389014863235914 -0.25358379103256967 -0.10447883384138135 -0.8490993628154989
Ni 0.08129224291647788 4.89017053382196 1.5248652105871938 -0.7361124915031064 -0.48896931388955794 -0.31609193686912007
Ni 6.479777786072149 1.848008979368259 6.996233569889242 -0.3088853918183519 0.6943886294017589 0.05354090934093359
Ni 3.4642407052233546 4.1881395364872365 0.6418749372827759 -0.7786310815916074 0.598484424603266 -0.7430490707219396
Ni 5.905032287846875 5.385841436216225 4.662003424581785 0.7225298677226653 1.8054371244953873 0.0710524358621357
Ni 5.165057103785757 2.7931460208942656 9.510806625071005 0.004928547649868931 -0.6990749791338347 -0.4890217643940481
P 0.11902946135163715 5.508415683433092 12.603808850959759 -0.6859723803136057 -0.6087271853771968 -0.5990904336183811
P 4.163185333302821 6.033289085516066 12.922896767437152 -1.8050152064666205 1.5839538135417883 0.292675871938025
P 2.384047776109958 8.638802010803976 1.4377760400048127 0.1754245689223237 0.5096353268793417 -1.3582801186559252
P 6.608778943385255 7.827894799211747 5.943922355974438 -0.5543565810461162 -0.017154914512731746 -0.4184701794277309
P 4.5799904236686375 0.7806989186285698 12.786783344502004 -0.08005798179485567 1.3125350512103267 -0.392697184228685
P 4.163611978464577 6.105709832335007 8.016751549452247 -0.12155352993548096 1.2982805981738414 1.2935045169414368
P 4.6016222411253365 1.263677581338422 3.7659478240153335 0.3430733505539704 -0.7484375887273627 1.6809540796179374
P 0.09682031129307356 5.811751315885051 3.7399869198003057 0.021121098249331366 -1.06519981219063 0.25321972282493166
Ni 1.453670841669386 1.3167812876421074 2.535033867832791 -0.483843048406586 -1.2007162320641063 0.6036366582281668
Ni 1.9164628339385312 6.375040937639341 4.856296723489852 0.2700041413721221 0.7626295639570286 -0.47252068141523135
Ni 6.125126725973226 5.620786756994343 9.132198077505985 -1.4032389427548027 0.412053991488742 1.2502547051138662
Ni 0.04830621762308768 2.071425803222329 10.235593241373605 -0.528866921415444 1.1605468589340722 1.4618724361272952
Ni 2.133607066159123 5.5368375132513545 7.164845553326582 1.1310264808774522 -1.1591075553843844 0.07915681013682496
Ni 0.47159449893627065 0.10746737746804667 9.20390169735091 0.9784114536504763 -1.383090749941702 -0.45588718662360844
Ni 2.0189030605431624 1.0847770952131166 11.513685982645404 -1.3244580279001577 0.7410698355083818 0.5877973772030651
Ni 4.040602008529322 7.063927632969323 1.6340092127653758 0.12690605249664597 -0.0835225433046884 -0.15587672869738314
Ni 5.8071489946720645 8.012822782941436 7.977757997179064 -0.8195931258262659 -0.26200312544451654 0.11056180681066766
Ni 5.493428637431829 3.035480472771734 4.780539974608244 -0.27497999732015865 -1.2769941779912393 0.0686628525840366
Ni 1.0044588741233713 7.642385851857538 7.121546515942317 -0.5556711860924818 -0.2331630612843726 -0.11388238654346837
Ni 5.07320130821533 4.639911375003788 6.733264924029054 0.2847507035536773 -0.5956281861013935 0.8970021000340488
Ni 8.204549856589324 7.22592570864378 9.28478635797456 -0.42323571913717434 0.21297090260721388 0.07109460195398079
Ni 4.314054324545087 0.2647451236932872 10.578489773388315 2.113173747421277 0.9615249623077827 0.10895820976897364
Ni 7.882968335304818 7.604686759160239 4.222518058968146 0.8957900820038186 -0.49572103079109464 0.4986186640538638
Ni 7.354990408853319 6.059886326451076 7.196943793581255 0.3697104935255246 0.29064778576440264 -1.362256329694854
Ni 2.2189633311802437 5.264392806021864 2.616449565519479 0.7942867858509934 0.19557867527269543 0.34077272744525183
Ni 2.491444348636266 5.333400391546756 11.460462452594163 0.533309787678146 -0.6861878387585214 -0.38500624334233047
Ni 1.1139342071186618 3.4325327999039064 3.894183743304269 -0.5852527564043405 0.558135074251942 0.0335382409667616
Ni 3.3675102617409487 2.6813922211840646 2.6157451471247497 1.471547497323214 0.3117570569391921 0.5411699071525132
Ni 1.1034223965375218 3.547645295568357 8.324546985478051 -0.19425018626925902 -0.6351542692204739 0.21476681816537208
Ni 3.4664919392683657 2.882959366222242 7.1121666766733265 1.4495385971522905 -0.6626488750963169 0.8968786870823071
Ni 3.999634995444103 6.821883662904114 6.0248732827615115 0.8044421291174404 0.913770063521007 -0.7376081022120264
Ni 0.7463285659486305 7.153278022909012 11.353816594001412 -0.3948499689056296 0.5468484455945292 0.05435132105737091
P 0.16284410395266266 5.539551702684654 8.419673424703387 -0.22555233881665027 0.4293348900563767 -1.013289496474584
P 8.523898298942086 1.812424957366473 8.102246701089854 0.34819241694809067 0.264805370780002 -0.5325623679891602
P 2.019465869054415 3.3764516550245607 10.512977047167169 0.13285481388091314 -0.5025827909079345 -0.33869990407662315
P 3.984856733245402 6.121858805585307 3.7804955162755536 -0.5669099922310946 1.2360948686737163 0.5155758607334927
P 6.7397590080443806 3.8692722046360295 10.488637394566817 1.1892794509820743 0.49539295802771455 0.05386692522178465
P 6.127332572235072 7.663690877275445 10.321806427740892 1.7679638101402777 0.6365616910909617 -0.2997487196244063
P 2.492370259412843 8.51073584182408 5.75960619956182 -0.9190950752783461 0.3791976070803534 0.640107242350375
P 6.949922599214111 3.9112922142906896 1.5872026074980776 -0.45613169853424673 0.8680275671785697 -0.724368720703617
Ni 5.284917161569323 2.7895785411374536 0.5355631327741239 0.5019577557294259 -0.2856603598521402 -0.38777017924071283
Ni 1.4015656665953424 1.190984507820488 7.020254600251774 0.23883517196848544 -0.09613663252427314 0.43610229068719736
Ni 7.087030014600584 0.6576599005120886 9.191626117515955 -1.3932180681836908 -0.10229365326460448 0.662317202788511
Ni 2.7318271258376163 1.5700995830456377 9.356517210489384 -0.21436855428568888 1.3897493929088003 -1.5933131432695011
Ni 6.365327952041914 2.0313756233570537 2.5549227944159316 1.0204767582516425 -0.21985348865966006 0.538334494586247
Ni 4.111125546011943 7.022661060515212 10.280221233048959 -0.0003974925487347993 -1.6087495324292294 -0.42216022668480846
Ni 8.277224774993993 7.101744733902853 0.5782920996018297 0.3947985468424039 -0.11645760346981233 -1.0562672855876905
Ni 7.4957106917797685 3.861411040591757 8.273169830445983 0.790541202765632 -0.662447300608472 0.31453179147085186
Ni 2.963223121972189 8.040554718455583 12.310801662444952 0.5621699064429481 -0.42447756196407543 1.1461903331020842
Ni 0.13061877790512696 4.550524674837567 10.522848890005676 -0.5912657953676397 0.6100664730139106 -0.20631225964011565
Ni 8.76052296769733 2.260928875495105 5.596335450447402 -0.5434605029589028 0.46923018358941765 0.24879151185024895
Ni 3.7007019779592016 2.8271142378153575 11.782247311147252 0.2963291524198961 -0.4320571740835462 -0.3804890721982673
Ni 1.0672755660244833 3.213200876534735 12.634831400753407 -0.25960968551167546 0.8198137264775042 -0.16851832872079364
Ni 3.1529077453776275 8.455026876766691 8.1214847668624 0.2923231165842966 -0.6234819750888682 0.0724608861738881
Ni 5.543418741810359 7.916164959912096 3.7728031947846574 -1.0862347784840582 -0.46887588557379245 -0.3519048328026713
Ni 2.8946966469488515 8.345406302865271 3.5512872112895604 1.351389305073363 0.31298167337491256 0.7923461171848548
Ni 3.5816225900460825 4.430337825015209 9.129886023831531 -0.8415626881188217 0.023283910228605063 0.789855232442201
Ni 7.396828867375317 6.181970385609753 11.454483973795597 -0.4638933447575366 -0.38888500957144634 0.24846883840350756
Ni 0.7296131531644243 8.801435515442751 13.117788277327339 0.15802231428547622 0.4754599665492134 1.0052722825970624
Ni 4.844946146675813 0.4888100850909612 1.7914076904938365 -1.0516009904602728 -1.2565184266353908 -1.2407171979370761
Ni 6.204963836561418 5.870973295359451 0.5479140563291316 -1.1046256222864201 -1.6394006816561832 -0.9319647321521627
Ni 7.9162285028085275 8.843927558042331 11.309374692237038 0.09363854869276778 -0.039813532452512075 -0.06660597005500787
Ni 0.2288497414989856 5.078747695318159 5.891123655573626 -1.3948859428044171 -1.2590075116058317 -0.26754976629435856
Ni 8.352450486812563 8.883060904687664 2.0524491710808155 -0.7677319181806004 1.2680505956447063 0.5904430423560283
P 8.489766686001598 1.47546605514548 3.4778688409966403 -0.4240440739710826 0.8612676227469166 0.40698403316500226
P 1.6220776723268175 3.385928624149526 1.6024547181530266 0.08905735707998856 -0.72129162444019 -0.5001636399434807
P 4.631786961817156 1.0897969840312258 8.265663598866066 1.0443929027476078 0.3473277549549502 0.6955641377670988
P 8.650475748634154 1.518493673586415 12.525900721156104 -0.2909120951693829 -0.06742692329440644 -0.9276349944285573
P 6.3419804763815595 7.83345026387121 1.481327433463478 0.3577553780461774 0.11561325319164603 0.9608479908454162
P 1.7108470986419873 3.2968777935787306 6.182856355137145 -1.0235841935323726 0.7784860713733109 -1.6426009337610354
P 7.068620729748641 3.957669451129241 5.977548349010463 0.7989016589151854 0.07295942307686146 0.3460401464917782
P 2.3397129895138553 8.560462697060249 10.212954722886296 -0.8675591121825832 -1.3262747693939223 -0.4187226617581692
