# total energy = -340859.6426615272 ev
CRYSTAL
PRIMVEC
9.39626052460367 0.00000000000000 0.00000000000000

0.00000000000000 9.39626052460367 0.00000000000000

0.00000000000000 0.00000000000000 13.75237706632910

PRIMCOORD
 96 1
Ni 8.19582243521507 3.498594233150102 13.547617633395996 2.254552539612801 0.4064001356370743 0.12382355691658029
Ni 3.2294853328269584 0.6026817853375216 9.277353628569282 -1.5683425893670926 0.7324481552776418 -2.60303266300464
Ni 7.817284685270303 7.663251787120957 1.6324893835936582 -2.140604847049036 1.633050828178755 -0.7278078282921531
Ni 8.754326762250942 2.5055504436720497 11.345463044561027 -1.5501736317675494 0.3898203769015222 -0.5397683988192962
Ni 9.160226422731359 4.59080615579891 3.9993425658557955 -0.28901744924983125 -0.47937344267100673 0.21338819265029055
Ni 8.107018377360532 8.567153253366968 6.141124301815196 1.7769382457247462 0.7840987895743979 0.23955610929490997
Ni 6.703893591485728 0.8169569283416788 12.0033083959606 0.608105749743114 1.0711475451336325 0.22430843910722012
Ni 1.112564222861795 5.779508277379925 11.007609223269164 -0.21154933966933887 -0.38833967859093765 -0.027956118893293788
Ni 9.157003505384612 5.454811100020757 8.794287178846412 0.36388128843825723 -0.4168951216311272 -0.39533179363805465
Ni 2.4523394205390203 5.650600979770525 0.5863698771335768 2.382519943494426 0.08473070468017666 -0.7188421344584329
Ni 6.981214823473761 5.511047719030325 0.3331641476832308 2.377863932779653 0.05672136395144424 0.1424401435765031
Ni 0.34377064651998934 5.007671252266657 6.214534466115288 -0.04442840551670413 -1.4242916496600437 0.10921274898194094
Ni 2.4572442685127873 1.5438431829152852 0.4799882347876085 0.29480088870082777 0.5137938291324055 -1.7232168449418903
Ni 7.896241462135365 6.140935436979426 5.918486486978373 -0.795739973357752 0.17494222996926645 0.3085966569333395
Ni 0.3429127679376045 0.5983745395306734 3.957219130096415 -0.34807954551931025 -1.3726286740681133 -0.10415975993906577
Ni 5.177828133410226 4.441452595371663 2.162423440995361 0.5141792374962822 0.5701727221427664 -0.30411393857163754
Ni 0.7817660535689749 8.279280020852996 2.017611093261067 -0.9349176441328996 1.2808423480927362 -0.1686078031108064
Ni 4.661644563603945 1.90616298726097 5.185897641915726 -0.9349626384382221 -0.6652122649481188 0.09321843043621365
Ni 1.768977584163278 1.0721227177294341 11.275299288258898 -0.7238401018936567 -0.7472340553375647 0.045187395169915726
Ni 6.565646410953102 0.36926176159284746 9.424764981954043 0.5264840230055643 -0.6575812307654223 0.07071536423769112
Ni 8.320087980144317 2.983904668761118 8.801782575836208 -0.9971013167504957 -0.327550572328023 0.007553129756909573
Ni 8.455243790977 6.990216441019486 10.801268282619503 0.4128970562153276 -0.09959965137220912 -0.2762187548232662
Ni 9.538237982088903 1.357318016004855 13.166167982326572 -0.302105392782041 -0.49676978377058323 -0.252986523768203
Ni 7.60903536411591 7.848762157898884 12.876199383724192 -0.7809669288136357 0.5427709330910458 0.14226068057584534
P 7.652051444621474 0.3309334754438204 0.3814534095736184 0.9323249437050589 0.09030074256878642 0.26913510850360745
P 8.37670044957333 7.991510147204372 8.650409759030488 0.18743830555374816 -0.7145915867121951 0.26631383700472844
P 4.814709646923219 1.0423647607698185 12.968298710131222 -1.4485083561155634 0.3554041042051815 1.002210870062919
P 8.02096742382843 7.224878650400428 3.74877436672391 -0.8105749814880557 -0.12929357889221604 0.998933484863228
P 7.200561128262289 4.537341433632755 7.384338828606571 0.5009691665639114 1.3598279227590193 1.6332079225819098
P 6.680553280438147 2.957942801037904 10.60452656168249 -0.5349745769750787 -0.744027375474809 -1.1571990255077618
P 0.47654168644129113 1.3910975724525403 9.62328071687084 -0.1352333414154187 0.24748487722368342 0.17165147503313663
P 1.1188879061689694 8.843159008886941 12.881081680672791 0.0033527185223168063 0.6361551996811625 -0.6433152077647115
Ni 6.690071692310611 0.5989759002017867 4.736015965351769 0.36440733614505627 0.553854187488401 0.6859021891973026
Ni 6.051135375513354 3.294244360097458 12.667933149300923 -1.225721238748876 0.052423507907038744 -0.7611532365218182
Ni 3.3394403730358073 6.7879995190971965 12.146979098045827 -2.9688685040661063 -0.34190966926317246 -0.4483209442405763
Ni 8.734096613424276 -0.045275881152481386 11.07531209894997 0.9387473022916349 0.18008263651962536 -0.6118572463657462
Ni 4.832243068990362 6.8527585463676965 3.8266543321372595 -0.32257960147599285 -2.094981392782966 -0.6827176208217338
Ni 4.907807795819926 5.403864575664888 13.413559305788095 -1.4658681875502495 -0.4668267163542476 0.1316412531887862
Ni 6.937522212213194 5.892648649893576 9.518597918420765 -0.10085126439112309 -0.08896916824155646 -1.4491503605749365
Ni 8.934960473836561 1.9659513927342998 5.746499214292103 -0.9438496565152067 -1.1476347788580945 1.9924959352225298
Ni 4.529270045875158 1.5286494297091915 1.9842618855436471 0.5055560146036454 0.016864636965822567 -0.387076752718114
Ni 1.3488801740882983 3.840317434510161 12.3868759641436 -0.1592944961296805 0.031201365303468842 1.8055769925073615
Ni 0.9635489278120486 3.235545920840521 7.546438416383272 0.2176053160554317 -0.8760157275903687 0.8569309430447758
Ni 3.0185674736945 2.985229541489664 3.4775362737746063 0.42430812626574665 -0.5619189667744064 0.7781667403606791
Ni 0.3665631555812271 6.792678856819296 13.188584640968365 -0.25305388667102874 2.195491728894903 -1.1210991944614113
Ni 3.2255952809856954 2.428764202979287 12.224048166179223 2.2744150828646834 0.863091563329533 -0.2848741165054191
Ni 0.3922515921242942 1.2724979725964396 1.6005157884114098 -0.7732415351449199 0.3043070284190501 1.6298598320452833
Ni 0.8063043878285381 6.909540148485459 7.138556144940278 0.00231862083084762 2.7600962129212725 0.5394786354930192
Ni 6.431683925202158 7.764111247179218 7.716568987997479 1.83591832380338 -0.9881906445244272 -0.4176805936469
Ni 3.9409513843167554 3.3543428421668304 6.844640177307667 -0.030536735136276437 0.566374945663231 0.5749254063364033
Ni 4.510402354818982 6.1936860433486345 6.782218939646121 0.17809260267279006 -0.055559225322543024 -0.26372756433479094
Ni 1.0420828729552343 3.4665529848923535 10.21648919238623 1.8925622975496696 0.0696378149027962 -2.618744931533574
Ni 6.675385337170769 2.3304135444708254 0.9949277397055241 -0.757455733065573 -0.6090087211733576 0.014164721536156251
Ni 4.096102437463953 9.005423031222149 10.913459632824056 -0.5961712030890571 0.14761577424017158 2.939473595843757
Ni 5.228577336295886 0.2142178258151917 6.892113843787858 -0.13752676543528572 0.6184935207353411 0.8343828825409307
Ni 8.469676447083717 2.46137862312669 3.6239986048502675 -0.3255641380256135 -1.1446137326435837 -1.0030415934943306
P 1.1202597601999462 3.1855954000961835 5.1832704474838 0.6348362237594227 -0.6943562335019268 -0.4181775878879766
P 0.5227468577558521 5.02355093248824 0.3215334564534827 -1.8685170836750076 -2.5381089657480613 0.08879484744722127
P 2.5207911781805743 0.8124899461065662 2.3726835618937896 -1.125509407713965 -1.4154689091620913 1.9573978059678163
P 5.626048551120233 6.55161779404729 1.5832426427597326 -0.5292178769969595 1.389243399806659 0.41429676477633165
P 2.315774170633414 6.9199606013645925 2.3356209520322455 1.4749359541794727 -0.5131844776831807 0.4660810964374747
P 7.118456604134369 1.518661204812421 7.2394296993892695 -0.07855234378360665 -0.49019804409033635 0.024987780293589223
P 8.34259202400863 4.912421359718623 11.870020561712561 0.6587333420919944 0.5482273282199267 -0.5222928677423522
P 3.521990921760599 3.387370697775624 1.3980799336197933 -1.729332728031641 0.8613527262615553 -0.9465973944636729
Ni 2.5521464994228342 0.7246433671955641 4.631443103149383 0.21998795735499532 -0.1852047882375391 -0.5343107181388346
Ni 5.227120915920533 6.211679882179599 10.968675817944828 0.03708764888091677 -0.5842317713389938 0.2799183151620405
Ni 2.9426456889664627 5.51154572083609 9.465389714165882 0.8218299855765847 0.10260244275427492 2.7393109007448047
Ni 0.1607258544936266 0.3896290958226116 7.778152079223663 -0.002199578754480083 -0.08908049700844013 -0.538496216975092
Ni 9.013860873138706 5.884351751884312 2.0894671160767504 -0.7626635025187575 -1.9616977188947504 -1.7588345941455
Ni 2.8041823944426554 8.501821054206813 6.80882914934288 0.5031522902581592 -0.4578412250261857 0.9139297290273228
Ni 2.767179920648223 7.471107656439813 4.453679949142281 0.08549457942939469 0.9322316126603041 1.0065231242850279
Ni 2.409548850285124 1.5165846312449835 6.804263506372662 0.24541282518600313 -0.07837750876863922 0.490707122516271
Ni 2.384648759996844 4.836133120831626 4.883950690445609 1.0945093597880247 1.14734552975245 -0.05031211799099077
Ni 4.80567044433555 7.662960503045886 9.103248438769434 -0.3450392160310896 -0.41679382016657257 0.4364907843748676
Ni 7.030789493798652 0.5568703173373301 2.4750295103609594 0.43151981352283747 -0.31046199227685245 0.0032141360619234965
Ni 6.635479418886119 3.255907617313994 5.801893928362112 -0.04045270869840775 -0.5105300707794691 0.013038835461829157
Ni 1.3339495161758168 3.989896505189076 1.9123504247910954 0.25684060740697057 -1.2682413714992737 1.131698310133496
Ni 2.6812793072839014 8.171542498118876 0.4843734695564916 0.7116391889520904 0.18733648986856125 -0.01440846211584615
Ni 5.09188993500396 2.0896343695134036 8.794920486803179 0.0651844071171329 0.17265960458267682 -0.057355140880701226
Ni 4.979153601691213 7.815217507963351 13.167543594861744 1.1921403174696372 1.482886319374801 1.451458696993139
Ni 6.027860838289177 2.7173797400716637 3.5228224908136228 0.0972208667273874 -0.42739293583865745 -0.3618130930553188
Ni 6.647083800586506 5.214154076449656 4.041658624955142 -0.02537113177493695 0.08244885062453543 -0.0003946643352573848
Ni 4.924843216081305 8.58278863081591 2.379628338019098 -0.1900225213411566 0.13875421008448363 -0.6548566327454076
Ni 5.2555727926725755 4.492784366407464 8.633481456138654 0.22049986399440732 0.7707254535912856 -0.15811744510244383
Ni 0.7684299410609918 6.623160921388785 3.801528731597313 -0.05602510921536803 0.9573538616492285 2.4901005561895824
Ni 1.650002133887732 8.038801526231131 10.71626501213161 -1.4211441051699976 0.9887658003016067 2.172356171318704
Ni 2.3632910599118406 5.1057964005234515 7.416367861725687 0.025304025982427387 0.2137604883880448 -1.2205638629176527
Ni 6.140258906224424 7.68246713981512 5.427471740510275 -0.2794521741588994 -0.007508906782535456 -0.8290329310829271
P 7.533442448504887 3.805241194115388 2.3491534463843893 0.10173829498176672 1.904826202518687 -0.830168587349267
P 5.976660614900182 8.291908594946372 11.26454432850646 2.1419616181872465 -1.4008110500396005 -0.8689390232492455
P 3.5818544973178175 4.641339244693389 11.860475840310736 -0.5108907965529975 -0.0976353285569867 -0.2201008287837758
P 2.7355239190704066 7.582669457191792 9.127727576587937 0.11626271385018686 1.1668753722552612 -2.9994499763973894
P 3.2813902757524143 3.42489936215728 9.064095160949725 -0.3708173534364581 -1.0083689192445149 -1.120762637057599
P 4.610294000047172 4.224013731461822 4.930502583772108 0.38060760005400257 0.5822839035840036 -0.8853912552679978
P 4.517590494090882 9.120104390455527 4.821968258148765 0.44603677619208987 -1.2180614082107732 -0.3539730281856097
P 0.9558721829948695 8.664075680281536 5.629247038189716 0.21373554868738026 -0.20675448938385682 0.11133210931778889
