# total energy = -381173.6382218407 ev
CRYSTAL
PRIMVEC
9.18191357814996 0.00000000000000 0.00000000000000

0.00000000000000 9.18191357814996 0.00000000000000

0.00000000000000 0.00000000000000 13.43865864366636

PRIMCOORD
 96 1
Ni 4.221889761540277 7.629307063216767 7.831405571489582 1.4990230770356636 1.3866470998343925 -0.897122427661997
Ni 8.338554793755618 0.6765674638186687 5.243508945748682 -0.5333408980263976 -0.3629142965392976 -0.006937350549781601
Ni 3.682718615755854 9.020458785731673 0.9719808413459682 0.5584847442818769 0.11460332386989294 -0.7042698930712129
Ni 8.865890452969376 0.014639642969954257 9.101614046867047 -0.5772861932590961 0.7347937726916829 -0.6656735208552536
Ni 5.133947598652354 7.618986592382453 10.53821991423799 0.6407299635360385 -0.8868264450526274 1.3222219394807875
Ni 5.337225982816816 2.447723697048028 11.300769571147189 -0.7032591924185114 0.03647701188011137 -1.7707855958597893
Ni 5.136261440867877 1.9360340185297071 7.391154853184151 -0.959144120780432 -0.4251974708492355 -0.013653586227692615
Ni 0.7982232274478765 1.2549104892057126 7.233842046460663 -0.4688874555380183 -1.5549165457691738 0.27461310089904317
Ni 6.00793722217096 8.704022498931916 6.184753331473775 -0.30833389019025603 0.2987747857469113 1.0524201439274585
Ni 6.100830641593331 0.2819710560847424 4.020550597518349 0.29266892995948957 0.8496084412414335 -1.1438873960005203
Ni 8.458507312420622 8.692104375139268 2.827144238060466 0.21844298146537863 0.2304348637199322 -0.16307324644582238
Ni 8.59121350901166 1.5914092571202156 1.1646752337571267 -1.017175204682235 -1.4245158498557078 -0.41284691970368254
Ni 4.9387676622422205 3.5543095547079298 3.9550238714426587 -0.0193650347901731 -0.6094530077996279 -0.609597503797292
Ni 2.0861215774778206 8.027196105151035 2.7431664566986993 0.11971390562358092 -0.06527182462461661 0.17594881685690988
Ni 7.378034816907328 1.5598051106685207 7.482726077054795 1.1394733260932246 -0.7668001503949503 -0.2981253250883704
Ni 1.749338170243154 3.4974092364159035 7.71740476919006 -0.4085279806133545 1.2103283012325738 -0.34700533861852495
Ni 5.043285384223522 6.5068364951090345 5.827607194551159 -1.074738862029317 1.588967464706296 -3.4132032099654253
Ni 0.7526827726044376 3.333824264543911 1.1034988983231615 -0.22071300844647793 0.3518133015301296 -0.4417954844172327
Ni 2.445455764400274 5.027841405626268 9.698222652886384 -0.8996297674648829 0.08865395099398281 -0.5444791740314042
Ni 7.083166845045115 5.702941599659063 12.353137147464087 -0.8057420788757865 -1.3866054479631795 0.09464667824230796
Ni 0.8748912874295757 7.02119811047147 10.14868641363755 -0.1531593297662201 -0.9474841679440005 -0.9415973701459203
Ni 0.9316795863762471 3.162443848064861 10.949388757744915 0.5450910965837903 0.8506852192453801 -0.5103457226828049
Ni 5.439475772150365 4.7206145781208315 10.37162052014633 -0.5231372180205184 0.936493987481084 0.4289782780479064
Ni 7.476419020634786 7.444521052949374 4.656481666522587 -0.2782568682992176 0.9906792152742359 -0.09654852325071114
P 3.098574457385608 3.688016579876315 11.301306713090078 1.1946422579558846 -0.33230248519071154 0.22251278065937807
Ni 8.783280776727104 4.9624294534699995 10.78147267724966 -1.4690113611649216 0.553430469687421 -0.07609282649952057
P 6.689308663160904 1.8068995863110437 9.594422956544978 0.2682640187525638 1.104501695114046 -1.18529166997892
Ni 2.7468796225397987 3.7586530408446155 13.467820534686963 0.5091563303603941 0.9157575262646809 -0.023547191192320734
P 3.624459374257886 6.75953193801929 9.523171307368582 -2.3632940053852782 -1.199319865937212 0.7108516600537886
P 8.052170910016986 8.494619778427165 7.054018860469024 -0.6152948112923855 0.5916573743791037 -0.9303179405773591
P 7.7839029417197265 1.9374480332169706 3.131127095507396 -1.768834128560373 -1.7244630586441654 0.5999208999394765
Ni 9.036765864202973 5.425969177312933 8.520687231006002 0.049921310310475316 0.3901124542206442 -1.1456881966546848
Ni 3.9011287934567456 3.100162928430391 9.158459273677751 -0.03172381346584214 0.16577187632390805 0.7033278408729178
Ni 3.956734461937706 1.7861117340255594 13.181993993101036 1.4020171545325597 0.8593243829776167 1.1477193681521007
Ni 3.7870710632931908 0.7925616595506902 3.177611451064151 -0.6043200574484366 -0.37673217625899635 0.1782432693180414
Ni 6.8651239438863705 4.296722357002599 2.176955493690105 -1.2426761214356596 -0.5115811377518028 -0.44300570267524997
Ni 6.405155984415812 1.9453720246137784 13.306583378110641 1.3801056991714489 -0.023824356113107355 0.2776452028571476
Ni 1.0509434615247268 8.48738443054688 4.936811914655291 0.07651782985208112 0.05673370524661842 -0.09828916009090169
Ni 0.6889134647829189 1.4032351207515235 3.4227859885826044 0.573433138061593 -0.7052445982796564 -0.48060834351937237
Ni 6.360596157939903 0.05833545138046311 1.4360145521380872 0.12004223549727713 -0.18418380317219246 0.15950789769206722
Ni 3.1761524450004748 6.864536301418936 0.7443685498815992 -0.784350757684204 -1.0976607609328128 -0.1196210887994585
Ni 4.78201403405415 7.653868681972805 2.567415449368108 -0.9168577013073952 2.3218293104825882 0.32341726688593975
Ni 2.3790521655802106 3.0712766283905792 3.4120082584533193 -0.15802411405768915 0.2679493157256224 0.4208193963861978
Ni 4.284510411976233 5.523738192832296 3.062092878454209 -0.3343030605605081 -0.4980314240918261 -0.1514199784776102
Ni 0.8178339584157819 7.873389871213688 7.448174536352376 -1.5551016651967864 -2.2282671235537106 1.1693958246842697
Ni 5.5439843122181145 5.9138685178137225 0.870604251991372 -0.8178871988787526 -0.6579833512998474 0.460271174623917
Ni 2.696709646882605 0.9548180085314684 11.538889644482365 0.5885507104293218 -0.03133531977817184 -2.488223393771528
Ni 7.927654980315816 9.014986365253694 12.92133783113976 -0.051492254342020996 0.2817170589336761 0.645391630677766
Ni 2.1263750864970627 5.000451757495703 2.137310745539471 0.058565873359350755 1.0191588107711675 -0.3732953826633055
Ni 7.094120867914631 5.176735315812406 4.405756662260947 0.15258083155493077 -1.108238536448659 1.4875482436268446
Ni 9.226078557852318 6.183284225305191 5.562905481478139 -0.5390268926675814 0.13026468455623372 2.9608623459321786
Ni 4.447535287121451 1.7239593611808401 5.2243729197115005 0.49898658891624387 -0.99037145422583 0.5738910515346181
Ni 2.5295988202060076 8.836939879534688 9.493323660979703 -0.5214341192864825 -1.0136972734359637 -1.894682429216466
Ni 1.1639360897160569 1.866444295706524 12.680032551992818 -1.9147177506007864 -0.39834538365339783 1.7553908585712736
Ni 2.5741770105090227 7.836616307431284 11.49330511645387 0.9494438627735325 -1.428998825327726 1.9455853867139203
Ni 7.737828099507464 7.670726675257322 10.59373468177477 0.968887573320441 -2.0018053855489133 1.9293668679725289
P 8.07797208710277 3.4952147590765787 12.978357514307985 0.015776803218282506 0.15530748645747447 0.068807605692017
Ni 4.6589580286080094 0.6476784092047908 9.588671405894965 -0.039083596265023016 0.47775133368655137 -0.7890324794305895
P 3.5989428364922667 8.34922417730497 4.9386528883228 0.45207835440047944 0.3597844926610642 -0.9233721053871452
Ni 0.23088197088082713 6.087223045706808 3.344533130321543 -0.262439955871619 1.4319255120562178 -0.9149435150038178
P 1.2090284671780773 4.633110941954459 4.7180978156157725 0.40291911906700933 -1.7501424656881408 0.01460772261084581
P 4.562162295925333 9.144855350556648 12.166998641330242 -0.30016806655001205 0.08636386940822546 0.04436644193051714
P 0.96312764029753 6.695515636723178 1.2478587795965024 0.7345384621477672 1.294244994651887 -0.14964617440663905
Ni 7.587354900190097 7.15110382342864 1.1665171256159907 0.3700326527516337 0.5422585122310016 0.26785547046023545
Ni 2.1873797201475744 1.6191386360522664 1.2892728824889268 0.4065099217420612 -0.7986242368840826 1.734799150462851
Ni 5.19416258773725 4.056569408006642 12.91643193472804 0.4950147487526894 -0.37180208594723063 0.8313780342763359
Ni 8.11043933342851 1.7378424144739728 11.41849180301001 0.9426767192530281 2.2064605692015804 -0.0358414351786415
Ni 6.36133989293775 3.7134596623335048 8.346132627011453 -0.25910677773332796 0.30522568357857754 0.9926018862182454
Ni 4.031713968016887 5.871549078244906 12.243733729280883 -0.15569700858640928 0.18386010128418656 -0.9286076427544717
Ni 0.2921896076786097 2.8035228472523226 5.758559204627642 -0.48369855240892184 1.4939320356660013 -1.803269427420107
Ni 6.482513606105391 0.2894368699952227 11.034294830566958 -0.7359314858405519 -0.7130916051279009 1.3136946187360667
Ni 1.5180824954806933 5.254193938551075 12.040809766979592 0.6480864039011097 0.9078752953031267 0.41006061520779696
Ni 7.962885982621206 3.9667152019705334 6.728561343602796 -0.3338019525543735 2.1377684060415056 0.6934800015445605
Ni 1.5046401740381359 1.6634689146893331 9.420096982197913 0.6188359916764244 -0.3845010215711378 0.3571635100984494
Ni 6.636117837944556 6.084826566269302 7.3402622609302846 1.5539773217843558 -0.5640280426976092 -0.7860826527736462
Ni 5.9177524672469195 7.68078087059858 12.992118448150853 -0.6733606050868662 1.083872963120101 -0.9463523683324024
Ni 5.676047774860394 2.157373226654216 2.211103030196164 -0.0537540537930042 -0.3082667843977465 -0.2654579167623364
Ni 6.681678492997813 8.03948150548583 8.683039990079093 -1.3162860336123265 1.7761347759868442 -1.4260232876391699
Ni 2.3476683850538036 6.4159355509278075 4.83533707882567 1.428672809446875 0.8204253919195742 -0.4496216653298708
Ni 2.5807053510456743 8.826573499132607 6.860784571540911 2.446467392880664 2.119287830738815 -1.2124561462088537
Ni 2.17316611796651 1.7912811513562696 5.243764202945474 0.9832664677499325 -1.761085852073522 1.129293043126113
Ni 3.343299999331287 4.157414364566481 5.7118737651640625 -0.8935964167866094 -0.5048489612342918 -0.5001330438158613
Ni 0.4287567989189601 -0.13509716688040954 11.206725657956545 1.3404711154989624 0.4483397132936537 1.3727628856531324
Ni 8.865844543401607 2.9751052658295523 8.824830771940121 -1.2735987791564454 0.3699866300050467 0.5569292268692989
Ni 4.314957637320166 5.344736788103709 7.535646954012665 0.005741530469467532 -2.205417215538731 2.455228426902746
Ni 0.9883503568294318 8.747195856461222 0.5663147186317503 0.04351823499760892 0.23734933145157835 -0.3423714393909394
Ni 8.849500737276093 3.7152042259086997 3.298747518386222 1.1149455161551896 0.42100631558602336 0.7750739603679685
Ni 6.940654364778771 2.7095826896848347 5.136726045693692 -0.673766325165717 -0.9108228079672249 -0.620954323571008
P 5.537364152545925 4.386246014150776 5.8016838980151135 0.8887941103019597 -0.22129947707756728 1.7743118638454924
Ni -0.17434525636552584 6.907287290924773 12.62156120829176 1.5846899203768645 0.33846439102704934 -0.09791377902935396
P 6.888996919125884 6.016990588934869 9.424598874413274 1.0388254359621594 -1.263196867096831 1.004337943708251
Ni 2.0969837812117995 5.798231498518938 7.125727768940392 -0.7682137429130254 0.4112991156005884 0.5401728333465665
P 6.394532510434228 6.411014045263046 2.872500136441477 1.134973124230026 0.1378646083906787 -0.04552909478005062
P 2.955511062306044 1.7938153594970796 7.674280075802589 0.5158244864091891 -1.3739754179039951 -0.3850589509571368
P 3.8560731436489397 3.4058104668045988 1.9205725942967002 0.5379583421937509 0.3164272087213518 -0.6767608890176667
Ni 8.758535519699992 5.166929032137098 1.2820531438616847 -0.6477873846034521 -0.3169126329982026 -1.666965478648329
