# total energy = -340867.37849373586 ev
CRYSTAL
PRIMVEC
9.32510441249104 0.00000000000000 0.00000000000000

0.00000000000000 9.32510441249104 0.00000000000000

0.00000000000000 0.00000000000000 13.64823290368023

PRIMCOORD
 96 1
Ni 6.491848426577065 1.3655402754829153 6.399805918637632 -0.7212718269458481 0.2595289528724111 -0.06525074157869408
Ni 0.2986485828356118 4.356091849245662 0.43189126590249505 -0.26117060224089217 0.1089875203450123 0.35250904204557354
Ni 4.697502562152786 7.498353542321368 11.855100013877914 -1.934589292713733 0.8920812656936636 1.055072493948641
Ni 1.430237848031523 5.904767845005618 3.3680560347682627 0.22324297395718326 1.3143921590237235 -0.5623064320208122
Ni 5.9238190327710845 4.402344365798141 3.1304132157507896 -0.14417589532068717 0.5432244756886966 -0.16196561520394043
Ni 0.26297912697575604 7.421328182094861 11.547019088201006 -0.4231794119779422 -0.21431044735424382 -2.425768726880732
Ni 5.636792327229697 -0.04044017913974445 0.47843565821466943 0.9910106304717256 -0.16186457084970185 -0.6695191198535889
Ni 1.002952251065574 4.718101717206098 11.712626410219237 -0.16117731497469015 0.7593146406511826 0.35816855432419603
Ni 1.5873192273312198 0.988936619537676 2.8066502624355136 -0.663135070704116 0.16563509363572765 0.8510796264703214
Ni 8.316706031759349 7.681386686452828 7.163002282086784 0.33209216895211835 0.5034767634771135 0.6706388352803289
Ni 3.2942608906171156 0.32570537250839726 7.701301378861996 2.119958374443278 2.462181204071495 0.700618926582187
Ni 9.022224761059228 0.28807671226796167 10.906575598167551 -0.43365357203638866 1.2030559359408766 -0.5653804429604457
Ni 0.22607782485852482 2.337570481208163 4.515231279029862 0.993524912253147 0.3420564792536819 0.7450925835145297
Ni 2.2059373111164726 1.0331842386992705 0.23217830798929723 -0.5657794781710772 0.8846379220417409 -0.6997696912080142
Ni 3.765001472892449 0.32469453121922615 2.0811366448308313 0.2230221161956288 0.17082512247709936 0.9276532492610025
Ni 4.275252521424406 3.2251245684961325 7.834617730251614 1.4517320052591838 -1.1109644200202544 0.7922250182259583
Ni 5.159971777052707 5.359827409059303 1.091329060566139 -2.664923229861849 -1.622433200563909 -0.3128855141166805
Ni 8.710001624121713 2.2642005618059655 7.07041239053412 -1.2698927910597677 -1.942379735292429 -1.1385299883433488
Ni 1.3692796422445168 8.877238041833838 7.41437538444536 -1.0382196840573603 -0.7493274475314836 -1.20884554603946
Ni 1.4689929808525108 3.7372313127526744 2.5499133601735138 0.21315396515229743 -0.9312198835663381 -0.033401715388897316
Ni 7.32527960941532 5.732710348451228 0.24254782379703027 1.657255707559733 -1.6376122222971925 -0.8673634512320094
Ni 7.530814229845395 1.2112098019055937 13.030636629881995 -0.6530643167316753 -0.64008898751793 -0.7952622623903852
Ni 7.5834357925279825 7.9692899517837175 12.929393974194442 -0.8388535167177747 0.1859815185025636 1.2489084754986168
Ni 3.147427800771284 8.651514570932772 10.034398607612452 0.583778228741343 0.5391791019747295 -0.2551313380253477
P 8.932032353781896 0.2890465230989007 8.222541130116824 -2.019981799347624 -0.2893892307669532 -0.5057293069567161
P 1.8747282621424965 1.0338836215100438 5.4105280002883 -2.183203655556169 0.7877811235219917 0.23165536639059456
P 3.4340069013137766 5.685115016902064 12.72177705800909 0.6948252027185453 -0.48573589455392463 -0.8198255535520462
P 4.306379719055892 1.6836009276143526 0.45190760194682866 0.2472442219677871 0.8621952767675086 -0.5018546544926583
P 6.629654815611848 9.18215962222688 11.31518953910668 -0.2282741086231875 0.44710352689370736 -0.16837383272312936
P 3.402404123370964 4.793718986706914 2.6799808452794855 -0.2172823854983742 0.20567745426959413 -0.38172602992916194
P 2.5756030895788404 7.946303570069634 3.1820444523733222 0.45052977896643703 0.4340731760723105 -0.6372515180691347
P 6.254188822372133 4.5322617167274 11.577631540083763 0.6736688803559043 -0.42453464045425593 1.7136322865772486
Ni 6.7955111179107135 4.544859932425465 9.476705159239287 1.3554634751427364 -1.5091784203021106 -1.0481030046093434
Ni 5.111667737588627 5.405296616863715 7.843516677135894 0.19079153829669723 -0.4024915446112875 -1.4153917760672527
Ni 3.319494622429818 6.024539482626592 4.778409963234292 1.0280090620729458 0.058872863076808286 -0.7574202518419472
Ni 4.645076826657215 4.789783792758295 10.221407043640347 0.5797989323786208 0.7526935357902392 -0.6300213188692827
Ni 0.9593667142981782 7.732450956743426 9.381044510892123 -0.5960560176674315 0.769924554956545 0.5585346236832058
Ni 2.976489316714131 2.8059611372392985 4.420512466201203 0.7597080194348594 -0.9808123497824849 0.008939211471158798
Ni 9.32001263678238 8.174535493985339 3.6412256355521935 0.7744738648901244 1.2906066265683516 0.024468931675641733
Ni 8.915713421530517 5.779513046148181 9.991325019062542 -0.5725651336343429 -0.3034266826966258 -0.8931233338049328
Ni 6.591524464768484 6.725302408813212 11.249187384488378 2.1726533908441485 -1.8117656378165767 -1.648458420983077
Ni 1.0902911764749512 6.38023625508178 7.592812184744418 0.8750919302245188 -1.3158237492639273 -0.6333161875704706
Ni 7.469389768851206 3.6275214625026937 4.668377464380941 -0.13569691131539857 -0.9700957346959295 0.15905924019042283
Ni 3.861217897446576 7.6436666401917845 0.9067871145842369 1.052519388509484 -0.5875605786019107 0.8199399676427234
Ni 4.754022018367417 2.104676005220634 10.165681153788341 1.0656726380619903 0.7799323169015342 -0.16624007420957823
Ni 1.452599447767983 8.31655683009305 1.3409583684498532 0.36571088544782826 -0.34046625194842656 1.279358564458358
Ni 7.097504615602651 2.2207828769131552 10.718298015465706 -0.037783646506676864 -0.5693579395509549 -1.0198584079413535
Ni 3.907209311083032 0.7381444711672492 11.855182074794378 0.2821829428265011 -0.2140361106469346 1.709881561285565
Ni 0.17280350488588198 6.600168836309643 5.328392482991076 0.14173926085473654 0.22427115811138149 0.5715204944199125
Ni 2.102866935016767 8.046809542529838 5.283340107341885 -0.8421537847356011 0.21783980066374095 -0.20023622864936483
Ni 0.9968629580597739 1.6955184107099306 8.850973886013263 -0.8016769076674773 1.1735139606177016 0.5526511683192352
Ni 0.932985994675807 2.17041798943333 11.440098376600387 1.4319347680275982 0.3226217675678379 2.2672674160763084
Ni 5.209478754951317 8.118211864957726 3.5323130817064947 -1.6664525435676525 0.7205051239831527 -1.1158091497070655
Ni 3.820103513277246 0.4277751649334902 5.225389247641204 1.8932590665063782 -0.13350735986324752 -0.9307655696377389
Ni 6.284122406673233 1.5006610345243283 2.3816707637242884 -0.41056789386151876 -0.3542278245088932 0.6504641601046669
Ni 3.4937341933538213 7.334380911059517 7.34509638823098 -0.28234003722965567 -1.1168149652637605 -0.19418770846243977
P 8.127163964935624 1.1874867369641613 3.460181536134573 0.22262488075721013 -1.8318112436135419 1.153030753062685
P 5.224231069706564 1.9447318189488383 4.527678428040799 0.3664037977497948 1.639300922853525 -1.1876545137841419
P 6.0620077510757575 7.169438468966727 1.0059661247248002 -0.018874725417315878 2.390786297268276 0.3749863972124832
P 8.191945463421526 4.86499075767679 2.5409873704872163 -0.22425264616862026 -0.010533552541472181 -0.6716171400331982
P 8.923975463801785 4.616915012143408 5.8381539635554915 0.2410764025941784 -1.4330729953970998 1.1672073016733833
P 0.3261968054967673 6.556452748084236 13.294101594783633 -0.1527322695311305 -1.6318915177633313 3.118210002748133
P 2.938405591391486 1.7446244091303642 9.381972358754414 0.7203955949884819 0.4894845629630796 -0.0651581818648878
P 0.03306588678295014 2.1614752145595744 13.79781667782131 1.0784168251015362 0.07776018689961446 -0.39152861784188053
Ni 9.033442861344032 0.07814903527581535 5.713423235550927 0.12455297888343711 1.0074075837725103 -0.733260366766292
Ni 8.46553469389192 2.8259541605232728 2.0859959566000845 -0.14703470492572096 0.9262442847286178 0.1739778091734681
Ni 7.2938167080346625 8.036691804533982 2.5619641922583454 -0.8627249240187336 1.2181678518816506 -0.5874075979638141
Ni 3.150066805243936 3.6107176248358455 0.394266335703717 0.09133458314993947 -0.10812851477882668 -0.6844775409356341
Ni 0.27221937267169366 9.054424345667233 13.149417008932499 0.6421630964381392 1.1600534642374216 0.16586649292024339
Ni 2.2506791607976804 5.798303130997625 0.7885074936262461 -0.8770374839866638 0.4019277016880175 1.3841161058824227
Ni 0.17873893367331192 3.967244331559818 8.108688136095822 0.40620164647302304 2.271279879669811 0.5751254381623515
Ni 3.1122628330455995 3.848517105602932 11.266780125965777 -1.1892542541710938 -1.613177486293596 2.435624022408257
Ni 5.115472380079234 4.041285658460358 5.550094968985403 -0.2105882613076502 0.1886842621457073 -0.2869860206420993
Ni 7.228345151842132 5.676228192653172 6.417398660115033 -1.650665455936725 -0.04904199302931554 0.47923331754871656
Ni 4.891222275632864 6.963409618017039 9.422972044142778 0.9149730826901726 1.9268176191881137 0.5324088731304315
Ni 7.510243050104514 6.162056793432923 4.094537598183056 -0.49261076729688713 0.41290631218670826 -0.25008503385069186
Ni 4.270627269769158 2.838682927679348 2.4326884084941685 0.1213990066354877 -0.6156622219341333 -0.18096169669046896
Ni 6.797562640822315 8.52598934405517 5.24025253113576 -0.1936917426626277 -0.8523194124146933 0.32885669273395624
Ni 8.56547183499936 0.5731600661058134 1.4112276907242887 0.24758617868823812 -1.314065371811924 0.9291681432436321
Ni 8.093257886269331 3.459613637292225 12.358201505062938 0.6188467903097019 1.07960004677636 -0.0006468895553795311
Ni 2.4845527727202925 4.309429028110864 9.046594055717815 -0.7190516793660778 0.8149378864424417 -0.4292708695876607
Ni 6.177266038291206 3.196468523462712 0.24289751520241695 -0.6521873134433608 0.008992947527229674 0.1409267922557702
Ni 2.3831329400540113 7.747688176914142 12.847613743365093 -0.4253087996161191 0.15546715196379032 -1.4900072466902985
Ni 7.867450489430973 8.28342473507068 9.57566782696372 -1.073691651711725 -1.1881065137198958 0.00041086228517348596
Ni 2.2813214530136974 2.906672261990662 6.78212026836044 -1.2195418494110417 -2.009212990866895 0.9851652274345422
Ni 9.133435953076336 6.719455568515147 1.884970956533876 -0.5300023205714678 -1.1786330270118217 -1.6387041698097908
Ni 5.8787135040282745 9.315667138251442 8.703668945897762 -0.7108519171641048 0.6597826092921154 0.25363007088947287
Ni 1.6165534288215464 4.461568102214429 5.281783747460311 -1.7406172998065248 0.7073045661324787 -1.255859195784837
P 6.2339626714845675 2.268657961586628 8.470584237785703 0.42926675582260265 0.4530188639368779 0.1104849308261452
P 3.145329652338964 4.938500553641142 6.618942135971629 1.5476405809330507 0.31762328591198197 2.209678819028562
P 7.096767932375304 6.506022584875405 8.578323693530132 -0.5093944145131292 -0.4213169048479067 0.049011654012012365
P 2.731434904923289 6.604010779216824 9.518468570657015 0.3180099798274394 -1.7097419503839069 -0.8626596179984368
P 9.228001834197038 3.4287195672643294 10.254531678579404 -1.5449010705147008 1.8395921731105414 -1.7526626610068332
P 5.056491096370681 8.832272389653184 6.7541011279400305 1.3320762065670477 -0.796253422659061 -0.1536079872678645
P 5.376929650058748 6.460422825612982 4.753980055398771 2.3568251098314827 -1.2177731875463929 0.7687197360151663
P 1.8030555116944424 0.17268321104242898 11.511451275976315 0.30829506653252065 -0.7291437734947572 0.4664485070792224
