# total energy = -340860.57033923664 ev
CRYSTAL
PRIMVEC
9.41162810851754 0.00000000000000 0.00000000000000
0.00000000000000 9.41162810851754 0.00000000000000
0.00000000000000 0.00000000000000 13.77486907876527
PRIMCOORD
 96 1
Ni 6.765332551423711 4.242950279876573 4.706624501924014 -0.6425878426803837 -1.6387157397740164 0.506218844998625
Ni 6.077935453709889 3.6909771020801108 2.3370306045473126 0.3084295352278559 0.5780022454895143 0.1102231925243263
Ni 1.390313970529717 1.659740654487897 9.48124237149352 -1.152942564224253 0.5592650740913271 -0.1190374483818466
Ni 8.361102368210705 6.804230811276269 10.757829048875319 -1.3635454808199228 0.32688285683703705 0.3878521974315578
Ni 4.656986632993848 5.151144178011638 10.74492194179528 0.4553860786174738 -0.3864494035467603 -0.04428390951903986
Ni 7.5199851451226225 7.670081793593124 4.180796827604542 -0.028718193870298926 1.4536605897404642 1.3074854046015612
Ni 1.6812462252024125 4.502259463389193 9.52762287586163 0.30863008127443625 -1.1749239535913505 -2.2404865484380383
Ni 8.963324229615395 1.836801618099356 0.6647630727635644 -0.8296589947027002 0.6223393768439928 0.38178079442649737
Ni 3.6634763241248303 1.3896175100339296 10.00822767609653 0.9041204562463848 1.0926116285446794 -0.06357721053101309
Ni 2.294310282433414 8.218356201459256 3.606151037181704 -1.1145554798056225 -0.5634253761166039 0.545048416271313
Ni 3.6909300439385033 2.464143115493999 5.315874026196331 0.33955428165711843 1.4829439120856136 0.3241150642839128
Ni 9.057647568652978 4.280643851303984 5.111936275587304 0.39748740652847675 1.7505546135248948 1.1233329688879363
Ni 5.77348810076759 4.152419827052536 13.197316521655612 0.31278524109339034 0.0008289236591985725 -1.4300894872887435
Ni 4.81090440256286 8.303522026140067 4.616923213555096 -0.9358638100962527 0.9839346974615506 2.2258351170734505
Ni 4.175892428086234 5.047653912988962 7.82320333940614 -0.5556747856369075 -2.270669756889638 -1.9488298617931472
Ni 7.608793269963835 5.67905182219015 3.045623630403875 -0.5460755719842467 -0.07960546763846936 -0.29027060493064205
Ni 4.259806506200292 6.249198854275334 12.86926856953444 -0.32852142088172454 0.640651030668987 0.7876384272965403
Ni 2.1646462790487826 0.11009440461583823 11.327818906767535 -0.5960655307491283 -1.209085172854092 0.8201248299600198
Ni 1.6487949307500493 3.6762008456154325 3.7687632689940713 1.8646133777452274 1.061958936655829 0.6212304600505301
Ni 1.2498360062037384 7.23198931848622 1.2399792078626826 1.1609374095042715 -0.08905915685220146 -1.5634940030255395
Ni 7.4197418918708475 9.377558226927421 11.450222780064998 -0.04668943363673895 -0.4239152617027022 0.25230209610666876
Ni 7.204017959114867 1.6857920416816734 2.2373144024815383 -0.08744321851533327 -1.2327933151043093 0.2271343385917895
Ni 1.034940296740046 8.760127174155267 8.068547548815392 2.894530198363847 -1.2435412976494324 -1.403115786913377
Ni 4.07876442380886 2.552235956582781 2.5390662650725746 -1.3647009345806045 0.5212104333114507 0.795724032518152
P 2.059094867423709 0.967985972861243 1.5083207310753992 0.5550101554697151 -1.643755873301085 -0.3387860360325262
P 5.034025875179501 7.642741013319309 0.8621550358750221 -1.1095752529822116 -1.4173360442778171 -1.696271426701298
P 3.092322247809251 0.4676421645477645 5.037386767653091 1.12331677093802 -1.7168531075073914 -0.35295332867184376
P 3.1229194514822884 3.5001657494910114 10.803299448784745 0.16393662288738217 -0.6793934415445073 0.6507994319568985
P 7.7981175852781455 6.508677447097741 13.365521143016585 0.7560755648885947 -0.01001264704099566 -0.2658438393468454
P 5.9836968193272 6.148475607979165 4.819840743654077 -1.126513423498447 0.7078177583234713 0.7109190229566144
P 0.15003641404924445 2.393819428676116 4.475330912435857 -1.0884713811240607 -1.8012374845917432 -0.23072796948031876
P 0.02556951182371828 0.9392174485710635 11.4555808200684 0.9053831250088924 0.038566290308972295 -0.1955020563984891
Ni 1.5462552401878398 1.922240380001489 6.100986413794788 -0.5764801524180329 -0.5360678100392574 0.030663233411811704
Ni 1.5695960784250385 6.606294856047831 10.228556718590195 -0.05292692990601852 1.717979507802351 0.7471409814031262
Ni 5.564992298562483 7.317813957149532 2.847789320761309 -0.2607674532652025 -1.2567313139771452 -1.1205572059150122
Ni 2.319279332370224 4.525176778351926 13.094266720838379 0.823062572432105 0.02510656525964063 0.6224072539674507
Ni 2.5103542105523236 6.621033465999223 7.23602126005913 -4.304136992318207 0.6534972905040358 3.2248218237721167
Ni 9.121110178424523 1.0216793124351213 7.315599401005494 -1.1274948135751097 0.8846965431938182 -0.03540691874438418
Ni 5.265570755143839 0.30017635601002485 0.6716768549285024 1.3485047844367164 1.3372225266546776 0.21419834725641174
Ni 7.716452886332914 2.978093314871799 6.947231091992396 -0.0010634082675078458 1.1802487082383737 -1.02584239343893
Ni 1.8130090217027277 1.2011872994101576 3.6010678167252883 -1.389039511325969 0.776190847581231 -0.13055804742693644
Ni 3.8839531291831433 6.186686818964256 5.846853625858966 3.3365028317888927 0.6651261329922158 -3.0825572865415296
Ni 3.946013406334792 4.704204772282569 1.2015298826810585 0.5746035042206104 0.1744642618915834 -0.4445488787926537
Ni 8.285724636984204 3.221214497671523 9.998448053107708 0.712759932820095 0.23052536655120945 0.4198812008426446
Ni 7.094890128727642 6.284577165135668 8.532222712025664 0.4272232430300126 -1.007183383576846 0.528167324245258
Ni 0.25821084648750664 5.953692548238413 12.418705686901614 1.6112303898695541 -0.5734313382893802 0.44294193931685
Ni 0.5725573500983082 5.7358039409685 3.0466570271935702 1.2019673308623882 -0.7700716220573706 2.6822714913323096
Ni 9.351779776954967 9.07868255795142 5.034521867992041 0.7456991067502771 0.37324421771039584 -0.5825988637212611
Ni 3.8162929331802316 8.480065350193847 9.831867878795018 -0.08737302739903018 -0.8442991132133782 -0.7791972385077226
Ni 1.7581109937037036 2.9500372508455532 1.613808143627887 -0.6255401431694776 1.9492715773162559 -1.188405018796921
Ni 0.2089165019910745 9.22182401309237 1.6115907639953533 -0.4804733606034048 1.5206812787353876 -0.33248760461832416
Ni 3.0896869918792444 3.059127434719493 7.570034302210436 1.294270448573184 -2.882476609633423 2.7507469104958884
Ni 1.5724289785497954 1.5698219575047534 13.16117116308708 -0.685073008427788 0.6714119660009276 -0.49310287644195716
Ni 8.256087419399954 6.317310808437676 6.2660644922273745 -2.752546425598472 1.409754118165501 -1.8143344269850172
Ni 6.4326691367737014 1.7684543732289784 12.65837468443303 0.6997884602610915 0.19245169960793954 0.9042682946781587
Ni 0.14796303233002878 5.218089090262119 7.507731205048093 1.5055421091011039 -1.1588995531386364 1.9157626469255327
P 8.577899226595331 3.148312024693563 12.849266977025692 -0.1032886701880221 0.9311756605919641 -0.7475011929560222
P 4.480048020550568 6.519397291755873 8.997345383671776 0.7069047595908987 3.328139804536178 2.069714390686061
P 8.33999208588569 8.450023432591774 6.813284797721504 -0.7139863490280284 0.009706171544170382 -0.006874615632646225
P 1.812284326321976 5.207435127002236 1.4350521457557346 1.6328798498185297 -1.0584439815240352 -0.8834598425732398
P 0.8874534928030825 6.506719828406879 5.534700972809894 1.0560993925512585 -0.7246219743650036 0.11702324616529523
P 2.852316313983927 0.8629747887018204 7.900893507711223 -0.40390333735714956 -0.46407743574388466 0.7376955197195101
P 2.065955944470047 7.411459658947971 12.482153238067845 0.055966745173606836 -0.11113850524974409 -0.30183182740568015
P 5.794193683074782 0.3185742070527974 10.044703382819145 -1.1323004624938693 0.8885048611963149 0.3249558150176533
Ni 9.011954113152333 9.298773486248555 9.565283506589916 -0.9896448604724504 0.6765683133908863 1.8292938765083269
Ni 8.735713410289422 3.674459694375964 2.8438496131459496 -0.45390100943151507 -1.8292506819752172 -0.40242186771561667
Ni 6.9316830820053585 0.5625254954704736 5.9315272223785644 0.09776362660473487 0.1169034327579793 -0.1075639005246083
Ni 3.944347548121895 0.2765381103178683 2.7332780389742135 0.33395956117816034 -0.9345664314410679 -0.13352664313695714
Ni 6.0562416504289445 4.228588135058039 8.701254615516094 1.1043543709029044 -1.3564734044644897 -0.1976155031970661
Ni 0.8943258638034061 3.8086977491248204 11.522898432800412 -1.0915057970750106 -1.604853539808933 0.35380847758328743
Ni 5.10627894580328 0.607547901871799 7.672629521379742 0.37336480244866016 1.145862260338704 0.6459359332170101
Ni 5.945664429280216 7.767934493251251 6.849691799557374 -0.5774754264517667 -1.2787235019775205 -1.7869647767228125
Ni 4.688270885534353 8.616402198058388 12.422603983352358 0.22563075746306946 0.1498526339904903 -0.8804405961309418
Ni 4.01092540686784 1.6264140786016386 12.643814895419744 -0.527739235568904 0.5034893618826038 -0.9323776513198652
Ni 2.1910553081187745 4.392312821338002 6.254644422422126 -1.5267580810570867 2.2050330927264348 -2.419216527584511
Ni 9.147585088892765 5.064152497436465 0.8892115849735296 -1.2525573851051137 -0.7864945435000842 -1.1350916520857612
Ni 5.512578940440323 1.7642379637409682 4.226460165894559 1.3629158176557237 0.1342259831968269 -0.33492912418028126
Ni 6.963466150846899 8.472065466120613 8.660922023507347 0.6749811714094246 2.046526639715688 0.8646925892680656
Ni 3.553604975100211 8.606425872037649 6.667036564071644 -0.501872137994155 -0.3768591887551639 0.40551207660516614
Ni 5.610751635461379 2.691650406908436 10.419573244676702 0.09393988198327047 -0.07190218545694069 1.2792048124893132
Ni 6.417949350078952 5.68898109006928 1.012902027862536 -0.8434087401886249 0.5597520410300747 -0.39824382507852707
Ni 5.847623497055659 7.481435115517959 10.682879546737443 0.4202357559685859 -1.1635848744294477 -0.5565569311315447
Ni 4.002163180900569 4.647942058176934 4.243086748487235 1.0466855554365264 -1.2220887842026116 -0.6825111612378826
Ni 2.9213129612084847 9.057233457006834 0.1259699392684619 -0.40574758965473995 -1.3793564797102502 -0.17280075814623144
Ni 7.058307129442161 1.712737533565988 8.735112948402515 -0.5552094159647148 -1.3435857498685442 0.05855841716018303
Ni 7.491712613644983 7.820244323461877 1.479613382369309 -0.3716596468320954 0.2735196107245483 -0.38061145670874447
Ni 9.307987470375254 8.32759697138634 12.722441520742812 0.2695007193731423 0.6322980307186014 0.2896810509757592
Ni 3.2804795212117 6.219608694832692 2.7760905950456625 -0.4544370844406431 1.021901663623627 0.33696492366338743
P 4.595152234921915 2.8314036758536627 0.5332939190668786 0.906885677696348 -1.189806527130138 -0.5113893334559708
P 6.374354687693991 -0.039702954074041355 3.4226007558426046 -0.12568940648072546 0.9400292543278521 0.15346991902810345
P 7.070024606702368 4.921443977198303 10.608068395535891 -1.0232728329395409 0.5087662940108271 -0.01776837972701456
P 5.470913661861259 2.8700666449981838 6.936004901730569 -0.15615877871417622 -0.4014355925429473 -0.4138141687129583
P 7.551250574406484 0.006121323060271779 0.0871403843026512 0.4524547639032917 2.0501382683263465 -0.735611640607288
P 0.270381023069975 3.0773577587781435 8.063960321171516 0.07058372375583329 0.2594775308091854 0.2877468100675238
P 9.224892203925164 7.1018735569421585 8.874542457333483 0.8924448196806695 -0.8816071056352172 -0.6468895553795311
P 9.16811185026185 7.575541987104148 2.7687627012345803 -0.03786746446973479 0.8238315893876457 1.983585005886145
