# total energy = -340858.5625109509 ev
CRYSTAL
PRIMVEC
9.38517366563814 0.00000000000000 0.00000000000000

0.00000000000000 9.38517366563814 0.00000000000000

0.00000000000000 0.00000000000000 13.73615032755729

PRIMCOORD
 96 1
Ni 0.48945276296090356 8.621464570238803 9.210198393126458 2.5304761317931517 0.2626443585729412 1.800311630343364
Ni 3.659053979297803 6.197687152604649 6.426938790439005 0.2521198048925335 0.9721888697795321 0.09791686435314749
Ni 5.334711046226179 4.534249581826447 5.866105211910216 1.035622355643829 1.1751332413886795 -0.3819286328582713
Ni 5.344387160305159 4.747996912717571 0.39103513901404247 0.143267781684121 -0.08402956484809398 -0.22900455903130884
Ni 1.0882672009137675 3.00574265325337 3.0013766704507114 0.5710612953953069 0.43729065456834365 -1.3518495325392332
Ni 6.952874539102349 3.753121575237286 8.291154320579967 -1.1970812064146803 0.8148563824722289 1.0347852044545147
Ni 5.992724344291532 1.8148673483381688 6.137298252467704 0.29198193119479393 -0.9097151767253429 0.1431104301706503
Ni 1.3765797368073043 6.184707457385223 12.310049937083566 -0.6928487957184648 -0.23832403666002178 1.8640752458535703
Ni 6.185111019854085 8.170797914604957 9.559385042636942 -0.40780807172819444 -0.1611408053097999 0.41589753360454823
Ni 8.733523544150549 0.745523473144523 2.2657095067201007 2.636518967687543 1.0108487482435753 -0.518221782996772
Ni 5.899088466341993 2.8218589450579903 10.351741471034146 -0.4551122561307968 1.0994535911671774 -0.583004326689796
Ni 1.394449107521539 7.795672522037748 2.7826551975015295 0.4953651901135727 0.18533565738844854 1.3918332720210222
Ni 8.068574602724997 4.321487694173243 2.789468833603701 -1.2803898339363498 -1.217661344558877 -0.7815729378287508
Ni 4.466469857405123 6.432372806008092 9.843202080330837 -0.2644880966498993 -0.29533542104805915 -0.6471767476026467
Ni 2.6898846325666192 5.040495236078833 10.720983298212303 0.49367777510882077 -0.5956173874681161 -0.3889914532423236
Ni 1.0713081920478944 1.5910684964202888 10.189133013086717 -1.2226292300871135 0.9428759797480278 0.23512481299643373
Ni 0.17594572828461297 5.892030815723767 2.2624950847297516 1.539730839167671 -0.33355949752626424 0.3711670234663931
Ni 2.272206862468769 8.945938180377059 0.9660759934814924 -1.5577735556019947 -1.6070603176522644 -0.887093325560769
Ni 0.8123055536021285 4.070424912672982 0.873864784898772 0.46962639058657185 1.7721791337732058 -1.0227619547413933
Ni 4.033175158279706 0.6524028412308102 1.93388542854435 0.23750385475157162 0.6616811118664088 1.737402392413653
Ni 2.6724469798423294 9.347229437204398 10.688812799822463 0.5525172138445323 -0.9855123263613158 -1.640745625719852
Ni 7.78854917520366 0.45436253703472046 9.92752786597548 -0.18142423814918432 2.021942779728737 2.139159887072393
Ni 4.982401010910181 9.374756151650223 13.446427415389829 -0.4204075056597599 -0.7595126155946016 -1.1401384704810493
Ni 6.978402211551255 4.0070468347143535 12.065546453478357 2.1490954010185503 -0.20713629820330778 1.1240965865268382
P 6.657372960158862 1.0181224127214403 8.007626346235861 1.7571086125933288 -0.03088897626937261 -0.4506475354912239
P 2.4586902637775117 4.405560080128135 13.1117737073452 0.16860291801479993 -1.1575034441220582 -1.0442316945793952
P 2.66038703164496 1.8658288414990383 3.79837500575719 1.2600953453533716 -0.6914321178765962 0.7584918876395712
P 3.64987527942463 7.808877461425841 2.0781693348533627 0.729685247820524 -0.2220492107593982 2.003503856297259
P 0.196607188172947 4.383457996077703 6.703557399909256 0.113201815536676 0.5457027620258602 0.8947737249241622
P 4.460275642766785 4.672605812430046 8.310123633651191 1.2456791699280418 4.389821833381537 1.191960083138031
P 6.230535260535227 5.229690952585272 3.635451205973628 1.0344095662826507 1.792538157045532 -0.11257832302006418
P 4.57106761822978 7.189700012108126 13.461647351570118 -0.6039073953910502 -1.3397789745279443 0.6336576300702894
Ni 3.5723725150558527 8.405971597040512 8.457801218768118 -0.6001389294875534 -1.3483191507884715 -1.0011826859087207
Ni 7.914929924173138 7.071794074984738 1.204135616828091 -1.1153952020980984 -0.829804519141629 -0.4557213504697054
Ni 7.736386379809901 7.150958015097433 3.7510540214723984 0.6127157377112996 -1.3727199482303392 0.37648252214203554
Ni 4.774228473193562 0.85698836556141 8.778774159118345 -0.018442265865587594 0.05301897539919255 -2.1522892253654997
Ni 8.065280406758244 2.7844684130592974 6.655494986902602 0.9235957913621772 1.3959971735907248 0.45722364604684484
Ni 6.0610671791345245 6.99559584975949 11.989983604512224 -0.6585448802302722 -0.4454119981238974 0.3767311478177318
Ni 5.6038684426093415 -0.02819024622602266 4.280925911983195 -0.3129083969348159 1.5772746017493997 -0.08918436957615608
Ni 0.18697049182348463 3.9181223139594303 9.089210364961811 -0.6847770744539238 -2.5838193233009825 -1.1614017507352
Ni 5.738207818871714 6.759680738602073 1.7811529888755924 -1.4837324694251801 0.2636141786853783 0.5035145586935844
Ni 8.950245975102813 2.674211392496886 4.508973432032553 -2.618575495835245 -0.8906890133318273 -0.07265269046972005
Ni 4.169635583797024 5.2511736151718695 3.310535554154363 -0.5527401284886159 0.40276768109080957 0.40900363469819234
Ni 7.805404947158895 9.049710045916605 13.737523593801138 0.44190964139759376 -1.0436022885255123 0.010791948409181414
Ni 1.6655680052068413 6.65825516648614 5.037486349392392 -0.13464661567401326 1.0062228194357896 0.6393271696512409
Ni 0.7598865429665109 3.5466102132645845 11.830946205155533 -0.5617073649842326 -0.0900793705865997 0.3520372446154776
Ni 4.634858643830963 2.751488912696996 4.541309109479414 -2.9483552146041028 -1.3890906762788786 -1.060546886799651
Ni 8.119601792101728 8.775400189175189 7.95328619054499 -0.3215020521410979 -0.9488998173446045 -0.8654394947364192
Ni 0.1637825431766044 4.979219437027762 4.5731905445194645 -0.8564799715502862 -0.2442180335469536 0.6107339313945804
Ni 2.276111094725661 4.753102447207352 7.736254987378178 -0.5095671926455676 -1.1960633066731272 -0.21106828626786228
Ni 2.5441798109602667 1.6130204176916099 8.064740759270812 -0.6475513573332461 0.5335969799012616 2.8377872371458484
Ni 5.954827012913339 6.518866566776153 7.712848364184217 -1.2081382355597903 -1.372080000653495 0.8373262814399709
Ni 6.816151328721586 8.041122969668727 6.3242471583916915 -0.9570121620390938 1.3459246824143658 -2.0960962231136997
Ni 3.3369923587990202 3.9290372709660764 1.7026507035083565 -1.758078946926398 -1.754078053297121 -0.9054409748300213
Ni 5.307756827375716 7.000569991817549 4.459949038722217 0.33851761286248794 0.0671862680385101 1.1833635997182717
Ni 3.3299440933544875 1.1651411586450162 6.13661125775327 1.7641660336607425 -1.5766053435965168 -3.020848239567507
P 2.0153346584516436 5.051982688680841 3.498199610313867 0.11853582615507972 0.5020174053227676 -1.485953645446215
P 7.698432737389541 4.9525655437355205 0.35602750261637056 -0.398905627032242 0.4352970211770826 -0.032254746268647674
P 8.24905149286929 7.224565932383013 9.877391329582352 0.05836558442308658 -0.030729053652740625 0.7226609939838909
P 1.589698261060899 0.6619212843917225 12.31535162170356 -0.4508840769820622 0.7118356212336127 0.6620539218247953
P 0.4928436262167087 7.570221879549645 0.8492390276419018 1.138818466118045 0.5503284337233296 -1.4566628669018977
P 9.110807526667482 7.876844889321055 5.619665566971841 0.01280332241225537 0.09789218176279915 0.21156450917799047
P 4.968754968358448 2.0584407612302575 0.2978807204750295 -0.5255669105079336 1.2916422669217174 0.49357235987920806
P 6.705265501521646 -0.4160550735660795 11.885753742496389 0.24574604015570578 1.9302379577235724 -0.8180162682574492
Ni 6.6311038589880935 5.65014673409668 10.231041567701919 1.1446949795034802 -0.7496058980038509 -1.0467138375713005
Ni 1.34544911566281 6.895202646749946 7.973313212691579 0.2837099209939888 -1.5105452187426502 -0.10083120978646505
Ni 7.47840672529683 5.854837372372658 5.895404785666922 0.8051280994408715 -0.5414159617250482 -0.11578551710345221
Ni 0.4635478065294797 5.542123384873548 10.433842031995834 -1.4574717359564382 2.244243444377309 -1.300669153010676
Ni 6.391002960362952 0.6435066350858399 1.5805092374966618 -0.7754961355070515 0.9233690200633518 -0.4807602957162043
Ni 2.667679311605548 7.9235736691457275 12.58267046255998 1.0182432409354334 0.8090436324451937 0.13273217226011977
Ni 4.2517464684497766 3.0628232796630215 7.247399121464242 -0.5493269890420087 -2.228028010959711 -0.512349126266079
Ni 2.7679880480518415 5.966821264894847 0.6840806180016907 0.5401221826142892 2.2662222626412456 0.9242018003772923
Ni 3.3211595707764814 8.378961067147882 4.292285726222958 -0.9301492762099788 0.3767825698809576 -0.7310397049658894
Ni 8.290074087087735 5.817756551105881 8.257006366092707 0.4567626472500263 0.06597836377333799 -0.6690159549649253
Ni 9.396623606358293 8.646372821223876 11.555083102167687 -0.34228556454535247 -0.22794757852170422 0.881734632352017
Ni 1.3728444376769127 2.4147207250190084 5.927629718064189 -2.0134835932177904 -1.1385305025639811 1.6110373000221416
Ni 5.432391934038026 3.120701645836701 2.2792804678822773 0.9269531378701842 -0.2787268659571006 0.3117992230310372
Ni 2.7154029198418317 3.9368551206535547 5.242140385490961 1.0665501555709371 1.8579130829069166 -0.3259096942904903
Ni 1.152780884889424 0.4236533101891071 4.369125897328907 -0.30972691388304074 -0.19506625441265116 0.20579881033880687
Ni 8.520048383296563 0.7434915830396744 6.056763138478249 0.760920808796038 -1.7724380438615475 -0.7482954067225436
Ni 4.929571868184116 4.726852116383973 11.674917692485284 -1.4741106300647 0.5416396477000801 -0.39295943675113615
Ni 4.814199927958229 0.9409762849530526 10.91033574711944 0.5707723033999783 -1.712780480099915 3.493108725342817
Ni 3.2415639126738416 2.84947951124076 11.796537342839567 0.07937946767059231 -0.9542127449170857 0.1700627903897781
Ni 1.5800503025030033 8.954610080870733 7.02561526633856 -0.5416913268736219 0.3785553455106642 -1.6173814970726148
Ni 8.306967399737747 6.180953387907443 12.266739237518411 0.15801280120377947 0.15320792361596838 0.38484503517411783
Ni 8.221562319118243 1.523842497246936 12.58473144670328 1.0452706773668707 1.1820441095758998 -1.7394268790428493
Ni 7.2558936421750895 2.7756369646128185 0.6717362990413793 -0.33147793240688717 0.6616872825139959 -0.09189482652878367
Ni 2.40717504536867 1.5935837229704017 0.3533874532561215 -0.2522131359372882 2.838597905972602 -0.9854033115872772
P 4.510467551684709 8.67400277258034 6.052408417884024 0.392949152338491 -1.2301857022781328 1.4348632545283029
P 3.8281935796192 2.5409419260356807 9.69867040543629 -1.714905753973034 0.48176405439037034 0.06373533337543218
P 7.967928000025704 2.718171546081695 10.484597989852794 2.3915617419817203 0.4471240957189977 0.04246331137053332
P 2.3604462655439984 7.1637218513218865 9.994629042338696 -0.2701524940245283 0.03512538294822337 0.07701173876936414
P 7.29829585692662 9.055312994612192 3.0986830898321496 -0.4981250122468969 -1.4699703826440815 1.437968632926504
P 0.46760220156548254 1.1748829689398563 8.065194063160254 -0.9140243456236581 0.23729945205024938 -0.7503008671883464
P -0.02422219478800875 2.2635537323224852 0.8399599064101979 -0.2194878777901252 -2.174007847989514 -0.5935265663773585
P 6.593065750004483 3.233595900207253 4.358645473864313 3.198097006182763 -1.6140156659241753 0.5741643598006628
