# total energy = -381177.3730959789 ev
CRYSTAL
PRIMVEC
9.13189464397930 0.00000000000000 0.00000000000000
0.00000000000000 9.13189464397930 0.00000000000000
0.00000000000000 0.00000000000000 13.36545087752020
PRIMCOORD
 96 1
Ni 5.434472702533426 5.3192555875379135 7.160967884985119 0.7606688406862319 -1.15226070766588 -0.30776284817813443
Ni 4.77629139451238 5.490305106518727 4.621292093595772 -0.4597829221335888 1.3057241989360802 0.08623402869858052
Ni 1.6535669584629749 1.126364415630217 9.201177437209445 0.7603137713396583 -0.02952526315262657 0.012039704773353458
Ni 6.650603642726208 4.283388248043507 12.643302673839736 0.12966895995376376 0.07890792735081249 -0.34648649000057746
Ni 0.7395528818175514 -0.014333421867080592 3.0245748321838453 0.03327855954747172 0.9920976928883173 -0.06959744858316401
Ni 3.040464328901939 3.8302088433698698 5.081103080175549 1.1091530778431287 -0.8642809556519438 0.4737581533667583
Ni 4.847584096166494 0.8477786182571023 2.414963332320573 0.28183532967909525 -2.0382965384964122 -0.6160026359926876
Ni 4.801130148002733 8.16790446898953 7.61222593902112 0.9132234469889176 1.1281535302050312 -1.6531882223585785
Ni 8.864649768183282 0.5097916724633798 11.059028532099115 -1.1066637357623716 -0.8184824092605903 -0.519013425660132
Ni 8.203975452918536 7.454045999192495 3.7052370384925943 -0.24890952548535197 0.02946998443465892 0.6281073896760215
Ni -0.08380065777754744 4.366104949924251 12.466650737481594 0.7093056557229075 0.5187851116994097 0.8728537849226192
Ni 3.047158007691803 2.6126624595039236 10.415949551475991 -0.5229963215672799 1.168632207045368 0.8004258088691958
Ni 7.5626424905554686 7.981148091183932 6.135891705417018 0.45391772160206345 0.982791584996043 -0.34310060424748007
Ni 2.2297803799658538 6.053870853909791 4.725863245790162 0.6967154777627227 0.48679416061511005 1.042356074823237
Ni -0.002038238889355497 6.160668362023646 8.926797790519293 0.35658192656336657 -0.20155674723300127 -0.75245108076213
Ni 2.0420651532203715 8.096255623443458 12.692847768347793 -0.8730275914963223 -2.4431128745861344 1.9834055428854873
Ni 4.567125347197471 6.852245008836686 2.333286753242237 -0.015235071782199568 1.5318203260713426 2.8159071492433054
Ni 2.77230624204744 8.48358493568366 1.6580644165857688 1.6293497251780842 0.40936153225824334 -0.9064758438524387
Ni 3.2391652249301033 0.4048013663038409 6.601864894517121 -0.3954773180769834 0.20236304518438053 -1.3037891866968965
Ni 6.219112487883302 0.19434041632535398 0.2892198887111725 -0.4853273462615964 1.0846813179540093 -1.0519100370602594
Ni 6.111657483353525 8.281633085154553 11.168264256088678 0.259434850496708 -0.2001709226290682 -0.12635635064076303
Ni 1.717946815855252 1.4742165472311561 4.951137955295139 0.3423611549782942 -0.6909670053147197 0.3374976562384059
Ni 8.834130976210943 9.036776850734634 8.501375692871125 -0.8451763736120089 -1.5568680130685897 0.27805297981852756
Ni 7.590987891597401 0.6112241924612122 4.536916126454295 0.3136249633858663 -1.0757223089885086 0.11744259309090098
P 7.1116638724962336 4.783761284348817 8.544345823219972 0.2944298785146542 0.9437354995348456 -0.04145389626941248
Ni 2.5188505056045107 5.274244478731314 12.23990579293546 -1.3959894602812408 1.369314522093216 -0.2792482856782094
P 4.1438711613429104 2.563770295464456 6.6438725231682145 -1.047952337964092 0.8525726660760802 -0.2077633902643454
Ni 9.18330723253839 5.106327199620789 3.551213937115737 -0.7358810922185907 0.5418160253769443 0.34799444200467167
P 3.7195759394964742 6.237504123739763 6.532724580435682 -1.7687266564482311 1.2845748185519748 -0.49697752890601504
P 5.87458436594063 2.15794889652647 12.41191963999296 0.29980631233521915 0.07510603710621903 0.3496188649819721
P 4.078495927432085 8.742218456401968 9.522469453175571 -0.26251863162835437 0.04800275313152377 0.20709901720746915
Ni 8.344734477293649 7.654354108681799 1.3611509066188527 2.81580456222717 1.5277369000305885 1.1857565254304805
Ni 6.7239418887854105 5.527334939387619 3.104727298042497 -0.6558953584225673 0.7484368173964143 0.2446083270068368
Ni 5.652167939465978 3.446349651102583 5.300550727694424 0.07264086339517811 -0.2163498463817758 0.20865402039941486
Ni 4.229555728989965 3.662802950360618 12.720821501276836 0.9416801596677138 -0.7872828437293344 -0.14514468699185973
Ni 4.09718891581251 1.5621932204392692 8.497647140279174 0.5743548785449141 -0.17524870546609173 1.385760326354065
Ni 8.059189262995902 4.220405570535062 10.356620545023242 0.7243422383410556 -0.3388261452418423 0.39566886526249917
Ni 7.849676203683703 1.019557775621696 1.8638525760638829 1.1167018367246637 -0.5330899583578561 0.35885143932383357
Ni 1.9216519901601494 7.675604027568585 7.612572951018412 0.787893737840456 -1.9067267619755097 0.7769719487216297
Ni 6.29287080109712 2.977399464341504 7.815273616910097 -0.19457260260568426 -0.6072611423546316 -0.962317119191775
Ni 8.464417088780626 1.7333431902614052 6.862450814314928 -0.5136845572480508 -0.4391809296125211 -1.1019231357535926
Ni 1.2906563325585088 0.8712137995373577 0.7551866854850094 -1.3179389958347172 0.6379050924927336 0.6525074157869407
Ni 2.25873761795038 4.738759307436882 2.8331410979305423 -1.6414876460921988 -0.5511337032334443 3.395295733557385
Ni 5.924298400500001 2.5510495661953145 1.2638533085255907 -0.4935080823001758 0.43008950883421415 -2.6170845131120153
Ni 3.871055808208969 4.034060127989416 8.65890087585223 -0.8281405011756447 0.0015051237906167627 -1.1273138079125553
Ni 4.2348248322119995 1.581087110502336 4.514181361494888 -0.4385633506331802 1.3819715487355944 0.15011771472641888
Ni 0.6741255961071333 3.171525281142217 1.4166043369755337 1.9602707566402369 -0.018057628832659225 -0.2617251891927815
Ni 7.817486274987565 3.7366069230477645 2.1225408881501844 -1.0086555972469984 -0.6526922781042371 -0.037724511133967284
Ni 5.659089915622481 3.5947794669967776 9.992492637559854 -0.5603413378746415 0.6147798193291799 1.4429558017284505
Ni 8.648981811866486 2.1281058647593833 9.228216064124737 -0.443643593369565 0.21360262265394184 -1.2727559715401757
Ni 1.6981762639042903 2.5104400306175196 7.174146122177005 1.1128742354484575 -0.25851413845465154 -0.013457153946170372
Ni 1.9928899004462706 3.0788548140760006 12.664660349083574 -0.5569428537160538 -0.7097280879723068 0.9089451313285379
Ni 7.163003384306075 5.653382481456498 5.628057911169936 0.32160823870165905 0.075837773065921 -0.6850822643991685
Ni 3.0509203482940177 5.829874609657994 1.1298527993924652 -0.17618407279616755 1.2636794631602042 -2.4193440543013107
Ni 0.5186861378676462 6.412169873008144 11.239301264692157 1.491500029185741 -0.7602600352835874 -0.6058061550756599
Ni 3.6025963688305067 1.1910182298624614 0.11975384026536792 0.8297988627146741 0.16484010853825803 0.6829551907538367
P 7.718870944494061 3.677824917085483 4.916961839509239 1.4974981557507048 -0.40947466079733996 -1.0589003523351634
Ni 4.4710943428943235 3.5909897307105654 2.983342501389858 0.41813619312707984 -0.30891547372533895 0.5199678191536012
P 6.063313232993991 8.218568220594118 3.3339049793275386 0.7395459426646876 0.10789120195704 -0.4081297167336713
Ni 0.8642132890867308 6.187452209077766 0.49110325003028826 -0.6240527599906737 -0.45778157543284387 -0.4114011883960915
P 4.081144176885101 5.027692454655556 10.862756720051994 1.0124392326591467 -0.09834880968424353 -1.435279001909483
P 1.0891245491840176 0.3147033539649155 6.941894645147531 -0.5064975525813084 1.4398730490380687 -1.0314111457759592
P 3.02609072669833 3.6915136271891735 1.3629151886682411 0.7887098059838482 -2.7198304234226898 -2.7412412849982983
Ni 5.1934820023090005 7.999950662300343 5.281477852495912 -0.3194482549358627 -0.7483370585937563 -0.2760817150247697
Ni 1.5128809892451847 6.977598526910982 2.6252553422477467 -0.9216445811730772 -0.5705527311900045 1.1070326890660158
Ni 1.1669374236293502 3.741200266064547 9.189616458562833 0.8096483559087282 0.27910404679086126 0.40011096019425285
Ni 4.463450947059241 0.9652321342562128 11.231723618498666 0.06967432456768646 -0.20090908634667337 -0.10335089088452523
Ni 6.423411235341462 5.8812689128358295 10.4478262561851 -0.39168776912756414 0.9188544200224498 0.448294461878015
Ni 1.5643574794750095 8.14163200803668 10.18425968596845 -0.36693730165576166 0.16173858679479888 -1.0001365040323937
Ni 4.463195254008605 6.5442444655563 8.955427193485326 -0.35003666924568105 -1.659693113356632 1.734412970768026
Ni 3.228700073643359 8.780672864838689 3.9728271214988946 -0.696632174020297 -1.2551089478823738 -0.1144562567690674
Ni 2.328112621724724 5.70408276063975 9.613487960496787 -0.16108732636404516 0.6637953299959343 0.8077143721108089
Ni 4.979220357770703 6.098744984296407 12.65003835934506 -0.30947134622880895 0.9196218943160935 -1.8384230925031049
Ni 0.8025136427787988 3.7143159681691054 5.332614636244178 -0.6246394857320791 0.5620148689223224 0.012311470377501379
Ni 6.332740653207004 7.152839585543294 0.9380209145317436 -2.0093135210005006 -1.066395118050312 -0.18611367320505368
Ni 3.4689967498732 7.444384454636321 11.136294406053981 2.153324351498233 -0.818851362564235 -0.43426729436098754
Ni 8.846376846957474 4.108174585095192 7.341936467951677 -1.4368957115772996 0.23387705663226172 0.15660795043645287
Ni 5.610435180844317 1.0607517524580878 6.184955549076199 2.106405061238876 -0.8593246400879329 1.1687371080543485
Ni 2.735979565067798 1.7782081887533567 2.6912405867222313 -1.4131973395190953 0.5418689901020668 -0.7836074517602762
Ni 0.33051431638888557 6.2937200673010185 6.0734478096938425 -1.0376381005222775 -1.244106169013967 0.8297286715983709
Ni 8.009904427485816 6.831963070784452 12.503753625507809 -2.2755975332085585 0.6458652278800748 0.017905933746143354
Ni 6.875576999707221 1.7745645627817936 10.516284417735022 -0.8560343993724354 -0.6093753604841569 1.6574472547452488
Ni 1.8111012733387442 0.8620873840085859 11.856451143601857 0.6380773564045399 2.5894243281925857 -2.045620840071967
Ni 1.1057537293700228 8.135513638610748 5.170865951980248 0.14865270014511817 1.3046214527902047 -0.3237602520476553
Ni 6.980438546151975 6.988328503143028 8.067239028143604 -0.5591025803715338 0.001005044225746656 0.747898428394441
Ni 8.144061092017722 2.2644541840110275 13.205506855736163 -0.5387548699531174 -0.46668299168753175 -0.7479809608059182
Ni 1.9461528635478769 4.93104048151515 7.398566086341283 0.6478640034776584 1.539797430739548 -1.7752266623502784
Ni 6.484905414019418 2.140580032872554 3.338475492607657 0.06054587990385701 1.4639683994243755 2.8063665567427214
P 7.829649958682105 5.461073911694235 0.9044748994777678 0.1566190061800464 0.08099386334556374 -0.1639880449506079
Ni 6.484394027918146 0.6864664385581862 8.531755680044549 0.40982638770980384 -0.9681452958377779 -0.29416119823429987
P 8.65047944259164 9.21189006284163 13.16448821127735 -0.40013924232902703 -0.6638997167842824 0.4190178244010848
Ni 5.199362942473629 4.965056789144402 1.1761140645787824 1.2645716359571706 -1.580688255416639 1.2387055668236862
P 4.244723806029478 8.096995306911369 -0.12227698276146524 0.15309428085623958 0.5025948750927924 0.5320831143598965
P 0.5901797412044033 2.8275450728794804 11.000567968829062 0.27727650666381926 -1.107272572990964 0.8411986199111835
P 7.87160188277574 7.681046636789264 9.978044153819988 0.2973336824250105 0.0496945390116499 0.7986275793181923
Ni 0.02589531370316032 2.2366384328596975 3.6763409842023274 -0.9503519764100988 0.7375960180271683 -0.9412183895399466
