# total energy = -340866.6853529849 ev
CRYSTAL
PRIMVEC
9.29112203015485 0.00000000000000 0.00000000000000

0.00000000000000 9.29112203015485 0.00000000000000

0.00000000000000 0.00000000000000 13.59849625213480

PRIMCOORD
 96 1
Ni -0.09033572069823845 0.8989123342315269 7.829973185465446 -0.051074707188628166 0.1741621572701323 -1.1097909685374436
Ni 3.832690015319768 7.440906523823655 1.341372286503236 2.2839209654725887 1.0151710297680128 -0.3422575395208944
Ni 7.851769228496877 3.3975774823026117 12.815576227456 0.08429361714275806 -0.016274568790307455 -0.6498211272040293
Ni 0.8022948859687928 5.327696578284289 9.688371323617496 0.44018828783111286 0.7140840509481573 -1.059230996201705
Ni 1.6931490301149965 7.423086151883553 2.4553174185160564 -1.7740994907243706 -0.39827699230930763 -0.39607175712787274
Ni 6.782658405554423 7.463734810506049 12.218112487344502 0.38260020500399916 0.5295243524937848 -0.45352485703901885
Ni 7.536967433880335 0.6842632597876298 0.19042804857807274 0.9028732141028449 -0.41492745638179507 -0.6662687312370913
Ni 6.735756821845542 3.0003169801947234 1.1404619941176435 -0.12017079065534143 -3.1069349440549456 -0.3280483379000479
Ni 5.04298872773135 7.459572387863105 5.580822976146092 -1.2961725506919033 -2.3157969882455793 -2.9003545183551083
Ni 4.993894439237348 3.3913988861919924 4.482662531249559 -0.6165410249946608 1.2698480538647614 0.16751688403947282
Ni 4.072791189290628 2.622103278127089 10.397233757935163 -0.19419130800686554 0.547741903943076 -0.07315636957901595
Ni 5.563821152051624 3.8390544338698045 8.495103237778492 -0.17445757702336406 -0.19492895750383848 0.8842445432580642
Ni 6.9571549672890685 8.520525605715148 4.201594942284801 0.4480054698826865 -0.7003150221885229 -0.9840061741294345
Ni 6.621810501994964 4.185669030114557 6.321369994608774 -0.7654030129371077 -1.5613021375805434 -0.8871267499018657
Ni 4.475152517360517 2.9619074819672044 0.38791642074179894 0.25875325104865116 0.7013971995091082 0.6950280627579707
Ni 5.7327523317257265 1.2624497800339969 4.282900621539565 -0.8480135859504879 -1.3099264099428858 -0.48181213401948636
Ni 8.854829465348518 8.982907581716766 5.617239528710863 -0.837834588534957 2.918476938987432 0.7492608559596063
Ni 8.52824652807293 3.8738682678946015 2.1130157610901747 -0.415349117300246 1.8971519738028808 0.9135993422710975
Ni 1.9849367156097282 7.007921657737826 0.03619914031065195 -0.9949169075046672 -1.3566238139994249 -0.6790196031448564
Ni 8.206179076075179 6.244525912124415 2.5975979439289563 1.5937515163585003 0.7230510303334581 0.0001905187442512848
Ni 2.0830974192318217 1.0178052474193884 9.582275072720094 -0.12098608746778519 -1.1662379957815787 -0.461920794412198
Ni 3.432753670084273 3.386613958377002 2.5528593334148906 -0.49259559778823553 -1.1890637354268425 0.28263417143130676
Ni 3.769733372845248 5.533847992573642 4.330441434440041 0.5343531413409959 1.4787987795689885 -1.799537985402133
Ni 5.7205716708219345 2.0296734678994 12.374455125860294 -0.2674687765447781 0.17307843728765032 0.09540283968204216
P 0.7768502193394066 5.036336284400217 1.0414037681131654 -0.2858706760907334 1.0369811836645688 0.050143710733926546
P 7.289303286625199 7.0864130561476175 5.765843591737127 1.2037557902213785 -0.4215560174419063 1.203881002945333
P 8.99139037607616 8.80166566543128 12.098881377316902 -1.1434284540862307 -0.33940052968807355 -1.2608463645867833
P 5.3779615481466205 8.11587866164043 10.354424913454444 -0.6119634329263074 0.05548826287529154 0.9409260551105085
P 0.5514838357021271 1.476935330731207 4.827044470884716 -0.6062491561503495 0.09230491748300877 -0.1453974264326141
P 5.242041724834968 6.8281756120896455 3.0613345655139255 -0.6127476193904995 0.7005045124915097 -0.5278986439649037
P 7.119573070461602 3.4853414204393176 4.025072915960509 0.26581092922638094 1.4875415587586251 -1.248605085325585
P 1.226567466982551 2.4533765031363446 10.73685585578465 1.304058124087567 2.466959599296745 -0.5843875801905678
Ni 3.9707653789286583 8.682042470056508 3.614153535443265 1.2193641861825968 -0.23267815122815413 -0.6897832694192636
Ni 2.7311438855770547 5.488061343501264 1.730136986680974 0.974266321133851 -1.1287975915469335 0.19221155857267544
Ni 2.07320237433286 8.503773712801696 11.904355014837485 -1.932671763976046 0.31559905639310165 0.20151818068558197
Ni 5.3664219746588175 4.4246366872049725 1.9234397083968298 -0.16135137865870922 3.511677232373623 1.4265279951897303
Ni 5.074429884480726 2.0946648660855374 6.615368967132569 1.3376020214812834 0.27626734867301456 -0.607387897740483
Ni 9.4292809545626 7.453486702972195 7.338007347996426 -0.2674214682466104 0.03704214035496201 0.46288547231831245
Ni 8.148360424050543 3.387450159354379 8.445590848795801 -0.24961555041344105 1.5980444873068995 -3.395107528805979
Ni 2.8499959178282444 7.422324279881943 9.933021430905287 0.08860278604107322 1.7742077341674607 -1.088187531335055
Ni 1.2505571439113012 2.5745420247582773 6.648358953914488 0.1439450102568037 0.14114585024511175 -0.7212738838283772
Ni 0.8264295044002882 4.106768822338048 12.096120984979361 0.9952881748011569 0.7864837448668068 0.31237489302884913
Ni 3.3187794768677823 4.501474265903951 12.529069615689505 1.1301713319660085 -0.8934133542415259 0.3313246946584746
Ni 5.680452606151778 4.647707234603254 11.434322729005062 -2.24280491215857 -2.6848695910767892 1.1474931110739077
Ni 2.626163498428353 7.84702146516977 5.9238038145880445 -0.11179207967334295 -0.7447429134845949 -0.025233577755808156
Ni 0.9655333952113526 2.869655931918576 3.0984033548410497 1.3469677789668995 -1.3343367204664505 0.044521993671774944
Ni 3.1421366659578687 1.7935024385222118 12.709766143115303 -1.3493288229999083 0.6700809058943298 -1.3339939924150508
Ni 2.7046548968381443 1.5564208791918799 4.404893053016903 0.25039279489909777 0.4971467074940277 -0.2876827895988078
Ni 2.2640420196142417 6.3173404350100135 7.72563202750834 0.4172777017815265 -0.7150559279431233 0.7264816532815617
Ni 6.588501829729445 7.099420626906815 1.013818426981694 -2.3745320401929426 0.46711982211463426 0.9546187221062525
Ni 6.685566180958977 5.699908215558751 4.1703191675065066 -0.7422905952893603 -0.7535497131429474 0.9873077276988417
Ni 8.798803999864255 4.549063392638676 5.392415746596681 0.4738116323125131 0.197885211918685 0.23243286798656745
Ni 1.1591789593279327 5.223487354259169 3.6241489244595115 -0.46504597030474104 0.6181893592313612 -0.6640092457789533
Ni 7.255539349383108 5.890004571082464 7.630483505629198 -0.03463224536188874 0.8447919936893967 -0.20017246529096494
Ni 4.242883759211089 6.912111607974359 12.166125872580972 0.15354628079199362 1.004680157539018 -0.5488914441664869
Ni 3.8232966910072324 0.29572619209817763 11.112418800754 2.1482140268548617 -0.5341587659420027 -0.2332095982515919
P 6.54720279256899 2.5514721689046422 10.51923919698326 -0.40659579658764816 0.5235948743832273 -1.0647907496776694
P 8.97371866208759 2.0860519960185537 0.9429634017197494 0.8101263239864112 0.16647995813452618 -0.09843751274330789
P 7.147595094325704 1.8119081511464774 7.276160994597422 -0.41601143347459324 -0.49455554972808374 1.2447774840493788
P 4.966206895764196 1.9148537825835616 2.2840578836760566 0.7198561775452441 -0.3598796234780318 0.06546311469981629
P 2.497230598838785 3.7677450727434847 4.3788379596740326 0.15118317987645577 0.5047139783183243 2.1423603962875624
P 8.340222092748718 8.405445768984126 2.023891602696936 -0.35700667280561094 0.1879692383565537 -0.5469867709446063
P 2.3833121523541196 5.94162604475254 11.464579267703156 -4.1128852265556395 2.1006085091617566 0.4488243662395561
P 7.453031437995622 5.504599540609388 11.80671740138235 1.4074051583173504 1.0088515153078883 2.4169336450876053
Ni 5.273520046072228 0.7649557249923168 9.283978956284777 -0.3998988441834468 1.6012205710420357 -0.8686726569617362
Ni 9.302085494781581 6.661976022274975 11.50107758214127 0.4512671713530938 0.9052941648395119 -0.1293912808123449
Ni 2.283702033704573 3.7420922849819513 8.705104893012567 0.6956117031755826 -1.6586052796090918 0.1652586841329154
Ni 6.165477046396372 0.03385127378861665 2.0829766346462004 -0.6059035998854727 0.24290188583869132 -0.1030158761426097
Ni 2.1084343088463458 3.4243266224567064 0.6215983585429946 -1.3885183487151764 -1.3672180445755033 -0.14421420475779034
Ni 8.491212115897097 6.250249243258462 0.1881145592073296 1.168690056866497 -0.6176039190415363 -0.7690951170767141
Ni 0.6541052069824284 9.048660851904515 0.33741266904481715 0.024651737110409157 -0.35940036984876816 1.913810665405485
Ni 7.705852157944584 1.9286325164663412 5.225494236604874 0.8004890580069632 -0.6321152252838339 2.275735858558636
Ni 6.1828421533599025 8.743726228821021 6.797657063751975 2.476766043864205 3.5321671247968585 -0.5375891317797903
Ni 5.381798781520584 9.142677715127606 13.281460956440633 -1.1959895160123983 -0.3885065431861051 -0.0001781774490771125
Ni 2.0662061594888055 0.4816842818960716 2.2162150401570635 0.5651084202459816 1.005119816179598 -0.481011749605378
Ni 8.30671830692181 4.183383414109726 10.557097731677908 -0.8102021715296692 -0.5404530835911465 -0.2511438141325094
Ni 8.309282656585767 1.5296252834279314 3.048035253524842 -0.6009112888772038 -1.2819078132427728 -1.1131058918432895
Ni 6.870459508179012 8.504024573094908 8.86273806837011 1.5421119378053378 -1.1114490729661568 0.7251102268553319
Ni 7.0630087199030305 0.44636872728484805 11.204630398978153 0.2634059193293141 -0.7050967598478824 -0.1718589630582524
Ni 9.454366983883912 7.153894475021943 4.788533699427715 0.8109904717589195 -2.425246792938991 -1.2444303851226053
Ni 3.2463180166170766 1.5067412500137132 7.673563650871466 -0.6811428201354462 -0.9188942721214498 -0.26961153391939374
Ni 6.250416483453939 6.0310809670879415 9.777495482010734 -0.052359230328006594 1.471085727195447 -0.5170416466457418
Ni 8.68346401171805 1.9250089788977072 9.922958216698651 -0.2910218812743698 -1.7997752982239197 1.3948864570250494
Ni 0.5227491827828609 1.614081582143012 12.461403303487959 -0.607389954623012 -0.0352523954443909 1.1846692059035726
Ni 3.356120496068652 4.624925403530715 6.347071096204556 0.2003061626553518 -1.262033700026665 0.9742742915536512
Ni 9.081374892363899 8.921242405196196 9.736033850215788 0.9453527234232945 -1.7304786687106262 1.3645037309681338
Ni 3.585536879773028 5.2414935486386875 10.017930207260347 2.3515636043222274 -1.770497632305725 -1.738181950892155
Ni 4.260759877883015 7.976140187198756 7.689963410262224 -1.0207760346596162 -0.08790601708436474 2.1432371424655607
P 3.204192069601216 9.305337387471383 0.1573962517472856 -0.7322892611022743 -1.4182582989817702 0.703782411911833
P 1.9838124898512548 8.749440268833098 7.7973232537476616 -0.500258513650132 -0.05420116863275182 1.5238069688485627
P 8.372322919158025 6.8445930246121485 9.23182881777456 0.8927638935829851 -0.19193927874789524 0.5294477336195785
P 1.9119549525286543 8.567306404838408 4.122397418605225 -1.878780670384545 0.6668608562951354 -0.1280432514248827
P 4.966708616350623 5.548620876507303 0.016948864699235466 0.5250280072853281 -0.41998944428573476 1.1222212238809963
P 4.610932973842606 5.749374148931588 7.895735746775165 -0.22119431895827069 -0.1183087977459382 -0.019090440972547768
P 4.0258617322158345 0.34516425210510226 5.580183746954498 1.6514622408064075 -0.19732008344383437 1.7929569897505055
P 0.8360495320889125 4.586348665107721 7.347159103137719 -0.3957976775308796 0.8205662883728125 -0.10468143677049067
