# total energy = -340857.52562457015 ev
CRYSTAL
PRIMVEC
9.39726751967834 0.00000000000000 0.00000000000000
0.00000000000000 9.39726751967834 0.00000000000000
0.00000000000000 0.00000000000000 13.75385090540156
PRIMCOORD
 96 1
Ni 7.185423259187295 5.979904193886891 1.9583698751727465 1.7501944019719986 0.5272245007160146 -1.1970035590992094
Ni 0.77139725703081 3.245064416681236 13.387710029800106 1.4163289431695414 -0.23908611163702695 1.0766597332011134
Ni 8.902567156822325 6.81096094343404 7.176057942386459 0.818333542387552 -0.5654642609235035 -0.06851347149036588
Ni 6.33650230410293 8.267405845796365 1.0568749672748616 0.05602948009074222 0.8024886049354955 -0.6683109584781006
Ni 8.006302768020714 2.242601507744923 4.248413487943776 0.0138477045163697 -3.3172509255378158 0.5069233272648173
Ni 1.6736157545269934 7.524692808114211 11.137042847351031 -0.3444419487667229 2.055486420012137 1.9380949918741461
Ni 7.258637370360593 6.135607519266224 9.005457838793376 -1.1753538420399179 -0.4083086655136968 -0.31612510409990074
Ni 5.795548599868437 3.814764362229954 8.386396866192932 0.8746612704450033 -0.5456091738707893 0.4953950149102436
Ni 5.3102831029004 5.013141504222477 2.7799692146974593 -0.8863885861842604 -1.2070285474353792 -1.0840935637713394
Ni 5.2289309580631205 2.640735540356802 1.923531385331549 -0.5224975275539905 0.4941179479700329 -1.2833525161090995
Ni 1.530683315694254 5.566941273143647 10.4256114337574 -2.596984914148663 -1.5309353523632279 -2.3720678949231666
Ni 1.9029090817800405 0.005146883415430074 8.529230633716814 -0.11898731187020153 1.0768039720884617 1.5540750237044847
Ni 8.551475845367364 7.348541028632311 3.749794473843503 -0.1080333839618591 0.16696075442568664 0.18743290623710943
Ni 1.0702547967561276 7.6456262437051725 5.405648453049144 -2.327276963860721 -0.17889967195511772 -5.209010267570216
Ni 6.63937623596218 4.194526736859057 0.42791773225924773 -0.3720831075227592 -0.5325860221382441 0.2956274983671812
Ni 6.740462642571239 2.47950662168137 6.2743008507250355 -0.36416770933042447 -0.10866433267763867 0.575020537153371
Ni 8.455792867576768 0.41833815775917577 1.5590123183310178 -0.15267416259968547 0.5454885891325251 -0.5303627892346802
Ni 4.699658057344018 8.910056779028091 9.243880611432747 -1.2765627468807756 0.9330044862705866 -0.292743749061483
Ni 2.44224645600275 5.812895955692581 7.196620103425902 0.06399552901535431 -0.08041639357553894 -0.2609921676814989
Ni 7.164927818747176 9.343740674631702 12.612542589044134 0.23049811285769978 -0.548473639902778 0.026332981467574002
Ni 8.04145794577701 3.850699513189612 9.625165343398532 0.11198208419696197 1.1929183332862423 3.7997739695813975
Ni 5.057158305241052 0.7414622613765238 6.190085358477345 2.0557407021147887 -1.6879436235618928 -1.881217561960812
Ni 2.605834088823285 2.0795401219049694 0.9788532140432571 0.7835981957888957 0.7983486146251928 0.4755993203405551
Ni 7.247680156443501 3.6314988512427027 2.7795980226307995 0.38811650683653803 0.8497349395169688 -1.4504757642545794
P 1.922511781806674 7.620836252012814 13.740839608578067 -0.15094355306182392 1.0689996455526944 -0.5097661960302512
P 9.19494434087249 0.10527194955817756 4.012026163447151 0.2805592911801491 0.30010456030192834 0.05817892233357722
P 5.067871190202876 4.2833685039021026 12.579010319386878 -0.8792218932324921 -0.05388363739233301 2.8822619225194552
P 1.8576236496475635 7.90483107344373 7.064679648400043 0.9649167615981512 -1.57655932084993 5.157494873299743
P 3.75865327792553 6.4029973690063136 1.9653153955896614 -0.2841243828235881 0.24313019979941353 -0.886287284719706
P 7.744119004481369 4.687920870223564 11.610726212112535 -0.22228472380897202 0.04752375661257622 -0.15689359999767172
P 4.461456120491139 0.32508437362001136 0.44015767319150567 0.04893117848306411 0.42649742060758156 -0.9027117488243163
P 8.104635775249234 3.5199250940920703 7.745728756405895 -1.5432092846345744 1.1504827898298509 -3.7384066222175103
Ni 5.59695614557177 4.587116381639817 10.622016204177651 1.467907843688098 0.4265131043368655 -0.9027305178773937
Ni 3.056536435888177 4.701377757298415 11.67415870753429 0.45134610422014526 -0.5392063556682392 2.001097303738296
Ni 2.7626838808388836 8.965425479199196 3.8633191037292884 -1.0084393674711343 0.6139033302614976 1.7236737299736509
Ni 4.399791251088086 6.693260167866646 11.03771279003966 -0.17483630051902146 1.1735250163612951 0.3794405763290949
Ni 8.000701996584532 1.7357504873055651 10.567427477209907 -2.5173041131875675 -0.1774482842205718 0.7813423098751835
Ni 5.253946484175727 2.310271231087103 4.318929643614847 1.4323605427111075 0.2569799611983123 -1.3308122522529597
Ni 5.668356584115568 7.299026826120167 3.056298685020165 -0.3771211841672989 1.1482063350908485 0.8940419889644601
Ni 4.243373733377965 2.6957095552924706 11.447577431684735 -0.6347187243449521 -1.8320081901156966 -1.2388729456394858
Ni 0.6348361655701018 1.8704979061367715 2.596259212956968 0.6071207601220254 0.5187627431019066 0.08977752307546474
Ni 1.5480682605884397 1.3350603979308655 4.995769715502805 -0.6754491121847785 0.2250221773447931 -0.25096435113185167
Ni 4.234690658198382 7.578529753681125 13.598267085090976 -0.8301012244464414 -1.013787776267241 1.0525867514123097
Ni 6.215108402403961 6.122300988471539 12.847059857306197 0.13435325280331054 0.8533116011246338 -1.0004920875995995
Ni 4.992805817330034 4.91995819958964 6.645159314388063 -1.4276297128943414 0.6808965084525951 0.050829938167673755
Ni 3.397676041049657 4.55678200211634 0.7822886900753296 1.1309138665589877 0.25328837127933795 -1.3436040047009892
Ni 6.616193177014096 8.140204432775986 10.425020345630998 0.16682885683351267 0.4258032227540344 0.15480149335533339
Ni 4.343341865153289 1.85424063334383 7.921282869674136 -2.785066766823681 1.8570867303508793 1.3026635577328856
Ni 4.718217660676999 9.153558774756819 11.920187628496555 0.12351013944121954 1.049943914472824 0.5976120493006417
Ni 1.3061356085339444 5.871328165072066 1.1270772542110863 -0.4052624224882053 -1.0702273473122084 -0.8497783911603947
Ni 4.493350446421338 0.4612432620312756 2.619805946157704 2.226899553782223 -0.9905732858239907 -0.21109451152010741
Ni 1.5733844992613788 7.3833766992932555 2.8611446909055442 -0.043313575185970565 -1.297543720007817 0.3478180643278075
Ni 3.5714785036539642 2.601013290590464 5.684205075771808 -1.4451129572807693 0.9299001363136502 0.8513796742092434
Ni 3.01909772212686 7.149882793463073 8.99622878237144 -0.9529570181331136 0.3532500339766561 0.5351118738838914
Ni 4.181680672172381 7.25805473977495 6.886099614993463 0.036941353111039604 0.29087250018069905 -1.8051018526431557
Ni 7.286566049401415 4.973616597073857 6.247205709312383 0.8120160848099562 0.31627937028957787 -0.2161315597233826
P 7.634189769145051 5.34374677250483 4.058417653965598 -0.15769681262525745 0.7852706983953122 0.8547668455139215
P 5.513668163627355 1.0990668189429242 10.389562575860866 1.1286939760895336 1.4523434135909374 1.584159244684375
P 9.369150885979746 4.008498429223757 1.8550093298261785 0.7358767213432165 -0.37089088698687095 -1.0917500518753327
P 9.228915462922481 6.851716892626519 9.364062265622879 1.0313939193847785 -0.5622375264560898 1.172337166700781
P 1.35443756353725 5.71708141615684 4.370561050497078 -0.47146061558183316 3.116994642283793 -2.8118098392454804
P 4.645586180089344 4.527049047713527 4.655266305351777 -0.09253631676752451 -2.0399127339435967 1.2564708612269069
P 6.817529633423789 1.3025928386825345 2.525550413301934 -0.73519177946105 1.6707977079102256 -1.1200036474043873
P 3.0373190238294687 1.7770984643511964 3.3639990534727415 -0.9877329881617181 1.3718015501811278 0.24044339699586978
Ni 0.05301562438650776 3.962301462142775 4.096213463892309 -0.41550415482087155 0.5568348673832797 -0.9784438495503084
Ni 3.0293501409806747 0.056929586304577194 6.585247975102445 0.020562140422067814 1.4257111557153899 -1.8273190121701435
Ni 7.273071573256523 7.795522057763097 5.723582445820515 -0.28865363815250933 -1.9776084765877364 0.1700730748024232
Ni 6.291517584530785 1.0206090324988386 8.448949777375717 2.7571533282428646 0.44689681019954003 0.11099220947986692
Ni 8.831382855431267 5.146883415430072 13.355498076228058 -0.40821662002052284 0.359636140008658 0.9747108648704376
Ni 5.768127373273175 2.223572041036422 13.270430251817176 -0.7638086718667942 -1.4674920963069178 0.20781712632041627
Ni 0.1788318801758579 9.32441049536287 10.11540763324006 2.2966306997297736 -0.5647669777461628 0.8725066859958457
Ni 8.36153827444775 8.664524973517123 8.5743431561271 -2.6545863667122154 -0.12510833716627487 -1.7821100197336728
Ni 8.956018814421315 7.6138258904500775 1.489019590460274 1.9164977253193445 -0.20404428954154535 0.970339218165303
Ni 5.966503690417102 8.000711393852043 7.893775188217778 3.4421684868495235 -1.176318262835716 -1.4748613921877956
Ni 0.6982329513753162 4.544142677314891 8.01183775858432 -0.6040128106206629 -0.27668386738514283 0.24519428141729382
Ni 8.40871255734981 6.942569674916784 11.56606663799625 0.19631503921808774 -0.4454737045997682 -1.0070139478785174
Ni 9.317719640895486 0.21232844021657452 6.6171563969339084 0.5889844555326308 -0.1420436794690328 -0.8155860615494018
Ni 1.932604447112812 0.4565418090958371 12.90250091643713 -0.5403273566465597 -0.18553466077313208 -0.802291915543657
Ni 6.717082241005436 -0.024011897942499402 4.057578477976922 -0.5402677070532179 -0.763454373851169 1.1510327487960499
Ni 3.671380854556716 6.343653624678322 4.136057878136281 -1.30243678643406 0.3069938312225939 0.7130309270932945
Ni 2.384613014361646 9.257830855051893 1.578817999335875 -0.4933059935916988 -0.9055163081526468 -1.3912933403571524
Ni 3.195014569921001 4.393025218480619 9.24067614321171 0.05840955028714457 -1.1145418529588675 -0.9582612039548465
Ni 8.857507259110099 1.7912977355593667 8.578194156352849 1.1279342151053735 -1.7242913089529917 -1.8484285404552487
Ni 1.197503196114058 2.9472274202075446 9.75057281805118 -0.2195920074681573 -0.19845214016574855 -1.2860516602078174
Ni 8.147957178472042 2.2482962518562077 12.99327664113381 -0.31916697625001805 0.3126823969669389 0.3575589457646552
Ni 9.163031220407273 2.6961888159354994 6.141961011829985 1.497210963527589 -0.04477807554663901 0.49583750176430097
Ni 1.6531766976919369 4.360830179990089 5.680285475493233 1.1732925886355148 -3.8472488752339093 2.303713317608168
Ni 2.2086679747649742 4.229550352870209 2.748074888767261 -0.5405602985929723 -0.6481203424628387 0.6843230176356407
P 2.326744641032783 2.91694942428913 7.530907221118819 -0.15271864268437568 0.5204506723272907 0.547499963135599
P 4.560540909120489 8.350769005880865 4.653395309390462 1.4700860822863393 0.274080882544657 1.1812023304008947
P 9.092053658901442 0.6233132361488852 11.893876219194267 0.7591290070029378 0.10148375576879942 3.7892134204567323
P 3.1614475303739566 8.833271706200852 10.451812895029816 -3.2083626497748297 -0.09025214871903811 1.7615712763503726
P 7.13461223375872 0.21733060571234492 6.6237034732083835 0.7504263370226173 0.7305622511088387 0.3987225644871585
P 1.8950341716063497 2.7177273530692694 11.638646433612598 1.2413085516641718 0.07010395590593733 1.5607724903293183
P 7.923475252184305 7.242793577338109 13.612736057876692 -1.250678422914846 0.6716040274070757 -0.9913631287151379
P 4.686736814517258 5.865962325323645 8.999296050486825 2.10936080143309 0.14956544176737468 -1.2508311464426265
