# total energy = -340872.28851910593 ev
CRYSTAL
PRIMVEC
9.19803373783819 0.00000000000000 0.00000000000000

0.00000000000000 9.19803373783819 0.00000000000000

0.00000000000000 0.00000000000000 13.46225212682199

PRIMCOORD
 96 1
Ni 5.536498948489731 7.145722569714947 2.2147421489210166 -1.0731488918343774 0.6534983189453003 -1.610492226151949
Ni 1.7013051383874567 8.630101277101074 12.649321070823037 -0.15591966612017663 0.735285881836753 0.5806257991552903
Ni 0.7027251893353977 7.470606324353598 2.977217766334121 -0.39135146883406796 -0.6211397001089367 0.9631879518325023
Ni 0.6890449535472245 6.112856949379075 12.011883525960478 0.2434078789408324 0.5641481132152413 0.33087835114967534
Ni 6.160493566838195 0.06109610043419803 0.2681695975443878 -0.04001973492604721 -1.0935732211270004 0.05939968211455577
Ni 4.446458349562261 3.957601244963439 11.11992810543668 0.171964121177549 0.7041431376853616 0.3566832280279212
Ni 6.770065668064452 7.440399981095101 4.151664123151844 0.8260990452655838 0.9103147579825548 0.08187600884020092
Ni 1.600218746057716 8.915304713585904 8.193369430494304 0.74558932064529 1.8929088822558107 -1.4763747435085284
Ni 9.428168686608805 2.9111317325205888 6.392550763570409 -2.6305334395280697 -1.660096776552954 -0.24445534636874028
Ni 4.698125754524411 6.711041884663183 7.532412513003251 0.6557058681195804 0.5538271909052075 -0.9627657766934193
Ni 3.14205757108569 4.980882513997438 6.7305334382560815 0.37117242278303175 0.6977230930916306 -0.011970027877682612
Ni 7.783541832983483 7.887047308223389 10.503518185824804 1.6308386510187847 -0.7291088064917637 1.2184041362621727
Ni 1.3831175524126873 1.9702372529404102 4.51484941066586 0.21647120245098847 -0.9004440358360623 -1.2416996164550034
Ni 6.819587882468759 3.446999988274761 5.721632375388445 1.209345368494014 -0.7596375712082402 -0.6490243423343467
Ni 3.6675504446243994 3.5480311924012287 8.721776241165866 0.3363440022499368 0.7797158300153539 -0.1826028318383178
Ni 6.8382874853446785 0.8246607650585709 9.715465595604483 0.724588550023907 0.7614059759625725 -1.9930284106872325
Ni 8.762838104008308 7.898563246639844 8.335664854208549 -0.39511504964155825 0.10593510667193369 0.1379949633209559
Ni 4.0434924853251415 3.684005727233854 4.918810502168682 0.3553485683768977 -0.02101002659276382 -0.7682561661151865
Ni 2.1581346890197497 8.679936224657265 4.55636657618531 -1.3450399658165675 0.19371385414981476 -0.9678884426319653
Ni 4.281519206044799 8.24307560557619 4.033169531902788 1.366345155052247 -1.257536326376944 -0.14685575614569546
Ni 1.2473269782576406 2.9653725383047997 8.619462831116673 -0.25160995513565054 -1.0701250174063892 1.1083796900122138
Ni 1.1526056253721384 7.1021238891286895 6.424550723435301 -0.353001922521592 -1.0774878855293637 -0.011356305553083668
Ni 5.544372465490119 8.011561092842834 10.075418694013434 -1.207599589447501 0.04639529943508784 -1.1877943817961156
Ni 6.1792667539851465 4.334536673323108 12.824343099078613 -0.14829428836443495 -0.8050242268731554 -0.29309213353983715
P 8.056309527663961 5.160446531382442 11.207607443584452 -1.0140384588254665 0.2844000050824779 -0.6665518096951488
P 4.7708822025069635 5.5939590661315775 3.3718630891243353 -1.1427142016280256 -1.4267002591015363 0.3836949807300747
P 8.626118528431487 0.8023592121156511 3.951965609605802 -0.38370397959113917 0.158847638400249 1.9606307110828172
P 4.693848668770697 0.13500414225839566 2.014599370338621 -0.9300482318557403 -0.8085659214778267 -0.9797795376425966
P 1.4326213707492352 5.604867934312021 0.9545342440192842 -0.043324630929564095 -0.24629857022506613 -0.22195510838369517
P 2.475292095200076 5.099748705815203 10.208533560113095 -0.6097779952392144 -1.810125531109992 1.233282853146218
P 8.894507958985582 1.4188795081340733 8.115503474691991 0.2604041563885128 -1.4123840995891805 -0.5801460313053943
P 7.021714676958845 0.7857641193912362 11.796648613389488 0.8915361918234711 -0.9936760931190306 -0.25974878219270103
Ni 2.944226258417077 6.775372933612611 2.3165303512357216 0.5725083122544785 -1.5051896108576917 -0.6680664465674624
Ni 6.0325489155818985 8.888050939202554 5.741730999217354 -2.018113635790634 -0.21201213823837034 -0.37147221341163766
Ni 4.146887584158501 1.3945231144225942 3.6053395424840717 -1.8072525804375712 0.9040222401056237 0.08703518444363721
Ni 5.373169460901088 2.0507200493812867 12.245722381855046 -1.6485712924118578 -0.635562560402486 0.7430734962019719
Ni 6.864529476001343 6.127481823246617 8.837026685865814 0.15910886248143566 -0.5170617012503997 0.7661257500357451
Ni 8.975110329866885 1.1898944547174313 10.657337826185996 0.891866064359064 -0.41548384310589737 -0.16350801999039583
Ni 3.033833504465879 1.4944965446529812 0.3058741780210095 -0.10887516313686411 0.9022972869947169 -0.2965263560323667
Ni 6.571562898922675 0.5602614416011676 2.952904603381873 1.3785689508119483 -0.645775753490062 1.4102431419867778
Ni 3.979547753798631 5.714563686352466 0.2569875477577394 -1.195699238465489 -0.06872121662579778 -0.3706674581221552
Ni 2.8033583695608457 7.06179970860334 11.264862445070799 1.0003452776090902 0.0646393332469403 -0.6870321890366877
Ni 7.297904040242296 7.257156750158514 6.751198660971935 0.4583598165338171 -1.758750776182442 -1.7615046847784954
Ni 7.351602162027649 3.0119973720372344 11.216735572405929 -0.6170750431212598 0.20219386659636793 -0.2058692585654261
Ni 4.591833275019181 1.3226036875230271 9.941469566240956 -0.8098573865957408 0.5825536123056225 0.40034004548592345
Ni 7.71114410832221 1.8789191725901222 13.51596626152211 0.7812536068161189 0.8973635971385255 0.7010899526813344
Ni 5.817544873661271 6.249990436480449 11.485199507034444 0.4665312966010159 -0.7669978682280533 -0.9594205143702703
Ni 7.7195327152198185 0.9567058998181059 6.112010730262211 -0.10997996616526864 2.4570346268735492 0.4606007900491938
Ni 8.146680210524716 5.526739834544158 1.8868156846752069 1.6232140445939918 -0.20984649804561925 -0.1285448736516496
Ni 4.439219496899521 5.897098668680373 9.632349402064062 0.460907008435703 -0.8097072341711218 0.22147174098937344
Ni 6.266372134818872 3.0455977897970654 3.561855837321301 -1.7648635739483993 -0.03317802941386544 -0.29229252045667725
Ni 5.556550662345859 2.114131294942818 1.5310890828336368 -0.6802660739574478 0.7231818994843674 -1.8155179057701571
Ni 9.184503571121347 0.8253874097350086 1.937096736874527 0.23544054446463966 0.35123917419421447 -0.5645075534371891
Ni 7.658466968297422 6.1538985765469825 13.026101972213539 0.6029337186238714 1.2443105717152894 1.1587134052697592
Ni 2.4896410280512495 6.039824560380154 4.46712541188489 0.3743616191442907 0.05865020554304093 0.9092451790674598
Ni 1.299792563503213 4.455334452255455 2.931028919407549 -0.03997062685566665 -0.3920752343739699 -0.4545520127519526
P 8.835143848330791 6.813314823363309 4.770672487334523 -0.45725784171888995 -0.041546455983218766 0.402946372760519
P 3.2499229143842223 7.5935472451797414 6.096408105393335 0.2501230861774789 -1.5874361156634338 0.6218716931789547
P 1.0888448545232063 1.8410876592459708 12.294712030097761 0.4847874145977264 0.23787100828300323 0.7089991802260822
P 4.346981613161338 8.974595239969663 11.553561134429632 -1.5747690617187267 0.4288618070747001 0.6723447622278421
P 1.0218647718166394 7.931832535180032 9.910048162707051 -0.909421556744324 -1.7539397279470437 1.928860103539439
P 0.5405270599138648 8.065038461815092 0.9357849717604175 0.016156040934572173 -0.8148221868001837 -0.2674608061249781
P 1.6235909501441468 4.048689374466752 5.175024495277202 0.7960582759291194 1.3718457731555018 -0.054506358577996454
P 5.7689516606787405 3.7392399206769924 9.323458268930755 -0.3172484190710665 0.0513457014618277 1.4004161285940269
Ni 5.586067153063433 4.393376496046798 7.270746845214674 -1.6750217732939023 0.15736256921429026 1.7511007158363519
Ni 2.2241213840673892 4.206932349320334 12.79165696588635 0.41511874645699476 0.6017042170921444 -1.4258764776486605
Ni 5.283828957834775 5.771858239384491 5.414598325295298 0.021884201667601022 0.796741418039073 -0.5484147616403845
Ni 3.821488739622629 0.43480577831251754 6.1026544902005355 -1.4278096901156312 0.9167507434158857 -0.3613850043789647
Ni 2.3672703853256016 6.514461504602108 8.629048102221935 -0.6239398885618932 0.9970347251786184 -1.0198306400272115
Ni 0.28577739379887573 5.189015624610483 9.439583446652591 -0.660649842388417 2.233458437946663 -0.3619203080571445
Ni 0.4743104140192513 0.0433117019292341 6.063896734844773 0.32311310538195964 0.6185336299446573 -0.12155918636243582
Ni 2.3180884981748173 8.935411615645304 1.8547752534612472 -0.2312977259408597 1.7476312692305127 1.0628313119584536
Ni 0.18977843400758637 3.7313296115410894 0.16749159791887283 -1.2613510721373438 -0.07541585503715398 0.8052916216019292
Ni 8.459560530951329 8.669524050306286 12.85187373428172 -0.6774887683226268 0.16258447973486193 -0.3412553235086252
Ni 2.2079696365759403 0.34564279730006925 10.537025703442458 1.1586154462393143 -0.26329381923148204 -0.2081331148989383
Ni 3.8848355989470074 8.26749638552482 0.25201876985632665 0.5407505602269075 -0.3341230833392181 -1.1183630264771707
Ni 7.6675546257698315 7.798810569222552 1.7536465501756633 0.8644699317342982 0.9696429634292267 -0.5821568910878361
Ni 8.510710797352209 3.041532258822566 3.351898756590058 1.4774026705524104 -0.5350702220126784 0.7804984738176494
Ni 0.47347155332949037 3.7135314159853072 11.04112027096516 0.613156424793144 -1.7521474119333114 1.4653259418935345
Ni 0.8971320739908755 4.796268776012886 7.307148984094035 -0.3698914991880791 1.9484768493291025 -1.0647562968953082
Ni 5.700785031601788 4.606071831463806 1.5514572090552 -0.447126666822159 1.3839351002198683 1.5784634798511783
Ni 3.9920754759417707 8.784683434470832 8.307569459725274 -0.23808852361044802 -0.28303500641415125 0.4913298437019345
Ni 2.617889214425551 2.573195967807697 10.77059597674776 -0.37071373797905827 0.5890998980645725 0.4174818473725326
Ni 7.8596831574334916 3.1374401580784537 8.930966205871604 0.1969678423107382 0.08681689778524404 -0.6178898257130713
Ni 7.350038496268226 5.291822049275589 4.057065104116932 0.1446183821747445 -1.3744243325159555 0.4803946848466694
Ni 3.621771830008829 3.5320358114857213 2.2841670690326104 -0.46637240242564837 0.24779495226493453 0.22171471023811495
Ni 2.6268848915591714 2.5002279650459296 6.497838817776056 0.3871919381397396 0.45246787652941434 -0.2314525063511691
Ni 5.494142002477133 1.4347645126430324 7.557735620075408 0.31809096957701993 1.3794919768468499 -0.022286836422658392
P 3.008566505400383 1.564953484165794 8.310235049943396 0.11869806276455688 -1.5321800234036063 1.4394650149663724
P 6.269379891897291 8.649398752179128 8.006095621111958 -0.07048139385001409 -0.8028531873637657 0.4997882588819329
P 1.9609472387226632 1.9773197390272073 2.369814561496521 0.29616100227314807 0.2951857828440723 -0.18524181212306162
P 4.016174324704639 3.512416405221906 0.09837849115577563 2.3819807831615036 -0.7662630469445577 -0.2505997687035813
P 7.717720702545664 4.653993587973175 7.327113316628312 1.807607649784145 1.1535280044140779 -0.27574515762095736
P 7.507435252004943 3.547709261215465 1.559561596705949 0.29449621297621537 -1.466274678960049 -0.8443389653123781
P 5.660497643211955 6.923461279063823 13.455817558577444 1.167146623638777 0.663193177635561 0.6840286263236736
P 5.302436580371905 1.799714902858421 5.3039119450060905 1.609540660871957 1.1250134419141529 0.41236329519904474
