# total energy = -340885.86152173113 ev
CRYSTAL
PRIMVEC
9.13557061062803 0.00000000000000 0.00000000000000

0.00000000000000 9.13557061062803 0.00000000000000

0.00000000000000 0.00000000000000 13.37083102628620

PRIMCOORD
 96 1
Ni 7.001044322748364 2.5189964850695117 11.791588494245438 -0.2029513135876827 -0.5385759211730918 -0.11792698892648723
Ni 4.827975343812068 1.0049584142023016 5.880798665203784 -0.17505715828057594 -1.336009480183183 -0.6959441468143368
Ni 2.5128117039557902 1.711868846373331 4.706331570633855 0.9914724005994925 0.8219019764651007 0.9064755867421228
Ni 3.9002855834648007 5.1600076474726535 5.197428770660285 -1.3145896197465101 -1.6689143748445838 0.7828479478864323
Ni 3.7449443455656515 2.828363438740224 2.529494168936244 0.7893309845076149 0.6886764095083301 0.7207444936874684
Ni 5.155311964322797 4.896364223305895 2.7239055004676733 0.5369011045738301 0.1265206441327692 -0.22850782190054836
Ni 5.848208431606899 3.27529381044701 0.6252155944908869 -0.2867011424118288 0.06181497642426774 -1.3619681090304738
Ni 5.581248795410184 8.508422562844668 12.801914969573916 0.720577629092301 -1.2469719205975365 -0.7109889569626013
Ni 2.536792576073249 5.253309227257645 11.472881333468862 -2.452769166728976 -0.6241036678332671 -0.33166922248208686
Ni 0.7494127595764637 8.914644833158924 13.113589568310104 0.738545012203999 0.20980458906409027 0.3716583612805147
Ni 7.904168534477023 8.742274892163795 7.304805690464306 1.1342632426471948 1.0193848107390444 0.28314093586439626
Ni 8.72569383201401 3.082679445599582 1.2581443510117813 -0.09033519535114765 -1.0718576838267797 0.8677246912261701
Ni 0.778426417388973 0.004828148919648347 4.419340369373539 -1.7496274737249353 0.6674753499506828 1.3501194372220038
Ni 1.995628796407763 6.823759444915449 0.4635909113184467 -0.026507559372225313 0.3014698160805711 -0.9746751265364955
Ni 8.10212720796777 4.214074153175456 3.708346337264794 -0.37015915102716895 0.1358619761383531 0.7506291970620428
Ni 7.805001918539875 4.580931250935756 12.926384374655342 0.39343174840186435 0.004329480613289318 -0.6387445576748935
Ni 8.077561659349163 7.484708822753932 9.42231761199294 0.5268879433122022 -0.12338184139347136 -1.3587699138081502
Ni 7.028158695489171 1.0286012702175331 0.42335146468386764 0.7608398190464574 0.6741013399076327 0.3129737029551126
Ni 1.886011088012568 7.010782840720635 9.038066388323443 0.7599175643425041 -0.9804457104716856 -0.645357949226353
Ni 0.28710448233241354 5.515637129296818 1.4317220144045963 -0.003406968799019939 -0.8668839404924296 0.5331953735874688
Ni 6.3966532608257625 2.389481504494574 7.119887130063258 1.1095431141926957 0.10411733673690457 0.5049726312963496
Ni 3.7365122141506366 4.43497224376599 0.6926772135961721 -0.275092611638623 1.6653827075422416 -0.8703659855037591
Ni 6.061953370628682 5.982821060426233 4.930173141984863 1.6947825008605975 0.3875462361553648 0.3523935995136318
Ni 5.5738946612941636 3.333962443109227 9.831731850580658 0.8247857257707989 -1.3781748006973233 -0.6695548581875308
P 0.47518943140999936 5.720803767778298 12.42808012319521 0.5023313370187606 0.8161784437177622 0.36346322706423206
P 3.7417286248093293 6.339482861697741 12.677860319385495 3.270799318943496 1.2089931273609178 1.3252748673744983
P 2.5327272472761937 -0.1647326041988628 1.3139919195559524 0.21264154429225315 0.8964639681423915 -1.6105174229629295
P 6.324226459245871 8.251027868783945 6.031274298344931 -0.3558041678570775 0.07894829367044467 -0.6785354644195862
P 5.048508011589384 1.5548832058146986 12.583984112226716 0.29940753423490374 0.41110859685633716 1.0082563049260507
P 4.097221073078536 6.25832245488193 8.285809725703109 0.005408572610081008 1.2850880107429674 -1.3015222450395907
P 4.9155489209998615 1.3653018503169834 3.6058187450030696 -0.19184234815871476 -0.5070230860674753 0.9624904115448455
P 0.5450957291357158 6.257637287107145 3.5415317365876193 -0.08788853358286798 0.34891901070147 1.1707549098153256
Ni 0.8678910576351722 8.19953065883114 2.3390129597609777 -1.1089895556820706 -1.214298084513599 -0.7059773626806228
Ni 2.1603431294659647 6.784037985118607 4.989392649538006 -0.4324528668600681 0.5670218352186105 -0.20191464479305224
Ni 5.9547657239413905 5.71012428606199 9.367069336862448 0.8619276249284189 0.21757034905243822 1.019710055288947
Ni 8.830122536461502 2.57809448953726 10.165240462406645 0.5072274887687974 0.16686665204998358 -0.7644930995283286
Ni 2.2980070387756735 5.49465272424775 7.263756832298448 0.35181792951581986 -0.7482059323325309 -1.2515595399682187
Ni 0.6698355470989219 0.04942617615889016 8.900841899946629 -0.07978647330102388 0.522936414863622 0.46002100628632386
Ni 1.6242039134822326 1.4956390322216626 11.468308066961432 0.5314310825981945 -0.7009215454242703 -0.4907523739319096
Ni 4.217828872581276 7.368403876876839 1.4157703950505793 0.25566509904163065 -0.5275836838276462 0.010814059896368472
Ni 5.683777301228942 8.003371692695493 8.38940709325053 -1.844777573966223 1.3572359936621272 0.8739704150255658
Ni 7.305679050987898 0.9355920286831154 5.216482829698527 0.19336366989924764 0.3078050142699796 -0.8131327149129028
Ni 0.9759895206844115 7.616690407318094 6.890497526850561 -0.9401794067524711 0.7148404694982076 -0.3706695150046842
Ni 5.080244982917403 4.4222007164440065 7.468036406900842 0.3608612706650108 0.33637691237040135 -1.1537493763962645
Ni 0.8596270207142377 7.466629529069951 11.042996108884648 0.6772486272873627 -0.3773219873241953 1.3034986520396712
Ni 4.95738069754304 0.7336338025016923 10.59678470656287 -0.8153834586202924 -0.6713818840939405 -0.3432109045730992
Ni 8.129963290764683 7.564462351738851 5.042300391549835 0.04368047160708606 1.1204983276526186 -0.20145261755496918
Ni 7.0183744996652475 6.58490082305523 7.335291088657053 0.8798376724396202 -2.700343261232356 -1.5593429569716435
Ni 2.6747762303445235 6.057550025729401 2.773872502390127 -1.3341022358581411 -1.0160182082596567 -1.4412989828513176
Ni 3.577443663556659 4.493595198576554 9.360744781522671 -0.5455369258719572 -0.7030578750409828 0.048448839530006886
Ni 1.3836095332592262 4.1160038056779635 3.770453598599396 0.20337631694024327 -0.16807147099136216 0.45009500542186354
Ni 1.6343809388303656 1.8026124664657945 2.513569042736185 -1.5601070888311777 -0.48213223636306646 -0.87997316957622
Ni 1.2227047330288263 3.4520031473491066 8.16123434800585 -0.4459545008909287 0.34405756884411065 0.06948843380912548
Ni 5.352329674069506 3.1515159680396017 4.839184688607543 -0.1072222009144734 0.8505420087992963 0.9002743430274173
Ni 4.285678753425605 7.668817971623701 6.012675190709146 -0.31195168944850143 -0.8327029237353465 0.12175947529869999
Ni 8.312126563154065 7.399501358281727 0.4837202269845833 -0.5284630011088061 0.016148070514772187 0.08649242456628976
P 0.047186134313861254 6.033770136159212 8.025360096923878 0.46890365348793434 1.1279828089551218 -1.588152167893852
P 8.459108754200843 1.622998018198612 7.859039730601581 0.4729014617934178 0.7834686121895668 0.8904799826448146
P 1.9277789155634333 3.4278578349657 10.304698597729255 -0.9646794487763644 -0.5080489562288282 0.5708180690362491
P 4.375801154735598 6.646438024801212 3.7466673141299762 -0.3312766150293585 0.7632571702386984 0.2443584157795598
P 7.51444510417958 4.3640254045796345 10.584750419766554 -1.044019578568589 0.14388921731820378 -0.16147556294139934
P 6.464494006099761 8.108942343434295 10.745562037179583 -1.3960948755108538 1.6148422755905285 -1.1107109092485516
P 2.415134185982507 8.882186151774796 5.847812861411591 0.7399848299743191 0.48393560812039244 -0.1940504115536271
P 7.303797123499824 4.826888210942744 1.7382615090580313 -1.1675034927575636 -0.911594653136243 -0.04490303116027751
Ni 3.211481851688744 2.0996464001903856 0.29085828818119974 -0.386170953074393 -1.1226115173408797 0.41732706696222316
Ni 1.4338277633657674 1.4040366685181358 7.032000202813129 -1.0166679260285136 -1.1930702854830744 -1.1063667733472429
Ni 7.014583237978107 0.8475772034483603 9.427451802518659 -0.5291556563004565 0.7610763605372958 -1.194897311389484
Ni 2.8738037655639346 1.7753610601700311 9.20258156594844 -0.1315381519520186 0.2135319173170064 2.103408954725029
Ni 6.423100736932445 2.8136460349378525 2.7600741369629995 0.7750086543476716 -1.7323324340899133 0.2114668072578616
Ni 3.9791255554166747 6.844195715744688 10.377917453256796 0.6325083469571946 1.5688280136439432 1.1105653848096229
Ni 7.680356196951073 6.692298587860123 11.559711275231756 0.06396621843931563 -2.0872058626026053 1.2845447366449878
Ni 7.888820776321849 4.428394633128058 8.277774078040434 -0.9866482397379719 -1.6983038837502944 -0.4451682575442075
Ni 3.298516430227041 -0.21701638675712098 12.562791416174115 -0.8681275830915437 -0.40516549189902484 -0.49983942383484237
Ni 0.4572014934293227 5.223892690793562 9.884654209505015 0.020118625126746 -1.0196642896526762 1.918848484939708
Ni 8.738081665382113 2.8856343291418804 6.080732448999978 0.601515498120106 0.5086850471509303 -0.8140832517516302
Ni 3.8278313751739192 3.1239630879229328 11.56325496296294 -0.24548044519914494 -0.3388670257821067 -0.37954779133092054
Ni 1.273114810112307 3.418603502220943 12.865239088876535 -0.34427174173744585 0.8071176190670744 -0.12986847755907957
Ni 3.138561729311009 8.952374738623725 8.064910721555542 1.2020835447252782 -0.9475178493954134 -1.7556963056268342
Ni 5.842489564580031 8.213855233109301 3.499815068230604 -1.4415046711042208 0.7659406306081324 1.306109607299957
Ni 2.8521341927400825 8.941211071679902 3.428775959783911 2.7548089963804037 -1.0452377672464064 -0.040397944201072365
Ni 3.4580965727595236 2.4537776484803544 7.12380446262096 0.8819362068398618 2.0200059677173408 -1.2534444156957574
Ni 5.4931270840025626 4.89406205958262 11.722207491813723 -0.10603178015079805 0.20679691258601807 -0.17436270331671264
Ni 7.814201437862649 0.12008250420873735 2.808516412197299 1.7067484149732217 1.6333840431484579 0.6291304316238971
Ni 4.762400219980022 0.5207503477620716 1.5590517665564878 -0.005176144884300763 1.3357865655390995 0.027245980200146624
Ni 5.984593361070343 5.959872507756117 0.4147311405200451 -0.2941239172384612 0.8665476401989334 0.3933214480762452
Ni 8.58108688925315 0.14296710788654077 10.993911603056118 -0.5307726230785891 0.5596293994092814 1.5497373155610794
Ni 8.974967004050953 5.572496919033603 5.689315283963267 0.6022701168979434 -1.3684773709039015 0.8443641621233587
Ni 7.61937626499525 6.664042268828009 2.902700488076214 -0.1836094187259612 -0.17926168328022676 -0.8503018677640323
P 8.794576032305681 2.0497661861860714 3.636865980771139 -0.30742243411958026 -0.22483962902034182 0.17830728978675742
P 1.88426619407945 3.931976876941168 1.6380872397134332 0.1346054780234327 -0.9908213972790548 -0.47263380995432797
P 4.909272784182835 1.3319935608921245 8.311107947062219 0.6491135596140434 -0.306306318237266 0.9923321774966263
P 8.886233209431191 1.6313662006213137 12.751413536787132 -0.06080633265409528 1.1484091951302737 -0.374358019599865
P 6.575628219169812 8.293864558063476 1.4524999555641953 -0.9648141745820158 -1.604063696917786 -1.2047258674441317
P 2.0062717358427493 3.515404005442502 5.823410839501897 -0.33383229157167665 0.8741524491293848 1.1257649753681966
P 7.004360534778321 4.2846464339782635 6.021032410447451 -0.5574156795874142 0.2938410958907198 0.019187885782360505
P 2.5220386299895545 8.744595327027731 10.094535715834047 -0.009995163539498914 1.2506761089220009 2.438553023129594
