# total energy = -381166.96778361103 ev
CRYSTAL
PRIMVEC
9.27283499573103 0.00000000000000 0.00000000000000

0.00000000000000 9.27283499573103 0.00000000000000

0.00000000000000 0.00000000000000 13.57173132877612

PRIMCOORD
 96 1
Ni 3.438052013563408 4.670643631734751 6.857036296117256 -0.9927165574192386 2.8863409776848354 0.7929557257443957
Ni 9.081017325242433 0.44563020462238945 1.863792582547957 -0.6604474965696239 -1.477271801401501 -0.4699788888299842
Ni 9.265889840506544 8.808349606360895 12.704171820382767 0.22067752722285222 0.9750255678973787 -0.6817431727236065
Ni 8.771592087651614 2.6572792902229754 1.8545095472351767 -0.9182034167020122 0.4180454331854865 -0.4500695515005668
Ni 6.405758007578161 4.034499318916179 1.6083046454304677 -2.6237524120504943 -0.02702769354175345 0.0009335675578629083
Ni 3.9885802390351603 3.2183507293103815 11.285166541738057 0.5358621217863546 1.5852270238272568 1.8655284333603293
Ni 1.5463936339737607 4.157206747039267 11.97898047119557 0.5100572449081086 -1.3954317880055582 -2.682186644927987
Ni 0.7082665703909851 3.008191192472049 6.756211831768648 3.25018395668599 -0.2892444776589729 -0.6208265397438921
Ni 7.833375895551119 9.262560892671875 4.11592593932232 1.4920911258025205 0.760716920315348 -0.07071587845832338
Ni 7.582443702364475 5.749649280586763 6.193636338812764 -0.47091605593227287 0.28513714035881865 0.885705958294939
Ni 6.669004525902526 3.3113758119772605 11.051216618925826 -0.5566302075716413 -0.6600584886613213 -0.017829314871937035
Ni 1.9179839587056036 6.082905704626334 8.878043308395982 0.34905090829364405 -1.1108091253893129 -0.6875299546087127
Ni 2.3853255796513815 8.626314578666168 10.330503121853845 -0.0012796380433719896 -1.2239973140792342 -0.04624000480414617
Ni 7.058064872139991 2.8278067294418654 3.3530729699944213 0.6710563824337217 0.19858789441266445 2.5801303044851696
Ni 6.7655625587783454 1.517610753531377 5.508996952496261 -0.09442350648790836 0.7270969182680576 0.3592674438153296
Ni 7.520658801466407 0.95416546863429 7.713602392483434 0.928450291241001 0.5436659341014894 0.5004672872268283
Ni 3.1187419336557145 0.24533974628110264 7.365691179703161 -0.21609145051406656 -0.7813790766503897 0.4433132066133397
Ni 7.909672783527902 3.408518033470305 6.551360065795399 -2.754790741547959 -0.335012685033023 -0.5041629909108608
Ni 5.314206212708576 1.006992810734889 11.078617846924294 1.2978882478314293 1.1855387529927195 0.5062697528412184
Ni 5.956674599129501 7.487109683734273 8.74326264885022 0.9486982428567596 1.6258496824446258 0.442643948460457
Ni 5.89472278719794 5.54249414235131 9.756527605310376 -1.2105391316917993 -1.82097018713398 1.2621648262878908
Ni 0.5569635730964343 0.3717108715893657 6.322852369958567 -0.5341446248746156 0.46156906749973414 0.3722062633641848
Ni 5.215617428925257 3.2001203353188457 6.529902725156329 1.6364246297469947 0.5277680319243104 -0.19210794311527557
Ni 3.9055883640482616 7.060188351399432 7.847514187371512 -1.0230586600462057 0.2753219540406097 -0.9130051603305244
P 1.663157174737451 7.676804073299299 12.413140178682898 2.364103131550135 -0.5311004387316531 0.5059254821279222
Ni 5.664367015306929 2.6697883448997715 13.262934323506848 -0.6746492419913026 -1.0184844104119621 -0.6065270924020845
P 8.537916640761129 4.314993310701509 11.121694802818332 1.1514315268963653 0.13752342300117604 0.17254519049199962
Ni 1.9177335921553638 9.007493014988675 0.6465233972512906 0.32296038185417925 0.05562993065947838 -0.3408264635013227
P 1.9223421912468148 6.402206511698833 6.403210759750351 1.3705990452325942 1.2667632442918506 1.1098457330347788
P 8.650470314346713 8.691326426211772 10.061389680702193 0.8842489141334384 -0.49148385278129547 -0.8639958203113572
P 4.197181939560889 8.44245280243821 5.760426169649308 -0.7197721024718701 -1.6228579468061535 -0.20881445723667907
Ni 3.8701661336069257 1.438467105150016 0.782006010421244 -0.08260980168243193 -0.6609012962775908 -0.1453462614797045
Ni 7.6071094439806926 3.9910839045375583 13.175274503283257 1.0024078165650736 -0.2554660956569471 -1.1495895885916203
Ni 3.020014057344484 5.891226928329777 12.731709359058586 -0.36625878753149826 0.9905185213266555 -0.2476157463745929
Ni 3.192980252219414 0.24477503061778397 2.852574472245218 0.9312589643343897 1.1680313402365754 0.35949601488636795
Ni 6.815728597178247 8.375614206359375 11.045747500728366 -1.2701676419877093 0.020485521547861492 -0.30364548357565124
Ni 0.19175388626162881 5.6944851840172594 12.752758694949117 -0.6562465711143988 0.8020440611989091 1.7054880602035596
Ni 2.6156257145312267 5.787194990287541 4.119183486325996 -0.5555901963429012 0.6362035364205946 1.2741777915883667
Ni 1.0197893233027013 8.345607311671374 8.375292438978141 -0.9116990399245912 -0.33846773346115905 0.340693023247252
Ni 1.3321262311444568 8.121640523229077 2.8719138973259644 -0.42198796277300227 -1.027797974503404 0.2930988184080565
Ni 9.165066303441455 1.7862818804442713 13.094196541480413 0.13625149826728794 1.2073198534235532 1.7064324263947
Ni 1.2863369709561545 3.838109942341037 3.0491613602099945 -0.688312341300692 0.06570994060329974 0.9812424953413682
Ni 7.743447939839059 5.321058837916992 3.8545349153202872 0.43949357575693343 -0.3600737417667089 -0.5054801670603875
Ni 6.756707001168011 6.483019270415126 1.7742865408372264 -1.3165853100203002 -0.1822351640862539 0.4547543585707458
Ni 3.2914021249692405 3.825294884102836 0.3011204863910121 2.2758191623010613 -0.6944004564763009 -1.197582314420815
Ni 4.009815031629573 1.4346930612260307 5.45825228918025 -0.5116790967822478 0.39456920444041726 -0.582698365413603
Ni 3.1882603791056345 1.6328628221584345 10.173804261759868 0.24254270272705972 -2.9201818374936805 -1.672329314063404
Ni 2.526532313986632 5.459149899627036 1.8030314026553145 0.30134228936377133 1.3859827267775162 -0.37095233635242564
Ni 1.7173568964467723 1.8991693760968418 1.817445097680972 0.2865980411750612 -0.7450383332378266 -0.8008716381573627
Ni 4.2935545157328265 7.487870056220186 3.557693842371337 -0.8517136605098945 0.7701466982696801 2.367580034355142
Ni 5.816803153062197 8.969242569813149 6.890639196293517 0.3475666104386336 -0.7181337955374987 -0.18030375139149593
Ni 5.457332423928999 0.020347382266341 4.321307184185149 1.039516805602229 0.2010654094188795 -0.7355041684951462
Ni 6.766276567088288 8.73211762823047 2.1322142701941313 -0.0008155539227598858 0.35617929180830915 -0.28867549252938024
Ni 6.781317105773065 3.4629124847187014 8.758788156815646 1.0273601156350372 -0.2160153458604925 -1.3334170368656584
Ni 8.391915850630545 4.952009270028323 1.4870549069998877 2.536396611042645 1.2589483762331222 0.7696635879856746
Ni 1.1193424819462037 3.8639255155213186 0.6283875861787345 -1.4839962646095282 0.1207829703180436 -0.08655001727710256
P 8.93981059090718 1.9621041085589739 4.975450997398924 -0.6739537585861748 0.19711490941156376 0.048717005589728996
Ni 3.6355912217026156 9.297315478979236 12.355351869753473 -0.7541179269415916 -0.6706393495009612 0.3716958993866695
P 3.535249872067617 5.168724701348861 10.409192401310696 -0.24681690462238134 0.3625900804306594 0.090387902965954
Ni 8.106970897952063 6.285146240208933 9.34044529003388 1.1162809471371613 -0.12515590257475864 -2.502794092496851
P 0.5277930881429387 5.921614009260734 3.1014935329112308 -0.2881167918124328 0.7280970773977976 -0.07812476932788481
P 4.475728635955464 8.804019192325265 9.806838299939304 0.5256419867202431 0.5464231851316524 -1.338704510516843
P 7.049450408244703 1.457448598792271 0.7783478769371844 0.998723682845267 -0.27695948964403266 1.0054730857539587
Ni 3.6379650675122965 3.1362397736669188 2.49451135949448 0.40991791898234564 0.28039165525403326 1.3187275531742835
Ni 2.24457321424064 2.0151354530338423 12.691659056571892 0.36624978867043373 -0.3003868674290375 0.7696795288252745
Ni 3.050892598540727 2.609032728708245 7.372747807285846 -0.9051419555323638 -2.2352633523658856 -0.37794008052416844
Ni 1.5220895329301114 1.1564801868984416 4.146611605546526 -0.997781630646972 1.223491578087409 0.06439970643230845
Ni 4.971064946352131 6.120136137930513 5.742620471509661 0.011617015413638057 0.6390502618407705 0.008404422013611332
Ni 5.161603163919818 1.4764764566104962 8.280411861988929 0.2150118442966426 -0.9697820601102523 0.6797845063353389
Ni 2.0669891474390645 3.395712248067299 9.289565243324036 -0.6949172482117194 1.8623981152614637 0.5626489029618955
Ni 5.811638183859101 6.948988511752182 13.161743582168075 -5.765352254477477 -2.9539090545427964 -0.01091124759586508
Ni 4.500366559066101 3.5554553799554895 8.913817906574693 -0.5473444113943413 1.6613334771735324 0.8032861611361263
Ni 7.5502855099114505 6.262390702642692 11.431414916568322 -0.9153332942430688 -1.5542670851106328 1.7403866718529575
Ni 4.517456394328766 7.196220843696394 11.220930830498197 -0.15359718863458707 -0.7858509963788144 -0.7489150425844134
Ni 5.492606289007229 1.430149371980938 2.5283998629947173 -0.4943017818460648 0.48527386731584166 -0.9705981282536446
Ni 7.984142922971453 1.0809343985723785 11.349713820240437 -1.3900612677222641 0.8098255049165409 -1.2961488965428194
Ni 0.7075813078701435 6.7402569915337365 10.750738740013764 -0.33180317695678985 0.9349706088580221 -0.7254190163450023
Ni 6.572390856015544 7.256540636633799 4.381457284238503 0.5188702152140483 -0.05108087783621525 -0.26371650859119744
Ni 0.14013757643737484 7.144394967796754 1.0604683240155535 0.27319076663021985 0.09355730183287113 0.897770602768957
Ni 9.112489327891096 2.471127123702082 8.827217044130263 -1.0780311596273435 0.4824207141377628 1.0164918054619654
Ni 8.031443655296387 7.7828853079194245 7.379465976383947 0.033783267098032144 0.8526212599258284 -0.1319317878460115
Ni 1.051771331887038 1.2262211803930188 10.899498198614582 -1.296328102433161 0.0439118708916018 -0.628140556906802
Ni -0.20097015716101194 7.579318756904073 5.185595697700945 0.45523412642064176 -0.8166314720947806 -0.38766245001825494
Ni 2.7236913358828825 3.497759799378005 4.982332368396441 -0.06103027573944328 -0.6832182146072363 -0.16115083261212892
Ni 7.584845366679738 7.625302746631452 -0.29007004869024255 4.7989969606605865 1.2791958136282486 1.6592105172932585
Ni 0.6479115406798425 5.174714952884227 5.3955771961035515 -1.4442881473866287 -1.3580931994560999 -0.202254030410342
Ni 4.8381852180211515 5.419731077217058 3.4549832833442546 1.7476801201905772 -2.2987570020441574 -1.6089094550458614
Ni 5.293833793787211 4.875675290710764 12.37539695759249 -0.05014088252044913 -0.18295533008173007 -0.16582329838713378
P 4.557746863246987 5.704286570817388 0.8720192762170902 0.519693482446292 -0.35033106055764823 0.8241648043573483
Ni 5.817470797196169 -0.1952302721758845 13.475277613033384 -0.6181680190751224 3.0105201181686216 -0.27061349282134683
P 5.793073967800578 5.287602448536798 7.590601942768215 -0.2440712235564442 -0.27708727347114864 -0.0574214753422624
Ni 4.05308208064509 7.895132977943605 1.5164785403541814 0.21774287007456047 -0.3473619506269953 -3.4603569848330924
P 1.5259377595356491 1.1946193580516387 8.612458181035674 0.32363169688959104 0.27482547402016544 -0.33814634556599826
P 4.891967662146739 3.442048605532051 4.328350829798563 0.36098956871275895 -0.9590803574220321 -0.038766836355552586
P 9.015782929652172 4.808373052872227 7.848356160807134 0.18537345260491947 -0.06355201372003248 0.01371297871071832
Ni 2.2259255426653715 8.369994868231771 5.037324917514855 -0.05919167986880773 -0.8976060521666348 0.7941003808718001
