# total energy = -381169.351611724 ev
CRYSTAL
PRIMVEC
9.21980663271091 0.00000000000000 0.00000000000000
0.00000000000000 9.21980663271091 0.00000000000000
0.00000000000000 0.00000000000000 13.49411895930781
PRIMCOORD
 96 1
Ni 7.681647613698951 0.9558634229233944 10.19388902826155 -1.8093382593220064 -1.5988626123328207 0.3915391593648418
Ni 3.2837446678103883 1.625691573767933 0.548700179031826 0.22815583787776836 1.3313151600313073 -0.4692453530980693
Ni 8.052707939900783 3.5226667294610934 0.33381230856392013 -2.09880385185285 0.9243146718060727 4.2201375093771
Ni 3.2145684607962166 9.376450855836634 2.237473667819213 -0.9897129947062245 0.1219206834669126 -0.9906522186910424
Ni 0.2181249444759927 5.02274766157088 5.475548946875237 0.020245380512597392 0.846484036679839 -0.6918661200902213
Ni 5.079292733891007 4.281161757935285 8.08394833172363 -0.7375379110957234 0.12887294641502967 -0.7544123182535587
Ni 3.2718326780113336 2.7226549130107833 11.257104188355438 0.23533461501439468 0.5952965137935877 0.28169931832186323
Ni 9.247096972802003 5.229750753651672 7.699905596205969 0.3993478567759832 -1.4790977988666463 0.34161270684804396
Ni 1.9866193327954913 5.05988504153264 11.215906405678892 0.606692414335355 0.3598716530582319 -1.486845046912233
Ni 0.9528116670228626 9.165686082766666 2.393114140726974 -1.4156154620422845 -1.2017685845880206 0.874418815416894
Ni 2.8873483137696994 0.3070011117097004 11.890477224907821 -1.2959272674503166 1.019917800424379 0.1626572419543263
Ni 5.031700093532864 5.449440299264583 5.980026324768388 -0.9825583859393144 1.2962293720717677 -0.2221535975477464
Ni 8.463653148355487 7.416301587060558 9.93921400548804 -1.0391563369390169 0.7885858788114741 0.4600528879655238
Ni 6.966098443184509 5.042035496446749 9.213001206953795 0.12311701776785894 -0.4146191811127569 -0.42613772327531774
Ni 3.2313024093142393 2.437366445245955 3.3062880163070365 -0.16990672442788804 -0.022491753344612876 -0.8474127191416955
Ni 3.7348052536766163 8.700602171448145 9.53470145592095 0.1516323515987324 -1.1701774400453009 -1.1515410558910362
Ni 1.392522671277143 8.471591401619408 10.240862097633242 0.42742918839323163 -1.1966577457240166 1.255675104798489
Ni 6.938051792279923 5.6520916427500545 1.5739813678956576 -0.7964783941856736 -0.29000809529787475 0.09204986404940922
Ni 7.184119203848793 5.380559126053484 6.72811311385856 1.22741251040837 -0.403972242921872 0.7165831632209272
Ni 8.610026793904865 8.634081268661626 12.624908558818907 0.8506762203843156 0.657470673329487 -2.013459167737758
Ni 7.150697405844478 7.985191298028894 0.6355516767919482 -0.5132842364858387 0.16826121840466507 1.050021818898611
Ni 0.019647407323363914 3.9349119306105864 12.15694622395916 1.296192605296561 2.001818755285352 -3.5271984679376738
Ni 1.1927294677589375 0.6095785603345815 13.717716531341608 -0.18153942357080993 -0.41152408712720095 -0.8260458234301452
Ni 5.067260886609454 0.8038896669994448 11.12170395631909 1.2212392917181227 0.5084752451329694 -0.5005408207772412
P 4.502999518426819 5.673822726307619 1.2074405907646435 -0.2746935764279914 -0.19730439971455052 2.116755551235264
Ni 2.4007638140522647 5.4832862083608145 4.619333190939602 1.216761458452427 -1.1573882587004325 0.26394199433844223
P 6.057652484298685 8.496171405337893 9.74668047748669 1.0880520341984552 1.17236313484271 0.14496239577772455
Ni 5.358698965207076 2.400376582185732 13.015414378585124 -0.14887278657572425 0.6847824737705626 -2.029952794517407
P 2.5789365716890584 1.257775201530093 9.638214987709597 -0.23315843329868235 0.5271381116497953 -0.015607624630269894
P 1.3771255946792933 1.3374435481660327 4.218517783717267 2.127075959324666 -0.728815700731377 -0.23027211288982277
P 7.279747035269689 2.6759565938682037 2.3584882360138693 -0.16751122761251797 0.7063481157564804 0.6529262484919142
Ni 5.5207370617383384 3.249861879488773 10.131235834237188 -0.07357700205620231 0.22117529279487716 1.3193973255477986
Ni 0.7124411737951982 6.6133947514176 3.622023972548954 -1.0819886016131948 0.35941579646773586 -0.2645719146129572
Ni 7.154376108576539 0.2720008828589477 7.832243008574171 -0.7476616297932865 -0.7187246350439621 0.5838052253245365
Ni 3.893468901085237 7.330372991915673 5.083072854492874 -0.4641669101338973 0.7183060594493048 0.5492663110074024
Ni 1.0115602730596878 1.6281532620623196 11.12685875004715 -0.1775621840906168 -0.05204144197727166 0.7049430078788375
Ni 1.768801407870821 2.5373552450685177 6.364231328877737 -0.6971438235493929 -0.43862274311620586 -0.35265662336703135
Ni 9.209729097681594 4.712510397833727 2.1554293770879043 0.010621227159272032 0.33614577019620173 0.38799077989195113
Ni 5.058566609225159 7.85742322168578 1.8475874190394468 0.04281400984173271 -1.4357705968339207 -0.5098117045562058
Ni 4.743571925413462 9.171983210500995 3.6652049355705283 0.4490452240011105 -1.115794494419046 1.8024901260519215
Ni 4.665378747792885 8.879872086040114 13.103571400923844 1.847659009279076 1.4070765713333382 1.7917413721758497
Ni 7.118538721309568 8.943627046922828 3.227334204662913 0.371134884676877 -1.2607581757483513 -2.1448924186807963
Ni 1.731995940937518 3.614763375051465 9.325866388319207 -0.555909784465849 0.34733701092633085 -0.0991913601901969
Ni 5.517795943513959 6.606443017432702 13.03919133717087 0.012120437412617837 -0.8806012900785221 0.39846982504640405
Ni 5.829757311037817 0.8105168638009623 1.4947574159255959 -1.7936051648574658 1.4024668404754685 0.7766909271461011
Ni 8.589863077426125 1.289002685624055 3.973856392616166 -1.4880444665369725 1.633618270646451 -0.8110539780070032
Ni 5.2933305382138105 2.0383424463966513 4.145662873971034 1.7918467874054624 2.0437498483014993 -0.4655511920759337
Ni 8.036665476858712 1.0875130377381825 1.0887982787428174 2.095376828449172 -0.11322032747943726 0.3222183614818322
Ni 8.825650404919184 7.589753803848191 7.649680701136038 -0.05754308852179122 0.2897931510735912 -1.0644824744086312
Ni 1.0469643294283963 2.4552713091699214 2.0436576647551306 -0.25245867628919105 -0.2526142280304488 -1.2899209133552367
Ni 2.203542936504598 9.146499665760603 7.221512894426971 -0.013179989025383752 -0.30289832099698155 0.7679471195152001
Ni 1.8611377684261892 8.625700464693097 4.567192420110968 1.213204594339104 -1.1217499406715326 0.22719193130260226
Ni 3.7783964980805886 6.262959132011809 9.731350705475165 -0.27811031541902426 -1.1453475254858145 -2.2001202288058495
Ni 1.6461411042434004 6.943924808922337 6.295707884152864 -0.008798572128236459 -0.25698253230147355 0.8168934675069156
Ni 5.295451093673394 3.4990916846343256 1.3921206877204566 0.6613867205544416 0.677151439587866 2.747420931446449
Ni 0.26824749969548384 0.5711494855037447 8.893514633490318 -0.016453774680649083 0.9436316269671298 -1.306991495684278
P 1.2720751211727668 2.721825130439642 13.226867871189139 1.498142474202923 -0.42641077443104625 0.938229996335584
Ni 3.9035461494214343 3.4577685125914743 5.566351131654628 -0.4036788800511693 -0.1370436551512801 -0.617315184156524
P 1.471167619408675 7.732070734605322 12.428393918437347 0.21727441507857423 0.2289760197862186 -0.025063884947163287
Ni 8.148501727835908 6.16078523808524 12.67746790885565 0.7296430817286789 0.5461953853915625 -1.0955542561127714
P 8.262882645364604 7.204227601489458 2.3717933385518073 -0.7451887427727617 0.01123006438786453 1.4930416626412482
P 6.606046565759823 0.7220067228791917 12.905397195399997 0.019768697986494988 -1.8502787062901103 -0.5432661275599096
P 3.7042323758332216 7.0004791010488105 7.731171803486585 -1.7284994334970685 0.4252967154312611 -2.094481313218096
Ni 5.835372173102542 7.028276817182054 8.151149656218484 0.8518926092899198 -0.6539078956788932 -0.04030795559042735
Ni 3.448954377724681 4.155117785378875 0.08843638247100265 0.58478790095278 -0.9401845489587938 -1.8430850167551485
Ni 4.977303236091358 8.911661978321185 6.872810598614232 -0.8492957950970212 -2.254630444038588 0.2832185831798671
Ni 6.519822936811864 0.40451808145089596 5.236365964704939 1.162007759750315 -0.8117574318319309 1.6775072587199173
Ni 1.2648375731911428 3.320928146803878 4.2477325840858935 -0.8123534135447171 2.980331510400384 -0.6348259393467776
Ni 3.817931027692313 7.4861784993570275 11.58498447351633 -0.7731512894239588 -1.0761527116577079 0.419450026842497
Ni 8.267234393959924 2.9767435561006876 5.677232210694376 0.36712833462064515 -0.18543721596331936 0.08742007858688171
Ni 9.003860041781362 0.7852297009357394 6.530209048660653 0.8526690824446282 0.3650603963480229 0.0191338926159735
Ni 7.286827846543431 4.768548380804823 4.1703839407266114 -0.14867738273546655 -0.27597295736104727 -0.7807414430663908
Ni 2.606771167047686 4.721057158316485 7.105989642892003 -0.01772312831137593 1.2603123464601844 0.5619223092085162
Ni 2.470437890609121 4.6860587734270025 2.147615591209654 -0.06935396511379023 -0.4776461755672548 0.8424188654715299
Ni 2.808011880162216 6.978757237297592 2.6310155698151743 0.5893935180455914 0.10835451474670371 2.036181549035939
Ni 6.027623575029705 6.5449561289111085 10.753139431695125 0.5619115105752387 -0.17340085362407556 -0.31555920429410167
Ni 8.751486282671816 2.922245280789377 9.969845890092047 -0.9829851890640878 0.6933403906429028 -1.5945308177266861
Ni 3.5627728870662705 0.9616811207277316 5.608857204851673 -1.0222299934973234 0.15871239837396536 -1.3467314945863773
Ni 8.776269122129913 8.39569395577899 5.061468082282251 -0.969624965707098 -2.2602053670232043 -0.5451939407102416
Ni 8.087116257184121 2.027924065225651 12.239894055712377 -0.17916423847041402 -1.7551831134358415 -1.2065050708317415
Ni 6.917611481610803 2.7150393529689727 8.207136008274043 1.5983278228752733 0.5512712572525733 -0.07724853737051857
Ni 3.155119149477094 7.4358199170950785 0.5409334141659407 -1.7490767434277876 -0.4365388640039837 -2.0275698961075275
Ni 5.365964172607738 1.923242383972965 6.650521989592378 0.6494321192957266 1.231155265280254 -0.7586312414309129
Ni 4.596119562521598 5.095021723517314 3.6186633531358305 -0.8431606287335608 -1.484133818628657 -1.1210205187046758
Ni 3.2846666484449902 2.5780699098925326 8.029000129862633 0.8344106504550728 -0.5728942348389875 -0.19781682057459482
Ni 1.5347566237771595 5.259410870666811 13.335805415051146 -0.7188619319527749 0.2952989113831688 1.399970813526492
Ni 5.023051915180299 1.261472343874846 8.716620662993716 0.7232294648928511 -0.14369355636762993 1.708537645663161
Ni 1.47071584889772 6.230975623797473 9.12503319064517 1.448637939714892 1.5013401552046144 -0.6754943636004173
P 4.155569555889831 5.255566211420522 11.496287170525736 0.36949040709491854 -1.8588728757170245 1.3583490242206477
Ni 9.001232396972746 5.194282158638541 10.030880086122052 0.1356128362420245 -0.2971431636807592 1.8808673777102445
P 0.044052234721273 2.6309454992869448 7.586797933933657 -0.5695047495414644 0.6671724739982833 2.2775135192843483
Ni 0.36718800753650455 6.928186599489684 0.7603325358789529 0.9826653438308237 1.4768347138640823 0.8971432535976033
P 6.2879263675968255 3.6510986318611214 5.778532066979342 -1.5454592570110157 -0.1737942324077523 -0.3034500797353935
P 6.742674876001461 4.741829382014064 12.475515426691206 -0.9521406928794053 -1.7388388677498634 -0.3813115680995627
P 6.837325407949679 7.330400651334711 6.0253259992882775 -0.06241687167432477 1.8140765453379404 -0.4269532771980776
Ni 5.853221718188433 6.87945992295098 3.7671796816800236 1.811846370455841 0.8176426869681145 1.24284015781735
