# total energy = -340895.259491526 ev
CRYSTAL
PRIMVEC
9.02059400961982 0.00000000000000 0.00000000000000
0.00000000000000 9.02059400961982 0.00000000000000
0.00000000000000 0.00000000000000 13.20255114869938
PRIMCOORD
 96 1
Ni 6.466313497558671 1.7061370855955826 11.203631724625549 -0.013383363285441466 0.9170687888769368 0.3506169672291833
Ni 4.70614305461175 0.40013189516656944 5.986353856836063 -0.6514892589350716 -1.267323744781011 0.0161239021450561
Ni 2.766264340353747 1.5287561275059787 4.919296981857982 -0.4593509768024927 -0.08430852954109351 -0.5892055704045014
Ni 3.396533234867612 4.3569197830759006 4.842880824908 0.009985136237169899 0.4016520794291276 0.0064074461882405774
Ni 4.992447683822792 4.634456395033938 2.7797835044042394 0.440518417477022 0.08772449720117796 -0.561837977024826
Ni 7.2218964822770095 6.098300328967256 2.6258290286253914 0.642522536660087 -0.05716307947455317 0.5122750784950338
Ni 5.22927435559275 4.366598880310956 11.831161966836932 -0.16124827742194164 0.007489880619141939 -0.7135832000523388
Ni 5.60968182017761 7.936841691558324 12.30801220884852 -0.23382537745871987 0.21244099824567284 0.6845387331908727
Ni 1.990808987314039 6.477544136941377 0.2848432930022085 -0.7454759349958774 -0.2146056099971594 0.5887597411163344
Ni 2.8478014884503664 1.6689271358336006 0.3184377887364082 0.39175513203038986 -0.31503984145552194 0.8747584581444999
Ni 0.7447465452882616 -0.12524463163158514 4.728849693530746 -0.41675422517788874 0.29183100743922646 -0.6488176256401793
Ni 8.54857326564531 2.2395879459772403 1.4790815211182735 0.8140601118231786 0.688020521091886 -0.9601458225720689
Ni 6.758030483098729 0.7893813458742649 4.795140233848528 -0.07099715714416806 -0.6430434421605635 -1.3427542551061842
Ni 0.5984298063490424 7.366253046165737 2.217012105669528 1.1961311837965851 -0.6636225518634958 0.30517169041219055
Ni 7.615284581457626 3.875932696710167 4.163543507915279 -0.1555568834641192 0.1771945163385529 -2.12346613048622
Ni 7.427656228718419 3.8928102278628143 12.633494179347144 1.2536645021263635 -0.9087921506904413 0.75370295089136
Ni 7.7985830491336205 8.943449762816405 6.767257648580312 0.3350599933311907 -0.5263770651140548 0.5730029925027099
Ni 6.656521740148042 1.0323167638209059 0.29114688400673533 1.4826754889155755 -1.2686766592644796 0.09209177303093817
Ni 1.9027770116226006 6.379968372923108 9.086061743848413 -0.3433122060376539 0.39863231876619737 1.364965758206217
Ni 0.1426606922389691 4.7402860024539555 1.3596254045805705 -0.7921401718216358 0.37089551497256124 0.4678888390701748
Ni 6.2995858608433455 2.0441477589364876 6.920486868611073 0.8021870145346766 -1.1557918607475899 1.8496161330054468
Ni 3.2551805287414877 4.330904390321098 0.3684831415326508 0.7287300829961063 -0.1376326948855307 0.8228136896460927
Ni 5.8456425149349265 5.509814825313391 4.869061294530836 -0.01667488955251967 0.6730569578035183 0.02040067514353906
Ni 5.256940517027902 2.7261046563924514 9.358430457571629 0.27874254968638446 0.10094176722240034 -0.3918376644418671
P 0.2435352874397734 5.523850869393305 12.501864771366096 -0.3767388611272157 -0.28468514042306453 -0.3527196153944829
P 4.155372653977242 6.127914938680853 12.498577666955606 -0.7840177998248175 0.25067278803336185 0.052629196159941626
P 2.4400706449978595 8.464122465724904 1.2288367159492972 0.9401974044746001 -0.31285851753348703 1.5762039943930402
P 6.098255225997848 7.64669428935368 5.6468105845946575 0.1129066528937604 0.6210165442675111 0.725798254061292
P 4.734251225147104 1.158244254409335 12.445094565831052 -0.3297262398231031 -0.17573927194926509 0.48017948351206974
P 3.9740587169552195 6.066998868197782 8.169976234252506 0.23027288422077113 0.01146377766522542 0.7062229030325258
P 4.642701217841805 1.2072441203746895 3.698536403610964 0.8983778973356529 -0.7052947347913014 -0.15147294320273266
P 0.1096408083350332 5.791645239959115 3.674705798694309 0.2772957899375289 -0.8444780619934038 -0.9497739924194418
Ni 1.5622495925887034 1.0379005114336735 2.4642828210357104 -0.040954588035490756 0.2355300188546524 0.7936404105162461
Ni 1.8367192026269652 6.53990350244552 4.789753135182382 0.7048954424703537 0.5048808429134918 -0.5291132330982952
Ni 5.981411473448283 5.467399992881673 9.029277105363159 0.05372397188601716 0.10670746606158397 1.4175710431067585
Ni 8.591276757081243 2.287721834929952 10.16249191792896 0.6187881691576246 0.1340580901603949 -0.12002140956167072
Ni 2.26548607101158 5.363645122054444 6.981245078701214 -0.039977311723885994 -1.1591857169204876 -0.5152452168669513
Ni 0.47773786844954763 0.058867493612538006 9.111674818116091 -0.0906180166988891 -0.05138786755367279 0.07737632119763448
Ni 1.6735547004949087 1.2546112588474576 11.468197624641101 -1.2042694966330034 -0.9613120749660282 -0.668181631989088
Ni 4.140163932692707 6.718556364272442 1.5738627051519944 -0.7933509043002853 1.1105026498924875 0.163726306648789
Ni 5.70901660000281 7.690056284142976 8.00392784825647 -0.9505093279235695 0.7319185080264169 -0.10587571418890798
Ni 5.377112868719811 2.953513828149923 5.06732402539717 -1.4349005355241415 -0.38636969934876036 -2.5260862302555718
Ni 0.6945992597811559 7.329376858377378 6.743004879869994 -0.34681379143300917 0.5270401526193503 1.2179621636287474
Ni 5.000187353373285 4.388582067600642 7.121363767584322 0.2072252583726883 0.9976584748055464 -0.2524599618407717
Ni 8.180560097053895 7.090619779516737 9.32560902673309 -0.6184734661306832 0.3004467741326955 -0.08492765118233114
Ni 4.556491402114468 0.2645027558583798 10.325477812302159 -0.08645360090855433 0.6614617967667512 0.14062982984064168
Ni 8.030953547526023 7.2778602467190305 4.915216967245293 0.20333903594440464 0.005681366655493441 -1.208603348121667
Ni 7.225757296458374 6.152532139383993 6.9388248339131655 0.46118005959143155 -1.0658503012904355 0.4518055603550671
Ni 2.261264433074948 5.337232823168848 2.515165284944174 -0.30770551257763784 -0.6741604752803422 0.6734634492133176
Ni 2.307513017906386 5.236644180794093 11.423810890386845 0.6260541066914186 -0.49092695183656093 -0.7791113636621356
Ni 0.9741068715023432 3.3149509838015834 3.839763723482132 0.38994019030883814 0.10176169202053444 -0.05781871078068107
Ni 3.497897648316192 2.854738325145388 2.8612042868397856 -0.5447460545395457 -0.24051770187723095 -0.7264415440722457
Ni 1.0998178678376118 3.513034204849672 8.223526087771786 0.16375638855577604 -0.22724463891740862 -0.3618686288836026
Ni 3.8141055462450453 2.5047212413479505 6.9265072129677145 -1.563202954147682 -0.22915368301466338 0.5518055324894884
Ni 4.089161494885618 6.749091074561972 6.089095714970377 -0.05070935342940944 1.0675240894484326 -0.48268116688800095
Ni 0.8288870367791379 7.2783473587886425 11.266924721596446 0.39459208725855266 0.10567773924548898 -0.12537573189504858
P 0.10584043213267608 5.644474250779299 8.103607214767951 0.28062228320760063 -1.0067442391568984 -0.8670610895002422
P 8.537288502699312 1.7242233763283765 7.868773192186459 0.13644690210754565 -0.996745990293606 0.7235377401618893
P 1.738611223569676 3.20445772934473 10.37100023932612 -0.0019234422749579774 0.600257971563921 -0.18854799367815914
P 3.787332423604182 6.337598643460799 3.8186528276208067 0.8346291942237819 -1.0004895164964382 -0.5427601344577684
P 6.906915385116066 3.8655950961217473 10.384175718749722 -0.2924794396565027 0.2707819000784111 0.10847561370560029
P 6.261248336846152 7.745785513144074 10.245932411334618 0.8870223631135175 -0.21425722551880522 -0.831148177653717
P 2.453691741759215 8.499420049583966 5.931496919263324 0.9291038656645998 -0.6207121256532149 -0.7645612337621026
P 6.918948857354244 4.031023767318109 1.767597097889719 -0.03933402171293225 -0.3734887296210342 -0.4370065476690216
Ni 5.203141695117487 2.827577316967612 0.767531663374029 -0.7728229595502626 1.0619859332390227 -0.27502164919137156
Ni 1.5992430480975248 0.9775076353957414 7.151491649089786 -1.2106733432768184 1.5351360207081368 -0.8245216734761348
Ni 6.794888629699326 0.6595587628477209 8.993934418534685 0.4873934847620057 -0.1757528987960199 0.31965600007129463
Ni 2.6376126304130465 1.53153447042154 9.179984167344598 0.8387270184422393 0.43367336953073055 -0.03440058896705689
Ni 6.532055585768447 1.9210346936391465 2.5451217751658874 -1.1399456377439527 0.3055095333675835 1.678666826245657
Ni 4.1789705275717495 6.918308395188644 10.283057567514112 -0.5108506873436814 -0.7783567448842982 0.20964569488872284
Ni 8.179567831726908 7.332272469013401 0.03385248471921614 -0.14453584976326722 -0.41992850914081226 0.4172604753903459
Ni 7.655092462257536 3.7317926270746002 8.186624642320556 0.11556594489347839 0.5931671261554107 0.3743973574782326
Ni 3.0527493814424234 8.260284105780295 12.386923462066182 1.0011842285706176 0.6392217544216281 -1.2457696727593188
Ni 0.008823042875683572 4.826649168277282 10.375976900970652 0.3089172734975518 -0.5433340046833676 -0.5487533759267258
Ni 8.511029553909705 2.203207890852374 5.671168894253392 1.0906154240502572 0.2772914190621547 0.6074472902235087
Ni 3.6224630292284856 2.7733184447692305 11.4015119823113 0.11879267936089218 -0.022476583835961288 -0.2535534520152666
Ni 1.2481525136281655 3.30384663273322 12.678779364752017 -1.6914709199888613 0.5537305174263432 -0.23013712997385527
Ni 3.1013974442463916 8.219601227373861 8.051350914411307 0.8118865012106274 0.268504416898144 -0.014313845519510832
Ni 5.593868719103003 7.783987728233042 3.3841046606174157 -0.01104623051183259 0.4051660061196571 0.6980372818979398
Ni 3.130100973977938 8.429853229568353 3.5093700396149283 0.07321781894457068 0.19237045274804287 0.026730988236941058
Ni 3.4921334888257904 4.19666893276763 9.208277260054524 -0.8921170040276055 0.30292300358732993 0.17560608880551049
Ni 7.112070751767401 5.9930660807434295 11.414000994540505 0.07188393062449555 0.3292405584359362 -0.3821985986902063
Ni 0.6512083990914379 0.13845078107438316 0.32550452198332624 -0.43925960536925635 -0.21422174429517946 -0.3214130919717174
Ni 4.671684385983683 0.3089138457161172 1.4843630788360045 -0.7005397366048193 -0.28345126801596343 0.30300296489564593
Ni 5.998830240233832 5.797725120235375 0.5842485307076335 0.7183479684308337 -0.8691825067186193 -1.3145726504656456
Ni 8.0549122448758 8.78232391490161 11.223118913588172 -0.6194049768060171 0.22595137402728183 -0.19528634084325722
Ni 0.16184749542532936 5.034249115870556 5.693678884225768 -0.3769491773658089 -1.1322248720609274 1.018862105466355
Ni 7.909130427153763 8.818992629030692 2.3582529564315187 0.21462797859466262 0.6531903007865782 0.5508336554945223
P 8.684603821381234 1.4016649803068109 3.5667356043461647 -1.012345644504076 0.9729972246134403 0.9799785410272799
P 1.6029144298073736 3.108821393011025 1.7005416112107687 1.4371677342917635 0.569650016870077 -0.667645814090276
P 4.7068827433100475 0.9478208609310909 8.176775055861137 0.06064769558904394 -0.1766836381404054 -0.08501584002076325
P 8.52069963055088 1.5450563406501971 12.356782049669894 -0.15503906328743622 1.1332402006993194 -0.029583112973755505
P 6.45202487685007 7.863513283894044 1.2479026431776428 -1.4732961045832045 -0.4761914453985992 0.048594106858619535
P 1.878673984770718 3.280591541706216 5.981587375028975 -0.5829801583200799 0.032323908943686266 0.5658460697429545
P 6.907122858775345 3.9364699022502068 6.160904152565592 0.7711519996057428 1.8593714126199978 -0.49371042811896904
P 2.350586353691468 8.55476139304815 10.135505909272489 -0.15613898121983436 -0.6608519310968942 0.7576809617025017
