# total energy = -381169.00034636434 ev
CRYSTAL
PRIMVEC
9.18178652741372 0.00000000000000 0.00000000000000

0.00000000000000 9.18178652741372 0.00000000000000

0.00000000000000 0.00000000000000 13.43847269207371

PRIMCOORD
 96 1
Ni 1.7597444832432203 8.116965583008206 8.422374758165143 -0.5990115007513297 0.42810795962781106 -0.8477688169295337
Ni 1.3326995907502006 4.610018936950608 2.6192790676540794 0.47925440059463914 -0.8358612668586702 1.035527739047494
Ni 5.502350862922101 4.868164865835606 0.7516862377599504 -0.12805070762405046 -0.6206105670783439 0.08170348781807864
Ni 6.3011662928703425 7.719954314323931 5.579828614197839 -0.2550272083473156 -0.0427121941565458 -0.7634960257223818
Ni 1.4865587879874729 5.582085497332107 8.727670079168844 -1.0957226633698356 0.9658629275615045 -2.082634441181839
Ni 6.306941636611002 3.960141266648234 3.235244727508513 -0.6101821726561685 2.085985617042259 1.218940982602249
Ni 6.8260890299984 3.6979002609614327 5.762268876611467 0.13149521452922516 -1.6874898238539262 -1.317760561275324
Ni 5.4855941024662895 5.476485770207569 5.35634668407932 0.17340522449944976 -0.03706065229772327 -1.6747044991637996
Ni 1.8767663528373622 3.4193340387867233 9.05122797362274 0.2933348456782625 -1.151096769264766 0.5732225647126838
Ni 9.089123961255217 9.131810086931416 10.478138203459457 0.5572902097531434 0.14092422115260891 0.08406838850582941
Ni 6.668171483105528 8.940204565182452 2.6629136718810105 2.549333887929603 -0.535467200340781 -0.478040582792196
Ni 6.836785811330465 6.165046307249852 2.3923576402935063 0.7281433572547008 1.8077477749064352 -0.4165086848259859
Ni 8.851407507446481 2.0651031585741246 8.708049519487735 0.16643779204268108 -1.2418813934485065 1.6306208785810241
Ni 5.963726455329793 5.196643279702253 8.739092221638447 -1.9232152465488364 -0.5347580900888983 -0.4566307496578523
Ni 8.522653639983298 7.2997314892384 6.590509177920112 -0.7056590601092556 0.12580639167456398 0.8512979131287146
Ni 0.4833944347359548 2.4906606016458612 2.10974592296437 -0.5064731271012762 0.6167400283793443 0.37009590188940134
Ni 1.0580264460731703 3.56656398613408 0.24626836980245703 0.8241128680734904 -0.017422566351821607 -0.5834367862415242
Ni 3.2741699934133703 1.4097255981276235 11.398754622901704 2.6996917436912864 2.6883048420105826 -2.0301114315824584
Ni 7.681399992595739 3.707495227907362 7.844855993136251 -0.2794580876961703 2.2377223554293395 1.274733664091837
Ni 4.904304377700851 1.07192767091158 1.9414428573035163 -0.5705946401715334 -0.4745827061505826 -0.14143561357138867
Ni 4.017297887929013 0.6408602377305105 9.01206857216083 -0.32017124914481637 0.9379111795435847 -0.8539582335696969
Ni 6.062797932216476 8.58185779966498 7.647324546347187 0.030165724950102883 0.33760589968149596 1.142377130003581
Ni 2.578759843603946 6.6020626199373975 3.360693640799281 -0.5680968134503441 0.6388564006624095 -0.8627385508654883
Ni 0.43481635662989543 0.5087242292945549 3.0142363706868673 0.06125473304542354 -1.7231839348214255 0.290096541246623
P 4.873572938114221 5.671121281518407 3.1252919153800858 -1.2531032303062548 -0.13775096563094988 0.26304982154147605
Ni 1.703579494909963 6.704558903207653 6.381621697524612 0.020168761638391073 -0.1234342918979616 0.11522861615871768
P 5.169006102183355 6.565161019788409 11.281127673573842 -0.3843716950821251 -1.5026755861865864 1.4650786017694188
Ni 1.6140662578230043 8.336759189469138 1.0656950742006732 2.5914393017400856 0.18511788495068765 1.0331245289226403
P 8.73942643866891 7.606990794385387 2.779721605848511 -1.0897003684351556 -0.10347918893227341 0.0027824478411435953
P 7.249856024692666 0.5105266139945416 0.45396497248227535 -1.4875536429434832 0.6781832232864901 0.26150844519628513
P 3.7839611463051663 3.412319153861661 0.029064945327599522 -1.7546786629955973 2.2773212007678847 -0.6229032197672627
Ni 5.51356182430103 2.325865896626194 0.1386578314232227 1.4601752509305304 0.028279049450351295 -1.1144467221418999
Ni 3.324449456567354 7.36616171493582 12.84879285488206 -0.0689094213772039 -0.5437212128194572 -0.4399476325752165
Ni 0.6169517837300252 2.658246569777072 11.651989214160503 -0.39888865775137755 0.1338084360434341 -1.3754805416946119
Ni 7.003545418672074 3.20188178789633 10.237254033290581 0.0838164203960234 -1.9842750899746342 -0.8602196410983767
Ni 5.180924061126721 4.410370170182855 11.21464694805039 -1.9148362784565218 -0.24264811795667243 1.8354539825724518
Ni 8.058918328431968 7.607146884756757 11.771846419441633 -1.0948688000099724 -0.22705437728347347 0.7253637376270347
Ni 7.032302774150211 0.5257206343793502 9.842243475895799 -1.0321799056211836 -0.7391944728625398 -0.20188661976859426
Ni 0.4503794848340595 7.7531097455600575 4.68825326743816 1.7087741871539992 -1.9235402339884224 -2.4232691003873295
Ni 2.5561267397554124 1.9233271924381383 3.2849136018568466 0.8449259481640997 0.04762017298112444 -0.3689067666773066
Ni 6.1519071706951864 7.813085175312034 0.08703690925411914 0.35850228351453095 0.8316801388977871 -1.049719971387476
Ni 1.5140674204946558 1.2733668860568037 9.870463696860694 2.1303358610228598 0.21531729135220337 -0.6729286597557701
Ni 4.458491913497323 0.29138766891470597 13.12359546274946 -0.13127204277482554 -0.11409784498838414 0.10913458744583786
Ni 3.7748069051136905 7.115113307054845 5.209934833913668 0.44061431962493797 2.3217537200496468 -1.9418210345754816
Ni 8.694683592805257 8.063784675304067 0.6548275714320883 -2.189737857130261 -1.3383671817820821 0.06900455219417148
Ni 7.265795606145426 3.725454802401371 12.943466256010753 0.9555535752156963 -0.5953029415514909 -0.7654163826735463
Ni 7.879579673515312 5.880466014884154 4.531533943690211 0.3722024067094429 0.8359000905164056 0.1844846222420629
Ni 0.4916323336296279 6.834003730005472 10.290738858129565 -0.16177252535652786 0.16005245734162757 -0.15866611851706225
Ni 5.569056542216054 1.1320224638887206 5.910697047103746 0.7545840679447328 -0.08267433637178019 0.8229296463986666
Ni 8.322352966370415 4.633845673050788 1.4485195644847995 0.42434155060684337 -1.3030955030639815 1.0239762867644688
Ni 3.256182873559708 5.556532585360314 1.2028801470610948 0.025590189764278508 -0.5297698928456877 -0.43822473634683884
Ni 4.464184621159023 3.1756861508659586 9.41594781718535 -0.41646214785876656 -1.330042978187103 0.5170601585885031
Ni 4.1298849546189595 6.14519528472631 6.9540464073749355 1.6117916616896628 0.6207951722853244 3.624279209542771
Ni 4.627657148915327 8.512195585101562 10.860583485959022 0.8790686554840795 1.5046717906810085 1.626930059992998
Ni 7.323815315362011 5.919819152042292 13.348474860781064 0.8087597826561878 0.7977184372403616 -0.7224321658025364
Ni 4.113330193467274 7.460623934973837 8.961015084400586 0.16622079093586856 -0.5824708227838291 -1.754509741517901
P 6.983712759721635 1.8303156946751993 4.17599221396411 0.4715290069259235 -0.17595910126955502 0.7690616927356174
Ni 1.6113025400711143 1.822814175062927 7.292897485508394 -0.06738758541603879 0.8095956482939217 1.2292161392760121
P 5.468460888761883 1.3902143017064739 11.11219290099827 -0.03209353810043505 0.8314608237981294 0.019614946017450088
Ni 0.18721938231348997 4.446243410238116 6.16649886588224 -1.5907428114391637 -1.1741042859035329 3.6695236832028675
P 9.154755371522688 4.238404489866756 9.93425691346063 -0.3006843440647983 0.10527536160074771 -0.17866184491269876
P 1.0617450696263777 7.304405018592925 12.45886166180736 0.33473886254634605 0.4156666485406648 -0.2965721216686376
P 3.264373027163315 8.968961920660588 2.5234900794594237 -1.248024530231767 -0.21297861591669773 -0.10264460884612
Ni 8.12781845471164 0.12545258600538867 5.056251926978178 -2.24731231311062 1.5115314939153195 -0.9721207355457582
Ni 3.2477448117192202 2.0294227360364365 5.886683002557922 1.303290906904239 0.18726167076656783 -1.0962052594332088
Ni 2.962558521441147 6.061824662842057 10.425822220048435 0.8351336446640263 -0.15377408053208355 1.8149445497651904
Ni 7.667627312769045 1.6381225385869629 11.89268515770508 -0.9786017152844114 -1.1100825316359333 0.4717215825527037
Ni 4.836046976479755 8.960909493855247 4.030346124796823 -0.08815258587753205 -0.5964609664153341 0.44214823977096107
Ni 7.089064578609291 2.3795793479503 2.054393522740887 1.4430079951226245 -2.0921961167283447 -1.7488983088683943
Ni 8.480995874400827 2.1232881399486305 6.454807881766353 -0.2821749724067011 -1.3466661885660807 -1.043163658326197
Ni 9.252486307572907 5.252817449822063 11.970937851765735 0.5256440436027721 -1.1033105030194224 0.5430239296421164
Ni 0.7209263346350124 9.153727011428963 6.448868184046428 0.7640485557917421 0.5445542502437137 0.9252821779256645
Ni 4.710091228571366 7.3526277615594555 1.7077076261433506 -1.2126050130818924 0.7180042119381699 1.068942567062514
Ni 2.745758177395884 1.775638155763225 0.9626928744914508 -0.790421132248 -0.35324360621875295 -0.6285575898395627
Ni 8.515510210046521 3.6944570910047587 4.0935875160250355 0.3673047122975094 -0.9025487408838907 -1.7003489392047813
Ni 4.962213905478822 3.559145102600768 7.14447023319477 -0.42063093452447553 -0.15248364385543417 -0.6177029065132458
Ni 1.7739027981050617 0.5212068681108151 12.42815501304442 -1.5582710640637034 -2.3208659181280544 0.7354113516710238
Ni 2.776829343084905 4.476534124070292 6.692990770331885 -2.5933637724563083 -2.243738479716433 0.19013256455645963
Ni 4.823651564635732 2.1844939290984575 3.958449981565516 0.20579932455943914 0.6453278673193661 1.3036171798954066
Ni 6.409327738442644 7.291054700947583 9.75924747090283 1.2792400366026229 0.8911734091674136 -0.39900307184205475
Ni 8.096554471505046 6.006577853163913 8.566206526309927 1.5899925635367003 0.48313213838249053 1.2973346893208044
Ni 7.1364058700669135 5.255388350056378 10.91268461556475 2.080059224255495 2.9052797235708674 0.26372576456257807
Ni 0.9432173870378506 2.188928732002653 4.759799584601868 0.010029359211544018 -0.46101705165100604 1.1837184119545292
Ni 6.364465529353827 1.8734333643193022 8.193840090907536 -1.1459465925223942 0.021147066391260357 -1.0092328099067072
Ni 2.3538978909667914 8.293072249058865 10.57394096433394 -0.22638614757185527 0.5581600139526064 1.2486346530119399
Ni 9.24559996765956 1.151818395692955 0.14100469606569133 -0.10037458186502068 1.339562487641764 1.4020876027591789
Ni 3.4263121965655814 4.502233944626902 4.500638150124316 -0.32552891391230393 -0.48156890766042876 -0.6157833208930298
Ni 1.0984079433250364 5.798876659590818 0.6726641099863119 -0.9032678784381024 2.0443833681204406 -0.5368054595362304
P 7.210925249715878 5.651857893334137 6.680331841213843 -0.9535236892698611 -0.4223299194934533 -0.09205320648351888
Ni 4.089815638109831 3.6719708957410435 2.3612065930614907 -0.8149934222707255 -0.5199809317797238 -1.0861357910123486
P 1.1881507250757735 5.204512070776571 4.741952946082439 2.62117256713846 1.8221899184736938 -3.1110888183223198
Ni 2.48243372089605 9.087921147217019 4.656793712178026 -0.41377945882028094 0.2392676315202137 0.5147718767749586
P 8.525977446714808 8.630264178362534 8.36328537081535 0.07827800707629745 0.10493674731440636 0.2850844327440123
P 3.5555642058458274 4.997104694373113 8.663326873554496 1.0570543002653603 -0.7869951372855866 0.4221954507981181
P 3.2738945398168364 -0.006262896606525236 6.974083820165465 -0.3717594056347533 0.05844554573140257 -0.27091302633963665
Ni 2.664600366070453 4.012376450337608 11.507834247129118 0.30891701638723573 -0.9701235026100713 0.893627784245177
