# total energy = -340862.6676776008 ev
CRYSTAL
PRIMVEC
9.32866721358491 0.00000000000000 0.00000000000000
0.00000000000000 9.32866721358491 0.00000000000000
0.00000000000000 0.00000000000000 13.65344742321326
PRIMCOORD
 96 1
Ni 7.958565757723917 9.212180027788516 10.276977411541289 0.6116204477645918 -0.38910920976711055 -0.042677741374184563
Ni 0.6481763127440421 5.9009229995127646 7.00507896260094 0.7666438273227442 -0.6152457032220049 0.22823811317892947
Ni 3.553970288721946 3.4305800090724032 11.205807606668673 -0.023546162751056223 -0.942055026508629 -0.6502787835667382
Ni 4.694381183603421 1.1092718041224092 11.932621784413223 -0.5051932319475879 -1.122818748255679 1.1442481217740488
Ni 8.634903450690688 0.2759988775035406 5.747009321132346 -0.567444524578326 1.1893169890882291 0.4305098842010843
Ni 8.982760117950972 4.925797428199037 0.7352174410626372 1.5120799102196218 0.0008878019215920194 -0.43207080093030104
Ni 9.143343793303451 5.454900768424541 11.975193156695727 0.4259130088590214 -1.1046698452607944 -0.25476289894233545
Ni 0.9363463022048488 2.7884598670056486 1.1314404486040885 0.9057551636363305 0.2839004397382401 -1.4049975773171222
Ni 3.111063832443048 6.092683080292685 6.327635822583555 -1.127661678170277 -0.8410746927388095 -1.9208642298181562
Ni 5.38117631238233 6.921973598929214 1.5216352714695336 1.6368763725724327 -0.6797569955315131 1.8657456915774577
Ni 4.565421689698887 1.8293889317603307 6.061816386612756 -0.5420427966757697 0.03374135811650318 -0.19570465932759845
Ni 0.2702552171738949 7.507664633745642 1.098237856683876 0.8437021030593277 -2.8948459298320532 0.1216453183183389
Ni 8.6996164143203 6.384633045659894 3.7605144411121016 1.0831183443422636 -0.9018067205115438 -1.3817365499066525
Ni 0.6487546901038571 1.9575368316277053 4.219188210512921 0.7318717139488814 -1.7812178469367066 1.3132678156112931
Ni 6.707815388457108 2.0737440376150307 -0.23517756316783076 -0.336810143253078 0.5522454482403845 1.4392966077093083
Ni 2.877091533063735 3.7110743712484404 7.018963750703335 1.4648865403632707 0.3084079379613011 -0.40718226521873746
Ni 6.122907961676559 2.569683966322117 4.508504693159554 1.8818765357010494 -1.536665827089102 -0.08108719439031842
Ni 6.39028621791873 4.608305572329034 3.3132141826320294 0.3237885341824294 1.671144035506051 -1.2897435072371077
Ni 2.2242434238391233 3.7947245290784433 4.729786273824478 -1.1879956991736444 0.4589357436419451 0.49675692825477674
Ni 1.5653223523364552 8.750550936652385 13.324193980661029 0.016475371947203884 -1.7197381423646703 0.17457044845214453
Ni 0.7226582565542696 7.855549287007208 5.340573288856615 -0.5628394217061468 -2.2459761107976997 -0.24760340507941872
Ni 5.160683936953541 8.595098028201491 10.14679119791392 0.7640570404321745 -0.04596206855241117 0.47920092164888434
Ni 0.4320488206484372 4.537202471740176 9.497255698374314 -0.6500450702893773 1.177661664237488 -0.3625497141110272
Ni 3.3918940266344615 9.067268513153605 1.0260097188435078 -1.4836170268932385 -0.5870455866387051 1.796043084874997
P 5.239305943219992 0.24377766136159454 0.4541297756594349 2.4799506122397745 0.43000003444420143 -0.6908122249044103
P 2.502461591244276 8.718889440536067 5.468233299434984 2.84255020575213 1.2783563484460887 -1.21059286774787
P 1.1229289727477156 0.010233547801886157 1.8569234255543572 0.4482301842989828 0.9015287842598088 -0.49676798399837024
P 1.5025497514623511 6.029845178748924 13.316043524221184 -0.7938679531460199 -0.6176651112967749 1.227910533090711
P 3.166933219667748 8.68055794744769 11.553560725724216 0.8649005915138137 0.21798018289634719 1.4007488293430974
P 5.219351924306378 8.379008783640971 7.611741773910913 -0.7140362284293573 0.6788794780225663 1.7417095044294393
P 1.6921082668081366 6.617439261652485 9.258006172020044 0.06778842039888326 -1.222748272163481 -1.5208810534510195
P 1.6078330882828502 2.875850820340261 8.406686938908242 -0.46617134215843586 0.7297803786374916 1.016928378778752
Ni 5.715002664333556 3.8131952899241446 9.555078508488455 -1.1768412252187217 0.3096189275502668 -1.000510856652677
Ni 1.9190840658671087 6.713832378732602 11.307225143845505 0.7874322248230051 0.9528536597860301 0.37661082018978365
Ni 1.1671468547722739 0.21085772805432376 11.327295771097793 -1.2605401462002743 0.9066673910379547 -2.01888496673902
Ni 6.644604340229596 1.8169071751888413 10.622860132844528 0.4571922785882772 -0.1900654587639501 1.7519118988837377
Ni 9.091196544249172 8.778229091919657 3.4738053209181823 -0.4967520431587703 0.9397616024887622 -0.6140136305871168
Ni 4.116134425127838 3.2893533179395367 3.6246349419573947 1.2431754296695816 -0.09170019401947432 -0.7971746489217497
Ni 6.168198640416904 8.87882010919198 5.734475324025132 1.7203827179272049 4.145114004682358 -1.0596567708852138
Ni 7.762020070724883 8.520198160105462 1.4233577636364698 -3.1084331258670272 0.8259625196877195 0.6299876374178699
Ni 6.974279435324088 9.258151699226708 12.824491800515018 -1.4660250248430882 -0.6925276649336202 -1.2855688070341278
Ni 3.6565389834181516 1.2595846170046259 8.27463032752857 -0.7990399842652627 -0.6723715017007194 -2.198220954900608
Ni 6.231894779333293 6.785849688696651 8.698925160088649 -0.12746166788979985 0.131762866368315 0.4847750733025522
Ni 7.724127024989914 5.264763875718941 7.858541923410896 -0.17604523322545812 -0.8828312078503053 0.0053417239278875745
Ni 4.379846515202149 3.1614852780849754 13.131011278149307 0.7255632552323503 1.046586825075133 2.2794505884060614
Ni 8.388943814095855 7.593329783667903 7.007972715133433 -2.046497072029334 -0.7808018639906811 -1.1370274356558934
Ni 6.769356605274832 4.399884492119607 0.4475558639584421 -1.8293075033550819 0.6056498320034537 -0.6416565891153659
Ni 3.001965070781189 4.575244776148646 9.450410863696145 -1.0321439101769256 0.8512431486313792 -1.2786458546620496
Ni 4.841037158984873 6.183768185796437 10.956400094715976 -0.13468903887617448 -0.7298176596333302 0.2394347532256973
Ni 2.4635610494631774 1.5673839877641824 13.227910008985909 0.5916558317172068 0.428595697897507 -0.5925390056531086
Ni 8.084110959472124 2.4829366910169766 9.015412318512652 1.343977585990324 0.37825864020585176 -0.26758730440051337
Ni 7.087258922496962 6.632495730341859 13.159124149303148 0.4986083796412186 -0.20533369777693025 2.171284792631396
Ni 6.828453711313983 7.562815713604119 3.6510406670330733 -1.0494314936127798 0.17636687823093497 0.26321694324695954
Ni 1.2614130357550084 2.6751632051515855 10.661608617351998 -0.5220352432055912 -0.6438929346450523 0.8752863056235118
Ni 3.292301176741174 4.109343155483559 1.4446299232104363 -0.6555981388971226 0.9872475638848673 -0.3523822866597222
Ni 6.446603381163933 3.1099257350576055 7.264780658691632 0.638237793241804 -0.9006803202165843 -0.9635844159399727
P 2.354555574472257 2.546110424576113 2.727535275082824 -0.5081307173093571 -0.20334160704756593 0.372752622785958
P 8.484152190455063 1.9912133198362825 12.005940443436858 -0.18363024466156763 -0.4216272369994739 -0.8744195867478425
P 7.117119985864179 0.5652481937470986 3.7423552577473327 0.8648859362257945 -0.25972487093330104 0.5755740956639958
P 8.764851783307163 -0.12642302932173324 8.19533106003111 -0.17018851733436496 1.0878329762091137 1.0105967801337692
P 7.515202196757422 4.708849946265888 10.205159735053048 1.563880696940997 0.33254956820451115 -0.2596953032469463
P 1.1145238436962122 5.677128275932775 4.804538748980425 0.6082546166161524 -0.3768347632751316 0.13451394675089093
P 7.461991479654452 5.971895498762309 1.7069268544866198 0.032731685905066206 2.5281724233606395 1.507927578614145
P 5.127921658120155 4.740156953032643 7.42081287736905 -1.4086945665527353 1.3900887785260898 1.1127479942832383
Ni 2.0379872566445387 7.908134983414895 7.496275264090834 -1.1147539689696737 0.9530297803525781 -1.4107583910602992
Ni 3.8116280738523884 6.548416453825542 8.421009241497336 1.6681854670983594 0.050198218120945805 0.3833568806643656
Ni 3.274586037930069 6.689633816291314 0.7805333072041344 -2.1045029591201563 -1.2651298224534857 -0.5544547971868774
Ni 6.327401673039501 3.818932420186825 11.944308738548322 0.4703555554431126 1.5745685156721463 -1.667311292023522
Ni 8.543566471175403 1.7031907233155577 2.260942400186088 -1.9834096566505452 -0.5996555620932318 1.638288422428611
Ni 8.932012168960762 0.9530352876356367 13.90562647894914 1.2820142569136501 -0.6863482755957857 -2.12571687419361
Ni 6.271681544488301 0.7700003091885376 8.492812924984936 0.20274022601814112 0.24656185118878177 -1.0078580410463676
Ni 4.302073417641233 7.81086497162796 3.971091376286902 -0.7374723479651105 -0.7567430232692645 0.6239080068826932
Ni 7.495807897869437 6.724420415884052 11.039481203853258 -1.2135169833732005 1.2178238382786704 -1.919435210681114
Ni 4.973392287711547 7.589616974164574 13.051575812112278 -1.2030428233147539 1.9795805127124424 -2.1685121149822657
Ni 8.86033069101209 7.021239945474219 9.200129255636762 0.6545118478114793 0.09041309977693462 0.2450793531059844
Ni 8.486055238542196 4.321505031197595 4.974210411815672 0.5500165589098657 1.4186298233885761 0.47444669479335067
Ni 2.938744693886584 8.534359076753834 9.46339543542399 -0.3816632950120265 -0.029203875257465838 0.9640215034773915
Ni 9.388463849859841 3.6870996968174037 3.024197150199107 -0.24343153308991625 2.3383908143856953 -1.3417098730020698
Ni 5.287283278083347 7.0336004293734895 5.9910099376374815 -0.38213406400085803 -4.481658295868559 0.7206053970064429
Ni 2.1046125970283773 7.673649607345423 2.9625523851766418 0.0040127207038188955 1.193027605170597 0.7874646207228373
Ni 5.532468635309394 9.186684780621192 2.5753268770471496 -1.0151003244310777 0.7463243990391017 -0.593519624398823
Ni 4.372570154868994 1.9326292904872897 1.4714731627728133 0.5896897091297715 0.2523933702688944 0.7797564534453022
Ni 1.3599797322679792 0.8363429909594343 8.650168881522964 -1.309382621624274 -0.7975780550077554 0.49059579374938733
Ni -0.0994818387548716 3.6169574489392065 7.126116552409429 0.7958343328437714 -1.2515142885525803 0.10263175333031356
Ni 3.2523744815797584 0.674842307631637 3.5141107599636054 -0.388168443120396 0.16766240847840155 0.6699019571143043
Ni 5.149293634432025 4.6045274621560495 5.24992756357298 -1.2947882687498669 0.5034495097836038 1.5865562841616416
Ni 2.0045812997816816 1.4109142546000653 6.204726902156052 0.07187261777058589 -0.24173254812093853 0.1707330769839253
Ni 1.370409182078835 5.624971698211403 2.2886177568532307 0.7294340510416664 -0.9209012752491496 0.461386776285599
P 4.6354706509061465 1.7067356168111976 9.924881797953587 0.4188471031511754 1.229221795702967 1.0883029738669965
P 4.726173281059053 5.41074818706964 13.17900353888001 0.5632469415572106 -0.5127587029996719 -0.6286012985933045
P 8.183237376010723 2.4161994066280124 5.537852209089219 -0.5298524252571649 -1.9080333966020753 1.164177256597808
P 3.667182992572165 5.902042439564019 2.796881787657921 0.22331059397032507 0.20775053474853902 0.4830807163192648
P 6.710026282558337 3.0568829339623234 1.9609222049160413 0.04728515823920888 -3.1809778300039735 0.48030263935349543
P 8.671602427037651 8.207174735773384 12.571043109977293 2.1352942334694003 -0.9807537286304078 -0.6210278571214207
P 1.7528285609216072 3.5914715304389757 12.816040028128045 0.4615233018634632 -0.000583640417611898 -0.6999928629624138
P 6.983244284401218 5.78355903880581 5.100218315451731 -0.6022624035884595 1.807399390428081 0.6879511013065313
