# total energy = -381173.30649466283 ev
CRYSTAL
PRIMVEC
9.24115523587781 0.00000000000000 0.00000000000000
0.00000000000000 9.24115523587781 0.00000000000000
0.00000000000000 0.00000000000000 13.52536479798856
PRIMCOORD
 96 1
Ni 1.8559196293387352 6.937538320469018 7.099923895112204 -0.35001995707513267 -0.03618493456098929 0.24113965173194596
Ni 3.9136938060785122 7.116456321303683 1.0440860159032168 -1.1105810685389068 0.02848113815882837 0.1259781413657379
Ni 5.27418587781448 3.3077974822974703 8.836391431553416 -0.6636022401485216 -0.14712520775699822 -0.1546019757500176
Ni 6.502658810047117 3.6943180289071837 12.927367554041835 -0.3272420399486687 0.8205927707353737 -1.6062023405273436
Ni 2.3824344321668427 1.324386879377049 1.4480529389281858 2.5440703255378185 -0.21535380101709364 0.5638514079104289
Ni 1.3247750078846188 4.660222025768955 8.640421651619526 0.8603898481276537 0.21100683690230757 -0.39517984144122265
Ni 4.454301370193375 1.7135134316804441 2.9292418871323824 -1.320859769025938 0.03020763393163185 0.23035310263940326
Ni 3.261545501812088 2.5722754781431094 11.203261910566717 0.059937556895896776 -0.33572230950553794 0.5069300121330366
Ni 9.284218724164745 4.461056654456074 12.243294755912313 -0.8020116652990767 -0.16588500486300461 0.8837472919066716
Ni 3.9979454156859515 3.4665328007385128 4.538950349463326 0.3289878189951818 -0.13676777578207414 0.13444195586237492
Ni 8.8131416098345 5.711680635085007 10.05050915369894 1.1830100730335948 -0.005122665938546016 1.1205458930611023
Ni 2.054456602115551 9.092353865256149 13.398997289437617 -0.7556099381060857 -0.03821327784492774 -1.137422357101467
Ni 8.91082061757286 2.887435826289661 7.92686402453163 0.23319905672863064 0.40624921188150687 -0.36553373644001563
Ni 4.107536272144723 7.4109811704644475 5.647123774890244 0.023261541631101876 -0.880940932806128 -1.502578912707722
Ni 3.264678253337471 6.5374425172493105 9.877370571165086 1.192482017079772 2.016023843141141 -0.7750297373935944
Ni 0.9312311835188831 2.7203002980062183 2.0238406557922595 -1.6207028481363634 2.328431132069822 -2.0686170438568245
Ni 4.299114655250111 8.207476314927012 3.3843438169141575 0.2941905088103385 -0.030289652122476866 0.8079655688896665
Ni 6.4506033842580734 1.04638521525282 13.317181648272925 -1.3960462816611054 0.048860473146128756 0.8878417736910194
Ni 1.8778581311713622 5.227786038850023 10.983474902000461 -0.8705701310947652 -1.336627573383156 1.1168437616191669
Ni 1.4573301343745946 9.131896767253542 8.464051437202407 -0.8190616788028281 -0.08912394865186586 0.8477371923606496
Ni 5.380172683845819 0.6969244723075483 4.800057334122345 0.6064846691999232 -0.1892920709330353 -1.4209625852868109
Ni 2.763872343558382 4.216775964715694 13.554037994132795 -1.0701057341326798 0.27744182859708993 -0.45841998034779113
Ni 1.212374840323438 1.9874489876301342 6.062500751922266 -1.9380340567292236 -0.920250529039028 1.1138918780796947
Ni 1.440594402774389 5.215975842833975 2.723521764619046 -0.41422863054255754 1.2472699114539292 -1.4768776512868758
P 6.439976056074619 3.765595056975866 1.4548285537317587 0.5704745696539014 0.018286971234645923 1.9763476075974418
Ni 6.6071577901327725 1.871232223077852 2.5899584281248837 1.0407496495680657 -0.41731986787337166 -0.2384569626934603
P 6.716221900759842 4.5202185283956196 7.693470339428578 0.8758159528747368 -0.5779575082945079 1.1816157637892293
Ni 8.77291486237139 0.7192899154985019 1.9652489611126447 -0.29772474721584213 -0.6383684052823974 0.40834208985479353
P 0.4541593319776776 7.295596109856958 8.81901066733825 0.14155131321364653 -1.063707801026136 -0.974524202780928
P 1.325699123378832 1.0273946418467337 10.886390100524881 0.30925691622515766 1.0296833644515748 -0.14079155222948653
P 3.021839183768064 0.5407203062051563 7.293593551580997 -0.6187051225255151 -0.06919867048284857 -2.3288273390669763
Ni 6.816821113459917 6.084357931591403 11.21105312829843 0.005545869518893675 0.539607961982032 1.363176013295646
Ni 4.06041562309478 7.869601207932694 7.701869625155483 0.3678749829786826 0.5719138732035892 2.940577370430897
Ni 3.8319465494603913 5.362309531342674 7.633647722910671 0.015094175328961101 0.8803688623527418 0.1391712430172442
Ni 6.624521920269042 2.792233448075792 4.950743606608787 -0.21183421789960935 1.1351561867751094 -2.4394742493922825
Ni 8.757352757448835 6.851882055310376 12.443524708274527 0.6714518180999275 -0.48201833649302145 0.8825023637559769
Ni 4.568632939137461 1.8735609941232698 6.6697361190544235 -0.7734963314682034 1.5250534396611544 -1.1323567696531014
Ni 6.690245014217503 5.941582087735426 0.0999698900485157 0.13229739871554635 0.4164310375105151 -1.121353219453746
Ni 0.7220557931726828 5.255814461789517 5.744628124800198 1.0626837306369956 0.015688100159218146 -0.9786238267715983
Ni 8.651310504487842 5.655706959600499 7.662091997822561 -0.6422949940303132 0.42926238494722846 -0.05808996216419673
Ni 4.642700795998668 0.005242507198672843 1.4292388715814943 0.6166742081384153 1.045525216579838 -2.0476484120249574
Ni 8.626784479271418 0.9833975031672318 9.886513769864836 -0.8347240679304333 -0.06775576738873491 -1.0325308612026993
Ni 0.13908677480307638 8.344300855000254 3.5685459101447345 0.15460403263254663 0.008004101251399118 -0.5078368402180221
Ni 8.194797450346403 0.8770345821297476 4.672202259035938 -0.11977638343040016 0.1877776911710379 0.3302929109598505
Ni 6.241688594481241 8.820839491901298 6.487968146035605 -0.09355113118528405 -0.2679174340464225 -0.1242246490097409
Ni 0.4703895724025482 3.1674613033462173 10.302107914037997 0.7990440980303206 -0.7651731563144887 0.47676454429324994
Ni 0.234155156270284 7.65045645963492 1.2377085424818053 -0.5289502251578696 -0.19691847713004149 -0.42037022466392127
Ni 2.252161870947574 8.30432361872058 2.2266803103101322 -0.12818286232654055 0.19547557403592786 0.33999496873896284
Ni 8.453882470304084 0.06879855031320216 7.21616099020536 0.9242884465538275 0.536355002262373 0.3977208626955215
Ni 5.078254910731347 4.338731486487042 11.058892891598717 -0.7313294682921663 -0.31276930025379035 0.3829041093976632
Ni 7.60512859464375 7.666342004980447 9.31094229602641 -0.16753873841634373 0.32661906165268906 -0.3055732967259834
Ni 4.518767667069704 0.8227982437743608 8.724063345000785 1.952424778233257 -0.14581445936537468 1.4279935239916632
Ni 7.288193944748309 8.708309948170927 11.709259501192298 1.1013032427814065 0.4327871102710353 -1.8435277607195217
Ni 5.7998042886132 1.5511833039669114 10.762849720680958 -0.5321530483658835 -0.04820124229557505 -0.2852253291972507
Ni 4.763436485317654 5.06592721003854 0.9277722192240423 -0.3215272489520785 -1.4509143944538947 0.6644265358220299
Ni 7.6442186800489775 5.271136296683576 5.5136417605595724 -0.11007329721002333 -1.0886084209225573 -0.8526078901893895
P 1.1907412966039013 1.2918210493609674 3.542536679560097 -0.1287274219761009 -2.0969673128647432 0.3496124372240689
Ni 1.2793824548088546 3.4196431805621232 4.088406157299011 1.491548108814857 0.0975157722599869 2.1412553361488413
P 1.1951031217365886 5.903406876669469 0.43091413083623276 0.5348863881366465 -0.6771442404990144 -1.0377419730899935
Ni 8.431518875344118 7.581840884189571 5.519836106717285 -0.4487672877493755 -0.7261371254579494 0.5244004010036581
P 4.44120665364037 0.7733968776846988 12.42247890200931 -0.7732983565247843 0.8960711035793472 -0.2340598620670292
P 8.8248316708363 3.3019016254443887 5.481221940791577 -0.9110462368319407 0.07813531085084609 0.49819108959814196
P 3.2412611667141027 5.309071237721037 5.38289235574529 -0.8961736905954825 1.325092319050047 0.0050460470643396965
Ni 2.991269443219483 1.3418803856825094 4.760535686781318 0.36913559485866104 -1.0738831988972408 0.07948616845178569
Ni 7.733876365297566 2.1843964817569024 11.895043680148966 3.002125209236707 -0.53868827838124 -1.9790349246216175
Ni 1.257832081483797 8.963541406517738 5.637885392294593 -0.3276729568385002 0.4688231779589861 1.1472524558180113
Ni 5.156841692359258 7.993469648777064 12.77480163064016 -0.7076187549387878 0.3734997853646277 -1.065491889509752
Ni 3.7634511090292913 5.860620329287387 3.2765605303620675 0.2749460587584297 -0.08909669495835623 0.1944198790779039
Ni 1.1667050525994098 2.290198464689399 12.864000954603618 -0.4132387558254625 -0.5223797710292035 -0.4680202224417166
Ni 8.325236352354631 3.6602089260157658 3.260667592092585 -1.0341552841799997 0.057318888326127096 -0.119234137773685
Ni 2.491655642427929 2.015634510203644 8.95157318675218 -0.6138516510879557 1.3077545991025479 -0.21315576492451033
Ni 2.0415744321262155 7.289219712946886 4.488513974020145 0.4249028224269521 -2.0687396854776177 -0.6700497955460784
Ni 2.552554853496595 7.175571989468516 12.296260435463157 0.4378305862322137 -1.5555621497729726 -0.10273896833213919
Ni 3.177885326120945 9.14756052488046 10.571789766367822 -0.04094018985778755 0.11545744434007213 0.8101422648260111
Ni 5.441155065308965 8.235818937134537 10.148392390961522 -0.2894157131295145 -0.09338426659011659 -0.07114885223068391
Ni 6.29125814959085 6.596373362315301 7.042602859237133 -0.2707646736872305 0.48306708947251004 0.36966549922020203
Ni 7.418984010644336 3.8692900565815567 10.176970662620072 -0.774179473578157 -0.5249524168523862 -0.43090557697760623
Ni 5.9582069254763255 4.727432945663098 3.491775939578447 0.30782789708811503 -1.1244447138948763 -1.1187888011606795
Ni 5.378185835533261 4.657837807793885 6.042240443827131 -0.33672478262812333 -0.7074668027419557 -0.9046272206794742
Ni 3.2122809048155694 3.5594618548366164 2.378530044203791 -0.18661272432865925 0.47589139765967725 -1.161288365085787
Ni 0.5078800138872933 8.161686392188736 10.801302166395178 0.8451038685028607 0.1837361741118126 -0.0467277430738421
Ni 8.507665992067306 4.91209894487177 1.03283306153018 0.5982000605936278 -0.15725098333709048 0.47962181123638686
Ni 5.6886054711944976 5.882919236162758 9.312132556782954 -0.46870773542704436 -0.27206410922494434 -1.5100975896822704
Ni 6.2362917599950345 6.900416601066465 2.191906768378375 -0.6355386491430861 -0.14209253042909722 0.07315097026237724
Ni 4.721527847655075 2.501765465934624 0.5335824381278517 -1.2846192986366651 -0.23532844436680764 0.1776871397042553
Ni 6.051099014954661 6.724520457897879 4.567096135070584 0.6224247374689473 1.658597309189292 0.2895015879751014
Ni 2.419325122695843 3.720923313985588 6.575477262760147 0.8852120493776561 0.42783156603797284 0.645373890065953
Ni 8.194279945669644 2.4937349022899093 0.6024059395593976 0.5555184625647014 0.7883105136629005 0.8023651919837536
P 8.746790117349976 0.3302613194374933 13.29556843509426 0.5242597616607357 0.10779195737501437 -0.10561628987993424
Ni 7.123276293650978 8.131865185190469 0.3315920457491606 1.2399882901908514 0.3984068330189526 2.5383377939294154
P 3.33472620779885 4.427234027367863 9.520503966649189 0.08296024304331517 -1.7968311279939313 0.4493699543303809
Ni 6.829721765759137 2.2391410836341064 6.947803395378742 0.673640341110814 -0.9045241194427067 3.013388440855352
P 6.874624537622967 8.66407253946293 3.177499969959858 0.30758338517747674 0.761384635806334 0.6171670886144339
P 4.579380402335163 6.011981206084606 12.339757627660289 -0.4192175991167167 -0.6356844306923309 0.5651127911213558
P 6.665478718972582 0.23314602215060293 8.439678815158024 -0.3056792261762284 0.6592771304106065 1.4747616333851377
Ni 8.457736031914953 6.099957001133725 3.1841009269350247 -0.4077558783340203 0.6896418587453929 0.6937893052548632
