# total energy = -340870.0620115679 ev
CRYSTAL
PRIMVEC
9.21314036370038 0.00000000000000 0.00000000000000
0.00000000000000 9.21314036370038 0.00000000000000
0.00000000000000 0.00000000000000 13.48436220077658
PRIMCOORD
 96 1
Ni 7.201663018287957 7.9163447376957325 1.9247843961484798 -0.864491014780221 1.198717970687155 -0.5280120296143165
Ni 0.7683353632630718 3.2495206497669153 0.5648474973830675 -0.324095523899887 -2.207700612256269 0.8814937199858044
Ni 8.201961300158482 8.477609244815849 9.375771574626574 0.051547533059988646 0.5414211039313708 -1.1290991819477523
Ni 2.151286686499693 0.7031947760808317 1.8498926212719533 -0.6196374045317974 -0.5075517048774356 -0.21159921907066784
Ni 4.6259914501160075 1.6738064772743628 10.165954978798784 0.36403298352477304 -1.0432328210012356 -0.7908667044258508
Ni 5.89472378778843 2.56536206417544 0.9129208592584563 1.1027731424587137 -0.4839281519212247 -0.8609053543114915
Ni 2.4445409422717432 0.3706114669930504 11.53762481173717 2.1090671814520707 -1.4576645686935348 -2.0066058922613506
Ni 3.5249014133555607 3.5484133474030086 4.212783950256589 1.4317547908063084 1.0726207872450495 -0.2154543311506999
Ni 8.473159298050598 3.884066474838991 8.459131370628715 0.8826599723797638 -0.32663011739628267 -0.6770977035317951
Ni 8.060272415473644 2.339179469792662 12.678213423594878 -0.9858596823984054 0.17159002566758189 1.8957792618250702
Ni 4.525162842664882 4.673402270103534 1.9410465100932879 -0.7047728008495604 -0.015018584896019297 1.6816063684899556
Ni 8.291236629672499 7.959655710249436 11.752524994507679 -1.9900310186218049 3.7258138731541637 0.11514839774008558
Ni 4.198059509427972 3.1944721364700883 11.835076574230227 -0.8362811280049081 1.1963453566899203 -0.13431931424158158
Ni 3.8518573363476594 3.7555339545035884 8.862596895934148 1.28949231045825 0.6655333957329634 -0.06796814050985714
Ni 7.8833064165773346 1.136182888165905 1.9749867976471258 -0.16045046411099465 1.2591172977108187 -2.204662596760893
Ni 1.144963010872495 1.3203351364967795 7.076943816723024 0.5353676986484392 0.7487291518258524 0.09971252280098956
Ni 5.84395017159114 4.9205263323898585 4.527968243886452 -0.5953255672593102 2.0407208316671888 -1.2464862392103695
Ni 8.946032937125565 6.513017633370029 2.8834420478018212 -1.4143275964687967 -0.7970478935358983 0.08382696191898466
Ni 8.915251835380847 1.4291699628692343 5.1899959451615585 -1.4450530505771113 -0.001610024799597227 -1.3695212387873832
Ni 1.3873975847457507 2.9158483474955883 4.9912768007012085 -0.5185344291411844 1.9996978522876077 0.21454647462444984
Ni 6.633543934784103 2.9395537574893513 5.330301016173227 0.7922970091144742 -0.5870995798050921 0.27040677612717945
Ni 4.197340884484515 1.9927193287839298 2.1238683809647383 -2.195948356816347 1.6195651349874947 3.1183493565394746
Ni 0.29512728719518727 6.845658063927675 7.362798999519562 -0.26964341559859367 -0.23231074058640638 -0.3151781668055992
Ni 5.613732221756645 4.65885472156869 -0.08956093686333957 0.3481047423302908 0.20454102667230578 -0.7577228706840305
P 0.908411027081252 7.883794713013273 5.401215478381931 -0.4254687222327511 -0.041676296692863705 -0.6941736851774755
P 4.059254337657261 5.403331736709007 10.395094991218095 0.6411351693942571 0.005484934373971199 -0.32954369149865187
P 8.645795121005568 4.358285232397865 5.725082235431196 0.8142454883611074 -1.3884250176704218 -0.3205882820775769
P 2.794889028487381 5.541777596007989 3.124825402366764 0.6507055866915117 -1.0811409089009185 0.00769042666572224
P 6.69903093604165 0.614726517657158 5.821441548522441 0.42907186620297716 0.3997371217946019 -0.5069968608152301
P 3.4309734479896776 2.4346460295887655 6.039173850621395 -4.423131760387576 1.1228560292515177 -2.3271700059692115
P 6.744534635986927 7.032012252790423 3.8241377611248706 -1.133747222242725 0.29241387652588996 -2.145075738336196
P 3.4144542874304795 0.4593137391803625 8.763055364183035 0.5874101690669755 0.9067530087732255 -0.6315968908865187
Ni 3.8055981588977232 1.185113876303051 13.428064463472609 0.33094082895649457 -0.7683677519923865 -0.7590842698079314
Ni 8.03883343799386 6.431407636586215 5.228561229146361 2.0643886075977735 1.2868055076547062 0.847632034241353
Ni 7.695137239075344 1.7973546887070737 7.350258072942217 -0.15017505032691555 0.7000273157447751 0.18936277626997064
Ni 9.026399159968783 6.011435849118004 11.284657775872123 0.9533311136430809 -0.19228843455719785 -1.4808798304677333
Ni 8.801405060684798 3.8148205123387484 10.843557493752265 0.17337848502657238 -1.7318963749937595 -0.30977782172563423
Ni 1.5086425111032806 8.716220365464302 8.53566861236295 -1.1812046443937398 0.9968640039287091 0.6113481679398116
Ni 5.411623562979659 0.27670469184985924 1.6789787342391893 0.42765518836110866 -2.6594758335940325 -0.9664697079075678
Ni 3.4197149905421926 5.518210383118737 12.651824225831515 1.1991949103235735 0.507032599149172 -0.6201868492773642
Ni 8.739004461427994 4.002713295631716 3.3680974506933556 -0.5283560432172965 -1.1660377068453145 0.08597151906581323
Ni 2.664265125303714 6.599584299635634 1.125101323012194 0.5801138925158784 -0.3659610537854214 0.8350534262453941
Ni 1.2003892629216517 4.849575938933981 12.618126243867588 -0.3065240906750269 0.05631950052733526 1.349320338359476
Ni 2.2030829612703644 4.289794747402282 10.699275110072772 -0.27084617765744323 -0.1075775273713631 -1.448993523282098
Ni 1.098068126741809 0.6483738273494328 13.246457805806823 -1.2829953898799968 0.11316273476862447 1.7829718535133356
Ni 6.867907797753923 5.128540614099608 6.690050888190534 -0.08894294298931134 -0.5444956290916364 1.924552477303021
Ni 5.263070888770782 7.1008896896786355 0.5739242832073409 -1.1088188344321612 -1.4008699283019939 0.5544985059406192
Ni 2.224475873048646 0.8561015803958304 4.608173236774407 -0.5539464900918911 -0.14910418586024 -0.0984241430068692
Ni 6.319670671019032 1.0768871171904444 3.666060542473106 -0.2712968920416166 0.7946647380157024 1.07242615473574
Ni 4.45694875187832 8.044352109033994 9.62684991672997 0.40507884572248953 -0.17213407109651 1.6925903783052851
Ni 1.2963625454342953 7.1350243744928195 12.87798378736354 -0.5925611171402956 1.542238950301505 -0.3511941798888919
Ni 2.831584966305165 6.91836816718099 8.36772135650702 0.13552233341074724 -1.7066211453667384 -0.1972321517157184
Ni 2.4078173650330568 6.937273531078076 10.865807227578513 0.8864263814007314 -0.16386077534412424 -0.9399222964363424
Ni 5.50999226197049 5.977835526441264 8.622251862281097 -2.0042877856511354 -0.5632148027676945 -0.026007994027987463
Ni 0.41262430807838263 8.133185207813575 1.3136196785315817 -0.43826921643152905 0.19248152440461044 -0.04454924736528457
Ni 5.805254982328099 8.768652346915724 12.685508388084992 0.6240422184677124 1.1818247944762421 -0.7897135646580141
P 7.468908578991063 4.861626726447328 12.221807351493425 -0.47644187084650846 -0.8551843926673143 0.16206691666849507
P 0.4843559758317608 1.5701402226106145 2.968528162421099 0.23063772375935762 0.5957351439929031 1.5476603784273926
P 1.929286857813444 2.524944017676163 12.212557358631498 0.75561430898146 0.5472847618009994 -0.02783373438281658
P 3.496497301808428 8.021973391243534 13.039351018416696 -0.23807463965337705 0.2454933007149514 -0.550738781787871
P 9.080074915360802 1.6893306186810828 9.015509228133327 0.6284897127161047 0.2938192415138488 0.24933144351411896
P 0.71195094462264 8.22470854356097 10.557945537859664 2.590435543065919 0.1775819815849587 0.28863384065816744
P 6.217635142188511 3.4673653521775383 3.0831451556462883 0.25700412956802837 -1.2772931972888972 -1.071558407418806
P 1.1286373262596119 5.422725397042032 8.642100651744977 0.0603443054160122 -1.4819933752468866 1.705824874717688
Ni 6.642084515842874 5.626354223968637 2.0136064391597013 -0.11779611977557779 0.9432624165531691 1.4473405610597074
Ni 4.789653674418071 8.01403166430431 7.252092063038002 -0.5844068634642774 0.22395876907728526 2.010983709614072
Ni 2.1306584653663716 2.26918724292806 9.30267267685257 -0.9643593464327843 -1.272874242285595 0.18736914287870954
Ni 6.280284496233436 4.061566835872743 10.320593853490319 -0.4320481752224817 -0.5773011056574315 -0.38637201334160554
Ni 0.35418443783685927 1.3487300349036113 11.206300938928495 -0.5900265236439 0.18740513832296757 -2.353564693912656
Ni 6.176977554041415 0.4130140239131033 8.572912732028628 -0.17314477174921147 -0.9627009848937551 0.7346760161668959
Ni 8.59365796004377 8.860774536782666 6.68452208269607 -0.9243344693004145 -0.3486205056244448 0.23078119131575736
Ni 1.6530032064753275 3.7797829397750946 7.24685992066122 0.24894166427486805 0.3493504418119338 0.16859391915373545
Ni 4.820241300216475 1.7850643595459077 7.173262591996945 3.0515035025595187 1.1779959076484552 4.992843226623208
Ni 1.812077286907631 7.448750228013078 3.138067448920995 0.41745459367902304 1.3489552417105735 0.9887457456969488
Ni 5.243953622646779 7.232904777047713 5.316762306501312 1.344533458493794 -1.561479543698672 -0.8712057077962351
Ni 7.787102805557173 3.9721625223945156 1.1164796663187764 0.09409311973168312 -0.9471329552521688 -1.0265689871923094
Ni 4.598176979548121 0.4039851464183936 5.575878192203058 0.00868390092724311 -0.5469973124675677 -3.1706777336295455
Ni 4.547025624598501 4.409906457502823 6.463432512271531 -0.3013446033566165 -0.9633936400854053 0.6256123911683096
Ni 1.0221979163653456 5.448476124182555 4.56762528499689 1.607950947787334 0.5186812391316938 0.9292190510862255
Ni 3.094564843049036 7.9616457485543926 5.128251321494165 -1.0472337146305126 -1.413037159792147 0.11442514642081583
Ni 7.687038888751008 6.7359111366654485 13.455478162437414 0.0994592691396029 -1.6624323666646659 0.9536866972102866
Ni 8.574918432672096 8.827358476911938 3.5508640427230014 1.1565048276542147 -0.6310767567169906 2.145169583601583
Ni 7.668013754030013 5.92130369755602 9.25013750822978 1.2743220304757152 0.677649205159891 0.38345046881943634
Ni 3.2053252157443413 3.449436581152329 0.5876104031240668 -0.39260899539025285 0.038595343774694826 -1.6848693555119434
Ni 2.018847794676783 3.0759635127818736 2.5133234838148595 -0.7308461008978445 0.7745160309819693 1.1380810737313884
Ni 7.221821369265942 1.3839242308523778 10.706192335810556 -0.6378233314122048 -0.4393359671331466 -1.0604579266302705
Ni 4.555566205657271 7.005073030551105 2.931378938100519 -0.1972180106483313 0.5888173338271473 0.24823718200867567
Ni 5.764827722688521 6.177751457826678 11.528198847895498 0.2611405203339051 1.586475037301745 -0.5551495092610569
P 5.777882742494647 1.8434388164912958 12.26448538130847 0.291208286253563 -0.09225632363326047 0.2110304910513914
P 3.6489563475048117 9.28564771489086 3.178264380053055 2.0097218121825127 -1.2448466467244172 0.8975397177050737
P 6.345541168983464 3.40059772441819 8.140940829318726 -1.494555271072297 0.5242083395975101 -0.20701005703808864
P 3.2960562214258733 6.113406885966419 6.410425630865345 0.6340281260358307 0.9241079551119052 -0.3556722702649036
P 0.22067774305309548 5.3447177381158 1.1946457912581803 0.5714310200298998 0.11526949669898214 -0.6144422334841031
P 6.369467694344446 8.375997520439162 10.56565877891943 -0.16144856635820584 0.1540892977796572 0.022716724871225395
P 7.025765743666531 7.486220069616124 7.735331406265314 -0.12452906762403715 -0.7059547369728035 -0.8269603648246144
P 8.145125437643314 9.237186596909051 0.049131834595701813 -0.1299767210021697 0.310521127649562 0.5678551297531833
