# total energy = -381169.9650002627 ev
CRYSTAL
PRIMVEC
9.23352717409977 0.00000000000000 0.00000000000000

0.00000000000000 9.23352717409977 0.00000000000000

0.00000000000000 0.00000000000000 13.51420035852127

PRIMCOORD
 96 1
Ni 3.7007302319294713 0.24666637423599655 6.879636534501215 1.2524619971778301 1.1122484289390004 1.2728976393243627
Ni 1.142964568785786 2.6695108226971414 6.838684562442256 -0.3523486052083093 0.6095810487370599 0.4945545212868192
Ni 2.87921434133653 0.6230469510476643 11.180659952417205 -0.8405910682341717 -0.2087118702205438 -0.6922828959126658
Ni 6.7277553375277295 6.664707522789183 10.909657842449796 -1.0546171515787772 -0.13263755566378446 -1.1435788636211661
Ni 7.648874393160503 2.0079292099137764 10.63288135472625 -0.9836508476725447 -1.318664304036516 0.04624951788584293
Ni 6.6008095836250265 4.1161546210839175 7.008942307733278 -0.5394868630231353 1.1658960390611275 -0.45927512925923486
Ni 8.430951902791389 2.8236513177365192 8.489199286670097 -0.7019651561974362 1.159750331174706 -0.23239301588756753
Ni 1.4203453840901472 9.463825358460506 6.289242677831625 -0.4637269943830014 0.23673252380318585 0.8098712705528117
Ni 5.604556161637407 2.0970721483254353 7.042902006391586 -0.9415837432991655 -0.66758976404136 -0.09938033627255143
Ni 7.389660367212142 8.58770745448781 2.052649450894088 -0.04321175950078364 -1.7075230883557173 0.6594085137821482
Ni 6.832302160912151 6.995572253043963 13.3104110684728 -0.0348549028956561 0.04046993508958836 0.8317765552663352
Ni 4.46627651767537 5.621604852564069 11.450146623191134 0.9039715893733464 0.869038267831271 0.4650585687102314
Ni 2.279895102246309 4.013862475523943 3.7897474997738656 -0.4370451142164408 -0.1364399601290102 -0.5878559983551424
Ni 0.7425097619084092 1.375057777460569 12.520303579213042 -0.13154612237181862 -0.17240018027370307 -1.3943316129628438
Ni 0.17753647366117525 0.7680328996908123 8.35079163779426 0.9308725275292483 -0.8970118702260617 -1.2040249847223652
Ni 3.5073731275173268 3.40246592530031 7.6488762412570805 -0.5159730961719113 -0.179977992620961 -2.49688209788779
Ni 3.038584949689995 7.412752333946954 6.300170472893886 0.13716012612448636 -1.3185401197538258 1.5196782913921698
Ni 0.8888291122321629 6.099365539274756 2.907227789257001 -0.3139625492309432 1.1284821171890438 3.9146824833965352
Ni 2.406979463392317 3.0015398537956917 11.141803721877038 -1.4445015489490154 0.12077628544982423 0.18798235098267624
Ni 5.5417948018683605 4.182972552840391 13.772959148206487 2.773539740020688 -0.9604803230933523 -2.692515280547505
Ni 8.99840071640407 3.884301664964198 10.575619006323306 -0.21356534165810317 1.0798849250066305 1.5820612245047656
Ni 7.757015764387998 2.138025968480973 13.015877144785152 -0.16759273158273072 1.9578395214909246 -0.06434699881750208
Ni 2.366894248628165 7.418296623679201 10.963701730663171 -1.3778636972148077 -0.29334564431154 1.3718007788501794
Ni 9.15681031453728 3.666817659733888 2.9119884860404244 -0.4114358982887688 0.45391797871237954 0.23235316378856755
P 5.977585215305931 3.1523907369272695 9.054289005001706 2.2066516021664646 -0.9497876192661965 -1.1078793533370275
Ni 3.437829253309164 8.166988268639068 9.14849942422864 -0.14022333843084236 1.0115234057130966 -1.2692266182306788
P 7.352245652002356 5.10262237169412 12.335993831595639 0.31439500878267146 -0.8038129801738738 0.47826504009817633
Ni 3.9984308691025205 0.7884432782917942 1.9913573279040877 2.5448056610419463 -0.5704210907081466 -0.8219032620166813
P 2.573492965017495 5.293567710072737 10.726334978404733 -1.1736767114478108 -1.2190127163804487 -1.025012441338467
P 0.5572574850365224 1.8134447665894085 10.12725876401444 1.08003970541694 0.3488161665750186 1.0977049839071868
P 7.783674557517224 5.427536230969619 2.695179036060871 -0.19560078675988246 -0.03032461912547035 -0.17843327384166047
Ni 5.162380574524865 6.451095279888561 8.850855154001202 0.3941830247455921 -0.5732001961151806 -0.4590727834404416
Ni 2.8852668576275673 1.7283861216138388 0.2244938355484486 -1.1472671111060306 0.6538333336872159 -0.9485203225179987
Ni 6.859478421083051 -0.12636083133594997 11.771282973062396 -0.799102719182398 0.262236067390929 -1.188496807179779
Ni 8.111591573731024 9.21905420726465 13.590515054083983 1.6161183140894746 -1.0973208610948908 -0.438389029838845
Ni 0.6323049908522295 6.315029169376311 5.745928157423418 -0.7816192176856539 1.3513900764043112 -0.2888793810100702
Ni 4.857204386696168 8.196844268847222 0.5333837734494631 0.12440051246597285 1.7726031086845022 -0.6027974501563231
Ni 2.4424167152642684 5.014976391510168 5.913725162121612 0.7502802983630562 -1.2776066147642575 1.567969265188074
Ni 6.015341828382539 0.5767502836868172 3.1765527515804055 -1.3458519201949015 0.7073526457615947 1.2452657365397068
Ni 2.9157974130864788 8.157221078227424 2.5056890737369697 -0.6369442712413611 -1.6091243992701447 -0.39634249429075613
Ni 4.713099056072158 8.062755621672807 11.326222507192508 -0.22589095310299162 0.5468936970101678 0.12828287823951456
Ni 1.2763879011923311 9.317178895042549 0.9946076919854313 -0.31703244640551853 -1.1947183626094584 -0.4231156486195422
Ni 8.040181121979671 0.3686971152910609 4.773552143216012 0.3315008152250226 -1.268219774232719 -2.1230364991479695
Ni 3.517944239940146 6.243175174446378 4.226315037822239 0.9782024229634637 0.7859157881784787 1.3615204799700937
Ni 7.908679810013639 7.344012381749968 8.47188816602944 0.2627780559373281 -0.43496329198674766 1.2830306139933065
Ni 6.046907317924803 3.9029951618447605 11.093305971492486 3.5858337610823794 1.769983154563152 -0.7966118344397441
Ni 3.8288402866759452 3.428403960764343 1.428904843388449 -1.299952843669942 -0.5891343508469338 0.8963847781650238
Ni 7.416309919858479 5.053074902453599 9.051299708787736 -0.20983749918455474 -0.27197874859998966 0.8036324887319515
Ni 4.03130850721475 2.6224490433532437 3.4740889081580653 2.1765496405747613 -1.6891849521681617 0.33865336710940386
Ni 4.471257137951507 3.794077590054751 5.3282269132855955 1.156413296381673 1.5617875618573942 1.20075582705279
Ni 2.586688374580245 1.4644317279444048 8.593905046360174 -0.3269751594405272 -0.2051346943922467 0.9124935108014284
Ni 8.343148834398356 8.618884843748818 6.693689373316221 0.8464207875420714 -0.09512516054062328 -0.4621493654832363
Ni 9.255082850041372 8.662462961044286 10.309215884688797 0.4447764214224275 0.09339609366465851 0.7345513176635736
Ni 0.5983877984152032 1.9948816480772198 4.526704655515429 -0.1693289975475471 -0.5091948969078134 0.08878507725520839
Ni 8.824328499777263 6.674049650988021 11.643950966975014 0.7789817800628068 -0.39923112869246086 0.19463996550850995
Ni 1.1343709197008018 5.005532617999572 12.43056924989661 -0.1260339343043378 -0.20815548349644147 -0.7618440919412557
P 0.9504391078334786 3.0208894249612372 0.4243534677682312 -0.5882061826057096 -1.1732157126509923 -0.5444256950856494
Ni 8.023705340992008 2.134773318504721 6.279735144989109 0.17821293030073823 -0.04734429361191846 0.6725797610567835
P 3.0359421715842903 5.6536878091480105 2.385728200848611 1.9373619703628635 0.5073164489381778 -1.554227490121949
Ni 1.6599511053521259 8.009789173764066 4.580166393306918 -1.9141487654711937 0.03709433374913612 -2.114560086245842
P 1.1528980878893968 7.865184857064154 8.09478775560087 0.1482966023572801 -0.08967596450059394 0.286917372187693
P 0.7168812826210934 8.110759930271188 12.664487453941591 0.7342553836897097 0.934760549729745 0.4461581322613026
P 0.5005680465725766 9.206727403093286 3.0858038172429727 -0.4757507583167549 -0.6572984094176808 0.561582152260278
Ni 8.692355923183989 4.726479275292649 0.5869536248907307 -3.260206631029314 -0.2551580774982251 -0.19084938811782615
Ni 2.0965269598350975 1.473857020489226 2.6395670379015588 -1.9614681193824477 1.7006615853491935 1.1578546568138897
Ni 3.2790407953775853 4.483242044256048 13.091709167597973 -0.8475893539288757 -0.14211412769565204 -1.339719067824286
Ni 5.953458314487765 1.1857664855187395 0.573026369083324 -0.21257058184500163 -0.01841141262765216 0.07144761441802534
Ni 6.709930446038553 4.589821773875627 4.558744181829801 0.5636657742621841 0.7334511426208594 -0.11770690249588116
Ni 4.635968745413703 2.728428141585162 11.980234316394776 -2.1736183258605792 -2.131992679899993 1.8938038832662545
Ni 5.679745970889575 7.5991236332964665 4.817438892639909 -0.5050559350387753 -0.06913465001413255 1.2835906002618345
Ni 7.019015358128484 0.8344747437937821 8.402859910766377 -0.18754423500399314 -0.9037743857608758 0.7076676058988522
Ni 0.7322158639722024 5.883055075371105 9.531388073137679 -0.8151579728730477 1.9192349217448492 -0.09035704972801857
Ni 7.762837268606859 7.104693115457488 4.172176896683416 1.6595468175867547 0.32799820138840285 -2.525367864032309
Ni 8.864838776754219 4.8049124940381835 7.087465159162816 0.6396135905434082 -1.172608932304929 0.7901779058889423
Ni 5.211946524731161 7.154758051739686 2.6874161063874356 0.4826796242261041 0.5127928986717168 -0.9023962744664265
Ni 4.587040388526616 6.033739629810714 0.6572413579713031 -1.189232399794223 0.794274187445503 0.7432673573803329
Ni 6.851827301252549 3.111187423733781 1.7430082617343539 0.41778780864872567 0.2242768145383363 0.8939949377766088
Ni 6.027446860964613 8.255438170834196 7.0425776654422485 -0.781951404214092 0.09942430213660941 1.0361599733148543
Ni 4.981673691185132 1.2533975797692767 9.995315756966406 0.389172201794562 -0.45940034198318946 -0.49297509261484124
Ni 2.900347325699281 2.0565711118313645 5.446768448002499 0.05848205539629282 -0.32897753458253665 -0.022609766979715902
Ni 3.7213827111820943 8.93008582641989 4.652576665306652 0.3153969676846246 0.3845817542104022 -1.754694346724881
Ni 5.298788582903938 4.685978238798579 2.624960606601952 0.3832851468861657 0.9734363690333881 1.2915355661405241
Ni 8.511907773365095 1.4592016146303175 1.9600477997377954 0.5812716602694054 0.2925568298616575 0.170978360225512
Ni 1.4451560806419563 3.837692669281768 8.978105843839177 1.1595269023099901 -1.143344893233489 -0.8921825671582183
Ni 2.8485082167027636 5.857865519020925 8.18180445890021 0.037771305211502695 -0.08950575747131682 0.48164141276957695
Ni 9.173489386148459 7.136175440653768 1.2736407056300023 -1.1927185585706104 0.5512226634028249 -1.6229384223351015
Ni 4.142480756829207 3.8188328437092376 9.661668717314328 -1.388235527367435 1.150830917197889 1.646882077634893
Ni 7.2352796196177 2.3800526962593667 4.07668112628689 -0.44446943170497005 0.7404291166005893 -0.3054390851409643
P 4.929021419694552 6.055741219564851 6.48237061826817 0.13910902232074104 -0.11704330076995326 -0.018832045104838536
Ni 2.258253891324768 6.875676987584103 0.3303398708267928 0.2559960000184882 0.6621737352321112 -0.4872965541728253
P 6.155963496958119 8.282337216518485 9.547577399155841 -0.3887415420150466 1.4204046559008117 -0.33815148777232085
Ni 7.4375353090501015 6.359346525302745 6.159923043875233 -1.1971048605637642 -0.3005850994827727 1.9085172782170292
P 4.340319495441586 0.6698573892570332 12.661159956053954 1.6529858765397853 -1.3709844535964713 -0.08714599898988862
P 0.5357059067989862 4.134265967542594 5.16264854852859 -0.3271710775014172 -0.04155416929270263 -0.017997722129001262
P 5.093788470054072 1.1581559226521452 5.221979841049952 0.538506244277421 0.7094483519483589 -0.7212684845117384
Ni 1.5127040105465095 4.82653522399395 1.3080670486741066 1.8525417912926738 -1.9756184427409007 -1.2653465664499821
