# total energy = -381162.43125638965 ev
CRYSTAL
PRIMVEC
9.36468038366482 0.00000000000000 0.00000000000000
0.00000000000000 9.36468038366482 0.00000000000000
0.00000000000000 0.00000000000000 13.70615633790317
PRIMCOORD
 96 1
Ni 9.312266133351166 3.5240134597092365 7.163317370896307 -0.022605396104341712 -1.6499692012006488 0.6353368175449252
Ni 4.027468034559767 5.436206249052432 13.61956017842243 0.9906272789903777 0.3746367271825483 -0.7076287822411167
Ni 3.0741154912010393 3.5616501096287747 0.9453466782141112 0.6803005267398091 -0.3702254854887301 1.3557210996794973
Ni 1.181775823985095 0.19528823250238103 5.516673200557438 -0.6307995917962039 -1.4180076164235451 1.3271582004401403
Ni 8.010594308141924 8.269686916582794 2.348220729935038 0.7309522874584057 -0.23097659515601512 0.8127329083713228
Ni 1.3650613458127132 5.662007419209162 7.482107942986611 0.9796579244630675 -0.889544615314739 -0.03993745962488606
Ni 7.280963975924715 1.4949213668214798 12.115830393359023 -0.1253857591973776 0.6773643269296205 0.03754761923647082
Ni 8.435113993176136 5.234818800304071 13.351550521448747 -0.9585566237080784 -0.9410934339263082 -0.015248955739270514
Ni 6.983466813783914 5.820944772390153 3.138394656428138 0.10857717228047108 0.07277121832545533 -0.2883294220438712
Ni 5.833971042616098 5.208691342410188 6.806202781356211 -0.4501597972215279 0.47021131655576437 -0.06003088794065145
Ni 4.137025428789346 7.809796834249232 8.31536033509177 2.0474931173940156 0.9131691967122144 -0.8926314817701788
Ni 8.89275655225001 5.368911656785251 9.009645554646298 -0.6686930244078677 -1.7926651695416995 -0.38764676628897105
Ni 3.452045891997953 8.398507458083955 13.14194181991005 0.05294132808372173 -1.1403282178943523 1.1470169427684376
Ni 6.401236548681292 4.192258312896196 9.011797558167451 0.5849807336898764 0.09233602783126034 1.0623335463864285
Ni 8.424147952604905 2.7002493616320633 2.285638444769005 0.10763100631711786 2.0744457347234597 -2.1070390952784486
Ni 5.193604842529528 2.258929440231678 5.466508481401185 -0.26036687539267417 0.667613932411076 -1.1942090270732078
Ni 3.961971460900337 3.2248774785249115 8.562331301418718 0.3355310194303383 0.900425781003617 1.3226785674022317
Ni 0.20898595030215913 7.1917466671953205 12.626344064181025 2.371589155514535 -0.5012247342181432 -2.0931088583506017
Ni 8.225270238163196 2.5376129597528356 9.16693753350759 -0.7360965506635065 0.6442783430089292 -0.30763866389544436
Ni 5.685578319395147 8.13295322027148 3.399346153898376 -0.22981959873343644 0.053727571430442954 -0.07936892614763105
Ni 7.889771203573156 7.988184628306778 13.625138718446584 -0.47925774302874885 0.35256869163891535 0.3075401906443671
Ni 5.504596508908711 7.467470947757888 12.065926948781707 -0.09526065767722304 -1.266250309211174 -0.2812000100879415
Ni 7.597658732575359 8.697296946099078 11.299040172663059 -1.8076716702528608 -1.5519587486924304 -2.1913501959227033
Ni 3.7722243097011137 3.351562872929368 3.9138613525906494 -2.4536045181460775 1.4169213253379018 0.15518433061604886
P 4.5295553660939865 7.303448573201851 1.2466018865387176 -1.0351204763067463 0.13996391412186862 -0.2861061891403073
Ni 1.4702173403254009 4.21772087849242 5.3599843071041615 -0.89604102167236 0.3150758368997799 -1.0385176749137535
P 1.5847567444472892 3.4262461979127754 8.594458709947943 -0.06483422286656576 3.50080635109739 2.4458919799931684
Ni 1.6720074703244567 4.164978999331724 13.003372646269987 0.16803136178204608 0.35777260443735803 -1.7316230667277144
P 6.890447444873545 3.914698555004884 5.50225440237851 -1.2807929829120392 -0.419578067779929 0.7324057320754805
P 0.11170565187863075 2.6518526941067653 13.314201367212844 -0.17628126049566414 -0.4366669049414157 0.3311064080000814
P 5.938789908639833 1.6680368458990065 0.7737136280199544 -0.40241184041328765 -0.11360625006394628 -0.5953942157137165
Ni 1.1268707036869483 1.6608728655087486 1.763489158737988 1.2917682509766206 -0.3446383810482452 -2.188683704834134
Ni 3.7490092673645785 1.405732152132831 0.24395834869094107 -0.15434769364736645 -0.4260024832490341 0.30308164065238125
Ni 8.659847589784514 5.473084359871825 6.400171784537014 -2.6449699266683737 -1.8286626706822315 -1.9495531131124169
Ni 2.797548389416089 1.1837985949188148 4.249703134477792 0.6601700745385211 0.2549852993657867 -0.48110482353981654
Ni 6.932195189422264 7.3089830992288345 5.441782916140535 0.16639331195799084 0.09080082213365652 -0.6618448911377828
Ni 2.197225562072973 7.886559118247852 7.063138703935805 -0.5830711753719894 -0.8901668222797701 -1.0822917346759102
Ni 6.016778965751032 3.8004119972497103 0.6362345031608427 -0.14355368835565602 0.17291697200912157 -0.13864648086202574
Ni 6.8811764114273295 9.434634410160971 8.807027586913257 0.058908344300434026 0.7085757195354183 0.12302034428899458
Ni 1.7265192740521575 6.828013121655441 4.955515338950449 3.2707288707168765 0.5161031939918724 1.310092503207105
Ni 7.965241161697455 0.9548134334775252 0.659975840527355 1.0036450314062846 0.5748968670913132 0.6014900441988094
Ni 0.06817112633845951 1.1338286611117347 3.794056188764915 -0.9141284753016902 -1.4937368889360596 -0.6229767533176754
Ni 9.329038275676593 0.46559972788119763 7.787564146870785 -1.7997475303097779 -0.9559371838073601 -1.4589840588359066
Ni 2.076177705178236 9.436039112198275 8.65695858592779 0.3293413456798586 -1.9731632963321888 2.071325958147555
Ni 0.18164951218816974 0.9452520949435993 9.945090956433456 -0.08962145711357469 -2.887485375701924 1.3151943432100444
Ni 1.125203790602679 8.96338497068573 0.6776366910083844 -0.22070529513699405 -0.2562708509464296 -0.3550336082396402
Ni 5.233058240417313 1.9802927441117646 10.278658057488189 0.4545355576917204 0.11429659126275155 0.44433804833342827
Ni 6.676867182441372 3.494898668816018 11.466762532385356 0.5534350976731114 0.3561258128625544 -1.033597869014633
Ni 1.4012558349739508 8.692633335335223 3.136955305073912 -0.4330051398191123 -0.8097601988962441 0.27040626190654715
Ni 9.208130888985586 6.558469530057018 4.208681152648348 -3.24498184365976 -0.17359574324370103 -1.4435432988008043
Ni 2.495293969708946 1.886205801653044 9.950861472402705 0.8241776598731548 -0.04441580711121383 0.738531128246928
Ni 4.753577247003464 1.721584087561091 2.578936484286288 -1.299141917732872 -0.7263700674043619 -0.5183621652293783
Ni 0.6469692361299312 2.753983896899122 11.057633699339888 -0.771681903967284 0.5878135751529813 1.9603008385472238
Ni 4.474425493469871 7.707581349334636 5.632120042195426 -0.7226507095712458 2.375372276706051 1.3849015778981957
Ni 4.662018768211893 5.99217795073769 4.424511747744283 1.4640745859849364 -2.786736184106304 -1.1728475306782962
Ni 0.6764529954249482 4.245047015458136 1.313916144634421 -0.4951895837676568 0.15396125684222517 0.8769294976538897
P 3.0510783777892296 0.6218803212756305 6.648815282756382 3.4286676241496115 -3.286105610283263 -2.87429741625674
Ni 7.308767711583115 5.939361154135003 10.902698810497196 -0.16664399451621623 1.1887721723283526 -1.426605385394885
P 1.4082512511197323 8.076306269447075 10.903549123463776 -1.3086863668881978 0.9482094761457992 0.8058454372228702
Ni 3.7715406880429585 5.560456826592225 8.315525153464147 -0.14212518343924557 -1.1929952092707647 -0.16729962582234414
P 8.933820675140574 6.465150491378691 1.3358922397740527 -0.24558483198749315 0.1874326491267933 0.9678591320559267
P 3.4831647244643937 5.837248680703145 6.157723958770188 -1.1035262185746544 -0.6050386807820161 0.7724162110301471
P 7.236987437476806 9.312575167799373 4.616754586229786 -0.37671083610275763 -1.2129891358941882 0.35160889882880736
Ni 8.275099701766546 1.5085844353043376 5.6602309393659835 -1.068166865238754 -0.17205565245009077 2.181749439608146
Ni 6.963482586133181 1.4437808479833119 3.1535120597536195 -0.8521823726161969 -2.250677887148743 0.4608722985430256
Ni 2.5808122297401033 6.263276079257397 12.110951394949447 -0.9429531128428663 0.6828407766631595 -1.386951775559005
Ni 1.8054916225894713 5.168348299898775 3.2200556046648545 -0.4962208532456487 -1.4737622455863457 -0.5228070883746093
Ni 6.088091005844907 8.8217067232031 0.9422731901564868 -1.797536124480756 0.7736961061838352 0.8024832056188567
Ni 5.472157256527203 0.3400811726357298 6.512178979119653 1.2214588639280963 -1.7215839373241575 -0.6440459152831488
Ni 5.914638398278427 3.4773211639892025 3.5169581096098637 2.1747154155794997 1.962338180692227 -0.26068774906720266
Ni 9.15877902407492 7.553953769854661 9.113291962702895 1.6167780591606609 2.1197148909739045 1.20856195336077
Ni 5.323183923130833 0.3664530486841027 12.424630724560009 -0.2530394884933255 0.8822164570844419 -0.17106063552667314
Ni 6.371503688891659 6.374078975960053 0.6186822829706985 0.34874751812061233 -0.6549947009851687 0.517531956018599
Ni 2.427334485144107 4.2489146284008505 10.570612265389782 -0.33330033032760664 0.8336763433922093 -1.1341560276453693
Ni 3.5062767553181926 8.2024859711181 10.37584845498133 -0.9330019151674255 0.09007345704932875 2.495112664692193
Ni 1.6909428537873343 6.68539840614794 0.8486170229892066 0.4041815307192007 -0.8805259567558965 0.2339253933716939
Ni 9.129570586379216 0.2788754954662557 12.424507110780727 1.6884411320236017 0.7954540666862171 0.7079553123426
Ni 4.370290249104292 1.0366513741709422 8.300749560967743 -0.31221779862569454 -1.4436024341735139 1.1458339782039297
Ni 3.41141254439883 9.031569207576537 2.0564987661036116 0.2620013256723036 0.9904390742389716 -0.7054109486541916
Ni 3.1136531712110638 6.891280901415679 2.909707291818757 0.30232239388885357 1.2073342516012562 0.39145662695336453
Ni 1.9256311055000843 0.5006816930288894 12.211911076242691 1.383676704352159 0.8509076196688313 -0.9689611068708538
Ni 4.62831528399681 5.285500449810052 2.157828352266679 0.41973490507276745 -1.1475902987734043 0.5850470681514376
Ni 4.742573747711237 4.91412532518723 10.64977939927627 0.09438776815396648 0.48383944886216024 0.7085314965610442
Ni 8.598059429503571 3.456503479796335 4.456817085198234 0.3685694379425459 1.735691066149501 0.4464872334659472
Ni 6.1236299673887356 2.5118507243886534 7.588015921323269 0.9592721617178642 -0.511703265151964 -0.4539172073814312
Ni 7.392413035564532 7.2142780878737005 7.800186799378013 -1.7617610237636756 -0.2031436321041469 0.1050061670997611
Ni 1.7858351587474435 1.8675045351963835 7.406779391534067 -2.721276926061229 1.5468921328028005 -1.5625802329620186
Ni 0.03745778452678776 4.987001266882639 11.221407909869333 1.153706438973471 0.2618645429841232 0.030205062828470564
P 5.730725442874146 6.197320636265781 9.036372352076098 0.3828542299963342 0.9094817205582982 -0.2810832820044192
Ni 3.2526062967413214 3.471412050752271 6.453804244789362 1.3826037830029543 0.8341381135199764 -0.8471329831177475
P 5.285743931496518 9.124064154392979 10.267309001494784 2.520101730537363 1.0752867641129868 0.04995293487935913
Ni 3.610374540962777 2.8082896776613517 12.000959479556329 0.250583056533033 -0.06725311672070353 0.2509905763840967
P 9.268467523827981 7.320960525266926 6.657107707116609 1.6936604714410122 3.2962869216916397 0.262094142496426
P 1.0234471750202707 2.9006628836345594 3.3992365871394656 2.4700462086418686 2.780137962063496 0.7191054154221487
P 6.198875173187066 5.20022567146536 12.476138338863926 -1.4862205259543564 0.6256244753531678 1.9954329063636669
Ni 2.1239750331676173 6.5453964364298285 9.639923184700942 -1.1702915970256618 -0.8492266324219826 -0.4568554640741487
