# total energy = -340888.3206981661 ev
CRYSTAL
PRIMVEC
9.08245598630843 0.00000000000000 0.00000000000000
0.00000000000000 9.08245598630843 0.00000000000000
0.00000000000000 0.00000000000000 13.29309240468572
PRIMCOORD
 96 1
Ni 6.534717926759663 2.146711077506589 11.380947384326042 0.108501067626897 1.3491832985609797 0.05249627012650314
Ni 4.878005337273283 0.7923897699506038 5.746670478905861 -1.5918959512070003 -1.6787928103005603 -0.4950985667157473
Ni 3.1091335016597195 2.230878194994694 4.699506926060865 -0.8230764563891759 -0.5052863058820266 0.28135041962287677
Ni 3.387438110925989 5.005159717853133 5.174774579090898 0.638555581592539 -1.605767309872454 0.09553293750200322
Ni 3.9880790749621786 3.2414376346530536 2.5167811867461847 -0.24926742304540297 -0.6942474758382043 0.16118142873974822
Ni 5.510035268401184 5.187317450489524 2.562363307447334 -0.0008350943067856586 -0.4158329989151999 -0.06606449572924106
Ni 5.524458208141242 3.1479700824711077 0.31391328530208085 0.7723231370957087 0.5848218395145091 0.38436321044169286
Ni 5.788757670632217 8.042914199728779 12.057007244466444 -0.8728782104026515 -0.27488152406908145 3.242630569818764
Ni 2.648416850995899 5.677370433244267 11.404542696133785 -1.7103407603101706 -0.1472892441386883 0.1314975285220703
Ni 0.6196505439328772 9.033528566547613 0.31026849580731697 -0.5907168648427052 1.256666779287797 -0.11482366741081515
Ni 7.952752661441909 9.070312512358212 7.179732136635919 0.5931987507242945 0.4629428079188091 -0.03492920777701726
Ni 9.024945645858473 2.908374899635647 1.9741834727079701 0.4605334271463682 0.31951176118394653 -1.6309019001565523
Ni 0.4940156582009563 0.04775282762676275 4.941294613715753 0.7197260797252831 0.6678584443217144 -0.004969171079817248
Ni 1.9092321068622071 7.011446946920789 0.45451060864594794 0.9927952331759742 -1.438224200580736 -0.9905100366862232
Ni 7.550436201287263 4.337735456645255 3.910628433505416 0.7423841834444311 -0.4973829918745498 -0.4966250306626027
Ni 8.052986643161853 4.220953240538418 12.54183327393378 0.445543124385123 -1.1892401131037067 0.22806662059807176
Ni 8.348893051682676 7.48264475152669 9.274124636007352 -1.4120305729045037 0.5515131980600502 0.7659365168430745
Ni 6.855410357037802 0.9775447129863772 0.18288069611454516 0.7022294656024164 -0.8983089917709304 0.6434491622394144
Ni 1.6195290156225297 7.035597196775204 9.227466244299151 0.9539931727071119 -0.6377045464461534 1.0168697576266745
Ni 0.2846150995253322 5.390628222580949 1.5621778487531393 0.17577398184194243 -1.356738228090102 -0.3020588558148217
Ni 6.260800143623398 2.158500105077492 6.9200383874586615 1.4240872469587218 1.6647962389111521 0.07661193222778419
Ni 3.6534450750990355 4.578584018375003 0.4935951404994672 0.4620588626519591 1.2555241810429216 -0.722958984840284
Ni 6.042358000242972 5.870445277699014 4.941919486671745 -0.39904163838947404 0.5512473459931733 -0.717852516851654
Ni 5.258305924676104 3.22229181792003 9.49045692491573 -0.4699616624388035 -0.741655789918839 -0.5619441635853871
P 0.5293700254756081 5.97268648214097 12.38026910147787 0.4405438713983187 -1.1110526088586865 -1.5176144668846057
P 4.163161574564876 6.512329673321854 12.734769156815464 -0.16075951071098118 -0.046622584954545514 -0.6611296102383131
P 2.6007975354687454 8.86947216823234 1.2605613002987055 -0.13299442478257095 -0.3150393272348897 1.5465902852916655
P 6.535789656538836 7.919401883906965 5.872888458297299 -0.7381261794990256 0.39269769844931723 0.31056535062393614
P 4.778379880088971 1.376809468007107 12.70319763236306 0.07120438805896769 -0.6474495416480592 0.40745351660225315
P 4.237973762624607 6.575007700491964 7.951475668162657 0.43018849630592365 0.040907536847639224 1.2929648423878828
P 5.214510323022101 1.4570802119760151 3.665836269486542 -1.1790423466350985 -0.5925287212404634 -0.2725647030104467
P 0.42169660424616645 5.913078325016286 3.8295003057131694 0.5059658484475543 0.39783913344094063 -0.9086011177255578
Ni 1.0492688660891685 7.810612228865148 2.5704585002623928 0.21465548939848839 -1.4417263001967235 0.7165739072495465
Ni 2.1476919827282046 7.024135137611506 4.982928590899897 -0.701215165405289 0.5363300625617086 -1.6301146283685668
Ni 6.0376532881615175 6.007463205229559 9.341108655451242 0.6361806536024592 0.20892681444482727 0.029430646556291247
Ni 8.991059003433943 2.462253755371243 10.461197970295508 -0.6868218727980946 0.6221126055451672 0.2091571852880785
Ni 2.303074635796782 5.979570983603793 7.163780619592176 0.9604371285602428 -1.850810410423864 -0.2638550910515908
Ni 0.5936129597724263 0.5047511209041979 9.11198917708441 0.3361380568867179 -1.2294369970375665 0.7072444023185045
Ni 1.7371195702916238 1.3189088125644965 11.533140278933216 -0.35643383102127646 0.956004803820502 -0.013340425862647992
Ni 4.120882743022076 7.179844759087289 1.6535809587418135 1.0736667120110608 0.3962489061356853 -0.4925269493338292
Ni 5.728214020564696 8.340582604666208 7.960714342157359 -0.6863575315671663 -0.33854666632821045 0.4041985000000652
Ni 7.14099001336439 0.7001565235058583 4.95752587039677 -0.07487232382885815 0.7215356221301961 -0.9619047142447048
Ni 0.915838508582127 7.707308377099776 6.893691091556941 -0.7663640912987963 3.268962265734757 -0.6130461244675248
Ni 5.168698416190332 4.688472650563261 7.296086569076661 -0.049458511741443854 0.8845983270530572 0.1302194331405951
Ni 0.9376273199400599 7.928711401056561 11.327495315712575 -0.9091071108276988 -0.8684579698477688 1.0603977628162964
Ni 4.636657240476972 0.7817987182938779 10.640229521660787 0.05704275184660499 -0.104014235500137 -1.6268009906143015
Ni 8.157353142250644 7.319678247902102 4.662910987084408 0.2589792510165282 0.538144232952312 0.8626184803478563
Ni 7.313075302567705 6.259537682273356 7.129058391238121 -1.0920503567245707 0.35045678750223513 0.4116894090604716
Ni 2.45479705919581 5.740429923556118 2.616066960085234 -0.20777136068414537 0.06917038834807442 1.1951999302315675
Ni 3.5249374086115854 4.875344177736862 9.055373689131232 -0.7221583433158596 -0.4131490243251336 1.1434284540862307
Ni 0.9672452081594093 3.846401847628958 4.072604949452634 0.5887507422552699 -0.7290938940934282 -1.0665370429448149
Ni 1.4398507934074456 1.0777605297948105 2.8530427626807495 0.5166693509079876 1.6296893679056903 -0.3698495902065501
Ni 1.3460562728182945 3.672708963756883 8.097420741455482 -0.9235587674766547 0.9290431876299935 1.2201568572872212
Ni 5.323654193838391 3.321181596188131 4.741805739006328 -0.15504009172870073 0.28075855167514874 -0.0793990080546181
Ni 4.3973890260487165 7.285355647601298 5.902451851782113 -0.5835028635927693 1.1517248897670682 0.12345434650261965
Ni 8.26878579191737 6.993472766980251 0.31787232776599206 -0.06888113924242976 2.417027747463308 1.114269316023771
P 0.20655684177851327 6.11964969872401 7.91801680940422 -0.5956724090757676 -2.4100443741669397 2.201902774627569
P 8.689603214446384 2.1945392895161238 8.243232302648698 -0.5786347368671906 -0.45356573757928337 -1.0080593584238962
P 2.0255874475485256 3.465129437460277 10.397192088093915 0.06618970845319568 0.49415060098018126 -0.1608127325464198
P 4.095424619538839 6.50498196661549 3.784316904819695 0.9294216540153348 0.5757895541089115 0.23868579087481476
P 6.860714511199132 4.302077735348363 10.617458896835663 0.6710340138362185 0.12907349246160996 0.20223166181283883
P 6.396219558940938 8.413660043676598 10.210596667575286 1.3033770388601424 -0.3028417567274333 -2.6859620528100194
P 2.5814519047090965 9.129775350190803 5.653645242319219 0.10869415747430959 0.22174813457921164 0.44701508094495923
P 7.265419657217528 4.235603241672369 1.4124172357973428 -0.5752899887646739 -0.023484199164869234 0.7412950641453103
Ni 2.549472577993264 1.7688264233347852 0.6548986464751874 0.4082181626824196 1.2643433219964482 -0.46666576529635106
Ni 1.3570642091942073 1.4835464880481353 6.990225789047587 0.7429110024821787 -0.3363406598158272 -0.7579020765743721
Ni 6.85881627794619 1.265394983251891 9.048594544155174 -0.18299621062199453 -0.47675657387344994 1.1099110390550755
Ni 2.831246685358212 1.8430936640491735 9.066553283920927 -0.07373923866567945 -0.7635227651952592 1.0579670418876166
Ni 6.78975328437982 2.0051882519212154 2.3421500851945454 -0.21816144566921786 0.9874067151705511 0.5987621037446849
Ni 4.223051287817986 7.1858845921648316 10.242008340806388 -0.5943423774104344 0.9161791871831317 -0.12454706534616616
Ni 7.430484208121685 6.377482452716923 11.647048806038947 0.723649068928773 -0.14491894413429882 -3.771284089671821
Ni 7.4171693279838244 4.076369627363373 8.519516065509324 0.9879188789202793 -0.5158679380526148 -0.6439093897052847
Ni 3.310645947511515 8.702545713898262 12.29252077168529 0.4916142077115726 -0.839286233379819 2.0859185112497496
Ni 0.2801937600634557 4.877088009241957 10.295991733081564 -0.10387436748816305 1.045204857125942 0.11712609029174666
Ni 8.55979675678587 2.574176857648778 5.8246342791128205 -0.18575937518942848 0.8967061660601848 0.39653944079291065
Ni 3.721935873952796 2.97178860572197 11.698917802614195 -1.0471696941617965 -1.2050351711544343 0.19985596249181065
Ni 1.5260251336175612 3.6944160330130145 12.730116214731817 -1.1695588326246953 0.17866724422933747 -0.25522338351852175
Ni 3.0719680927073805 8.479171797042488 8.038279422556643 0.7133515436575069 1.1053324185454576 -0.669203388385383
Ni 6.099286832919722 8.174618890642236 3.3676056605378344 -1.6937905692609732 0.4393056281158434 0.4244400238579206
Ni 3.292662685115222 8.945819291314784 3.480304404536907 1.421112994821746 -0.684687342953595 0.8593282396323587
Ni 3.642028428214116 3.0457924552194426 7.128300914428095 -0.6381673450151848 -0.2423804661175826 -0.7107197624616146
Ni 4.868132707866834 4.757363077470272 11.374579674595719 1.4397246963856625 1.995163968972996 -0.061974641930583586
Ni 8.349020206063257 0.09260926011303164 2.5356045762998805 -1.725399711525822 -0.5000453691980614 -0.7700873057866544
Ni 4.716682758140475 0.5538990137350368 1.5230824179527134 0.3960848697539953 0.5034294551789459 -0.15969070312683464
Ni 6.159321865464922 5.753871958074559 0.08715706192288276 -1.2152352516158877 0.15308888153960087 1.760832084191503
Ni 8.031488470388103 0.21226244048424625 11.490442746180076 0.3856801294809035 -0.5531821011220409 -0.738825005338263
Ni 0.026065739773293725 5.306252208610463 5.968957225807678 0.6141663541148971 -1.4518173658841385 -1.0856071722023883
Ni 7.657345787987649 6.637240687330045 2.5636530161646447 -0.48010543574102477 -0.8742552932558362 -0.4375613917312271
P 8.7055520067534 1.7787535474757692 3.765666990170933 -0.3121895164909204 0.9179558194675803 0.7993855405301394
P 1.9996752012775034 3.9687425266582856 1.648702771755425 -0.35805953955015757 -2.812184191865763 0.1729866489047924
P 4.615513283477694 1.2523798241539679 7.939286104292927 0.052132201918865057 0.1155597742458913 1.286784167498468
P 8.938498831975686 1.8743736416718166 12.773637526221997 -0.35773660899310006 0.29279928488976675 -0.24651274311840127
P 6.427490454107827 7.987038931919689 1.192797097905401 0.23852663958913115 0.2868582368149834 0.023760335644391336
P 1.762704848155441 3.630039586616587 6.027087667380908 0.7229949802845419 -0.2640967747487516 -0.5241391769224716
P 6.775539241122144 4.206857269205567 6.10297794293884 2.355701537750001 -0.6078049306732435 -0.5418445646220347
P 2.5446225466197188 8.819700310691083 10.310441011943311 0.3658129582433313 0.25639169279501006 -2.2537737524652477
