# total energy = -340893.5912285212 ev
CRYSTAL
PRIMVEC
9.05507600500373 0.00000000000000 0.00000000000000
0.00000000000000 9.05507600500373 0.00000000000000
0.00000000000000 0.00000000000000 13.25301903443551
PRIMCOORD
 96 1
Ni 6.543478716689218 1.9145147455196379 11.432001011991954 -0.3501775656989195 0.2003051342140873 0.3624345286894016
Ni 4.529675061437646 0.45095094069029434 6.029792397576235 0.0345841657327727 -0.9811355374498586 0.39611598010224686
Ni 2.729471596944541 1.4909454495296075 4.807387002190097 -0.6227448398125275 0.673000650644286 0.3838705870759905
Ni 3.433458490433754 4.006816855715682 4.805597719147413 -0.4863167067580593 -0.22914442704328278 0.586241602680171
Ni 5.030248724811203 4.306847748105823 2.829055702158214 0.6429238858635637 0.7012799572049535 -0.19576225203841124
Ni 7.028323712830273 6.133682191488268 2.547946296842933 0.2600755694045005 -0.2360385830599548 0.22851373543781933
Ni 5.061189919936968 4.4521273894865026 11.472993341618626 0.37308789463818975 1.2159543891700992 0.365370471389274
Ni 5.837155613559253 8.022226978675832 12.38473446871875 -1.2712498193082944 -0.4289587376638806 -0.10947217329091469
Ni 2.0179871004222196 6.441319347825043 0.19642995540655725 -0.3810431449295244 0.12696801608283292 0.48286242966087156
Ni 2.674815157442311 1.5805997582624738 0.4494813018348914 1.0202427878639655 -0.21728032861584515 0.26081784688716375
Ni 0.5929789042337884 0.04310216236425047 4.319092927552289 -0.5360269294989929 -0.5516731206766822 1.2527548458279005
Ni 8.785796273080333 2.2407419731450267 1.2645087828535853 -0.9224765901560694 1.0434261679589643 -0.4951656725082568
Ni 6.907574272677484 0.5712485325443497 4.870988045890522 -0.39658726331171057 -0.5040087247211836 -2.248202171914741
Ni 0.9182571598810737 7.314120025548861 2.2154140197103533 -1.2106594593197473 0.8315734381165937 0.6850097592900203
Ni 7.608835588252487 4.010918805201187 3.6833052454207627 -0.6769460084452793 -0.8658799247079474 0.5400543054908312
Ni 7.622680799650583 3.9855283717412378 12.596199472526486 0.3457043604189143 -0.9103780071203224 0.25981408821299773
Ni 8.09022154531305 8.96198088928227 6.70771063240359 0.2828637709436096 -0.7159442440853477 0.921340162558781
Ni 6.812785735780641 0.7964002839179587 0.37225055754819136 -0.16705459969107359 -0.6761764772691065 0.7367087303262086
Ni 1.8800601808566182 6.61631774905435 9.385125502201946 0.3357930148424733 -0.8192761088064794 -1.7832035099081676
Ni 8.94530143905644 5.032938082420905 1.4377269561163357 -0.14360639597046237 -1.4519286946510221 -1.467770546779285
Ni 6.520053234748816 1.689650040059253 6.939055150340415 -0.3356158658346607 0.9075068562201145 1.6448647900945477
Ni 3.6307867093921042 4.491852008455404 0.6113326380354899 -0.5937993604227709 -0.3991509102738287 -0.054322267591648384
Ni 5.921404041844334 5.637174257295709 4.825490815890696 -0.08115430018282799 -0.06678414750408498 0.34911132921793425
Ni 5.076520163819883 2.8915755697690817 9.475815711643735 0.9952694057480795 -0.24100158349218495 -0.07984792266657861
P 0.20905544805035436 5.567223794215072 12.532174651263318 0.6327857689882973 -0.5279981456572455 -0.807158756717655
P 3.972534337499074 6.321575021122343 12.470282300428048 1.1804397412032575 -0.6062823233811301 0.3613454093902809
P 2.5434531680687438 8.446384854614115 1.350761099485559 0.057019354807837284 0.7594635075242211 0.41249879233564446
P 6.281406703423222 7.681086040669368 5.740307046843531 0.1078518640786723 -0.26658637393982476 0.7112280695566009
P 4.6612724827905145 1.0404735223664283 12.687446569150081 0.6226170559854116 0.22913234285842476 -0.3453644605809923
P 4.047691469352704 6.307919966322913 8.161328341615098 -1.0382255975946313 1.2181904775894699 1.6699423018884658
P 4.738258740021787 0.9459023072966318 3.8827505411775927 -0.11165863941927222 -0.422209334755189 -0.5023326225703413
P -0.06466592065295342 5.620956615952354 3.4525311972799346 1.4637783949007563 0.9415613747016623 2.2912388392902407
Ni 1.3981671395329456 1.1609875305399178 2.432446084320932 0.7128087837801594 -0.79848693997527 0.6655033138259765
Ni 1.9615377558468547 6.406031716158344 4.9602077109692955 -1.7026485338722352 -0.5195759830318214 -0.8569900784174853
Ni 5.928141018482781 5.5419601318208995 9.227653200816336 0.5088943349482591 0.39546266278896414 0.3250594304750531
Ni 8.604676640389211 2.2743996911088753 10.240316773381698 0.733126412291589 0.36393168206021836 -0.17635967914208336
Ni 2.393093628980849 5.367314878560543 7.124531180156209 -0.9145028279219735 -0.873645170475663 -0.41924382436896185
Ni 0.82580754914782 9.156040225758794 9.092048002769685 -0.8995544341422573 0.35766076144984205 0.47468426472545344
Ni 1.5743970311155175 1.1881889792252558 11.555533077038552 -0.7530720021755805 0.4234725177383287 -0.7634754568970916
Ni 3.8875343378954565 6.674596219007357 1.7685097925411901 1.003610578623923 0.5376253843343645 0.0042682883580507135
Ni 5.653754101684142 8.116653312527598 7.967807782168128 -0.14450731051817692 -1.1028392198099586 -0.3885628503453372
Ni 5.494067834185496 2.595673792092826 5.019726726351695 -0.8893301853110877 1.1564603475695245 -0.8626169376859595
Ni 0.7679302190672359 7.4545189808971175 7.110801873732537 0.24628340071641452 -0.6342505264592819 -0.174693347183254
Ni 4.980500136569776 4.87801478496503 7.06242784604718 -0.032251403834538006 -1.7375867405103171 -0.9532686358362615
Ni 8.472680795686758 7.3713571617472695 9.174800532478594 -1.4987549109759415 -1.330207528789425 0.08445173998717714
Ni 4.6593980820322365 0.5874553077963529 10.506344043899942 -0.73028122953331 -0.8583967289570248 -0.10470946179494871
Ni 8.288283225437683 7.064888110230871 4.896341353538351 -0.26747571852331353 0.45322069553503885 -0.161908793824076
Ni 7.402126310426623 6.122788934907556 7.177676327452852 -0.46911139862336626 0.11935729361511056 -0.7143625014205246
Ni 2.004513147145328 5.377755381334909 2.612939105744069 0.864443449371737 -1.8063367534915213 0.3763310841658357
Ni 2.3843192602138408 5.278955445713829 11.342914456532247 0.03379766527573534 -0.6870239615065716 0.23351093154209462
Ni 0.9380062809139372 3.27178010618718 3.8799271684412115 0.745537127251116 0.3830794586332628 -0.28082745723987124
Ni 3.6168962226133727 2.510039937160323 2.645620686501433 0.382496075325967 -0.4703956646524286 0.11197334244621361
Ni 1.1218696016715224 3.3584190745697744 8.218408824996512 -0.49464682389030945 0.14587693717219394 0.33438430742040476
Ni 3.67046605298037 2.7147752083905123 7.049678298860444 -0.030415379067063746 0.1615976903415604 -0.469086716033018
Ni 3.946301781959319 6.974708607082642 6.061043276305542 1.4584945207939979 0.8317629284195804 -0.726508135644123
Ni 0.8961519080399795 7.33616008084184 11.33000644551329 -0.5636472623194229 0.13730565056341515 1.0659395185701321
P 0.3173505364981464 5.479344280403087 8.033781255813812 -0.4180932557042864 0.5315804636918652 0.7256257330391697
P 8.544695816124339 1.5506455664345453 8.05541021065063 -0.2165560488553109 0.8412999213757382 -0.14568179044225232
P 1.820287623342665 3.2691812993387472 10.48272749985326 -1.3804846797774224 0.16797865416723973 -0.4799709670456895
P 3.7466645185885987 5.874299535831976 3.8894431479430165 1.428428811756869 1.1926835915676168 -0.5157560950650988
P 6.833476584730707 3.89724137950354 10.35836146229537 1.4890456541079775 -0.36380235557120566 0.18080743050079182
P 6.393282168971608 7.546409893433339 10.1987947218016 0.4986798563091024 1.0965901535764535 -0.6252287825766458
P 2.14531052584317 8.407031493766418 5.74289136557016 0.7403414419827895 1.1918094164927797 0.7751618920960843
P 6.882120453684646 3.971592609581872 1.5997584883318605 -0.1843558099736825 -0.23140108428794343 -0.7077424250008457
Ni 5.3749211425071755 2.812941288682705 0.3630515057108296 -0.34970294005534613 0.7328762439539959 0.39027211972696013
Ni 1.4900852172975478 1.0622600355278542 7.097694651038787 -0.19139189088485747 0.8829013989666085 -1.7928343481297124
Ni 6.8559241184493995 0.655564873900383 9.256757120995946 0.06948380582343516 0.12517390029688763 -0.06537492586138419
Ni 2.796370499370399 1.8156876446701777 9.141534899311042 -0.020113997141055683 -1.3465049803978681 0.7399382930070998
Ni 6.476199501066028 1.9308863231571514 2.5684750599303263 -0.6139668365095813 0.22125139744845118 0.13691355733131905
Ni 4.2078576558860785 7.077619547265353 10.22543294475184 -0.16489847258001922 0.18648699738407237 0.6743209121176065
Ni 8.053412660857026 7.1229673685090855 0.2843339179240854 -0.08181430236433007 0.8383210412530724 0.9952529506878472
Ni 7.734655871036365 3.736459447793533 8.055993357553204 -0.32837589644279574 0.12045412622371514 0.6016543376908154
Ni 3.1271433752115136 8.534065156751307 12.445539304911176 0.655903071732051 -0.8769073861667027 -0.5163649322936914
Ni 0.04363188431767665 4.819799700544912 10.320775652307653 -0.037852294961083194 -0.18694208264362 -0.24712158034699377
Ni 8.422307407192571 2.5272355267253883 5.553942714059684 -0.10136445658211575 -0.8523299539376545 0.9892072587143995
Ni 3.476089788839403 2.8725961302070084 11.674027803235733 0.8053926659561678 -1.0608903861819985 0.558721028662399
Ni 1.4055560816525314 3.501108964178148 12.97144544925747 -1.098292480979541 0.7571464293552701 -0.6972214708648637
Ni 3.087364425785851 8.432612083825033 8.005685165607131 0.36915950611806103 0.06319283060840084 0.26781356147870655
Ni 5.422695724152928 7.5996537410597655 3.5386884356125754 -0.5514813163808503 1.1167334612935476 0.9499010049156094
Ni 2.850773396741075 8.427532186117817 3.6234810739728864 0.8880338350971673 -0.5375868177869452 -0.5195577281993762
Ni 3.3122110210939826 4.2995765219758875 9.147419793285943 -0.06934882290746766 1.0054954543514618 0.028000856088300163
Ni 7.324687299389003 6.158465934847713 11.60051326219153 -0.4562414846392336 -0.5729009197072069 -1.9081395831626364
Ni 0.6983627857067681 8.773753021831498 0.20810194853418726 0.1704271157077323 0.4461876999476574 0.02374362347384298
Ni 4.649147735856538 0.22843693299246398 1.8424345285339432 -0.45101571746392005 0.0999259243633763 -1.16849259614371
Ni 5.9181894898192695 5.555280148803633 0.37798966479744806 -0.5790473989245769 0.8756213203654276 -0.14626465952891582
Ni 8.074266501177377 8.747737788118789 11.160194791889493 -0.17324710165503068 0.21347535304745818 0.5799840518062334
Ni 0.10076398163301317 4.836877574120327 5.784226882582044 -0.242949194136859 0.3061577084745437 0.1499073984878257
Ni 8.130842616818517 8.83252046589536 2.3808258118440664 -0.6979555208174109 -0.06904363296222302 -0.21074484149017253
P 8.42323102495752 1.6718749256220629 3.462192057999771 0.17930127826891054 0.09743786783419993 0.8686927115663943
P 1.8008373198219905 3.302467759181391 1.8244765015589888 0.18586607597062182 -0.11213815015885203 -1.015533041093122
P 4.7473953118338725 1.1205928359376234 8.245723462133435 0.2589915923117023 -0.26780353417637753 -0.4696965817028749
P 8.588078685848524 1.2982262643198716 12.51642968489379 -0.00663498881801438 1.5211649032400252 -0.7860607983967753
P 6.303392428259441 7.843742373137652 1.4710849510603827 -0.18312862243480074 0.03601755574518959 -0.5289633377839922
P 1.674899321048462 3.3058724678051217 6.102060960145369 0.8161676450844847 -1.0020632887414613 -1.0760393260082952
P 6.651895143157111 3.98984764305379 6.129653588119391 2.1142829213250556 0.05703735252996629 -0.13029553779416914
P 2.4088313512894763 8.574324025211697 10.26063364768772 1.5998206053707158 0.376717520970977 0.6801370045787511
