# total energy = -340875.482400048 ev
CRYSTAL
PRIMVEC
9.21522892576721 0.00000000000000 0.00000000000000

0.00000000000000 9.21522892576721 0.00000000000000

0.00000000000000 0.00000000000000 13.48741902247385

PRIMCOORD
 96 1
Ni 4.318118063704921 -0.13811969474571764 11.35646113458875 -1.1142549178460681 1.9021108604700534 1.2546677465798972
Ni 8.801649487298663 2.1951504760866984 13.325044148341268 -0.45033283246428246 0.8780615543758039 0.7980688786012449
Ni 1.0775735835787983 6.316873580128636 0.7130946906734679 -0.29347702768308165 0.0784088762272069 -0.43551479361484347
Ni 7.831497827743486 0.6109816600555269 2.5219584345135044 -1.5640305922553 -0.9990296441214601 -0.42211600371043434
Ni 5.570218868617112 -0.5111429479456953 13.300685533622932 0.4548402334163328 0.4653992398791017 0.7060822636896034
Ni 4.646456671662508 9.100803465129907 2.471502291371484 -0.24606382850644073 -0.044066394191595075 -0.6950727999529772
Ni 3.103689114794151 5.22780860603277 1.3415797566216314 1.6411546882328123 0.2983816640735506 0.196219651290804
Ni 2.18645129994547 0.3285072466476139 8.370157449373194 -0.6496902580531198 -0.6690776614407962 -0.03600341467780251
Ni 5.579655263075393 3.7003106835563773 3.1715122784401535 -0.6288221563548589 1.2872161128295638 -2.1567279778631434
Ni 9.43722382888819 3.706125493032135 8.947135836077535 -1.40643225288112 -0.5569580232247053 -0.19209431626852078
Ni 6.648455948681258 4.208954461407262 9.166157868936676 -0.10513755047130281 -0.7236642384374247 0.6591336628542067
Ni 9.130550224223004 8.450420250596572 4.385461113921942 0.8458083507690531 0.09267875588265974 -0.13907019866300563
Ni 5.123713379664852 5.985272781118088 -0.07431713549634475 0.8790059205669443 0.8568219282707372 2.159086707903308
Ni 2.256708205560644 2.910510270039312 8.014224759808302 0.37866204629185757 0.11029081253746813 1.1501107512024127
Ni 9.046332246728635 8.859576416561122 9.232920359729018 0.5538194775957237 -0.689058218327781 0.833077790576262
Ni 1.3716131093354842 7.626827592471579 7.295129112034021 0.8575336096257812 -0.410168601540571 -0.18454632871793378
Ni 4.016890659356966 7.912932806090979 7.081003130323011 -0.42740759112667687 0.8034417128773841 1.2625155247590902
Ni 3.196117861294702 3.686156091868955 3.788211066544428 -2.2446864454519986 0.9483534579228313 -1.636449569447659
Ni 8.670876173082382 1.6179546099788253 4.512890221547492 1.1031899182811582 0.6006495505753849 0.13835723175638107
Ni 1.3517819366067518 0.6645746671366087 0.4618101412142849 0.9200510114337124 -0.8742684058819589 -1.1157950086396784
Ni 3.2555653033360827 7.562708029345874 13.407330613844959 -0.2608654122956475 0.6813179122607298 0.3843002184142414
Ni 3.4443853447913444 4.981697486113508 12.286459276982727 1.5664464007856442 -2.2455508503348227 -0.3778786311586137
Ni 3.435787536168711 5.243041379508882 7.932045190960586 -0.4641805369806522 -0.14567921933909103 -0.11636247265284476
Ni 6.912057573172608 6.799558057990283 9.879776906138149 0.11583359673256825 -0.3819137204599358 -0.7546141498517197
P 0.32380471530771054 1.6272159150868069 2.0146831181636498 0.437811302958504 0.9842087770585437 0.5746721526750167
P 4.232444080034371 3.6670713526862397 10.616378724373755 0.03584914848812535 -0.5110381207641392 0.07271593960748766
P 5.020696335085625 7.2397050389579585 5.413458608724703 1.4299899855964018 -1.0372920300367685 -0.6700186851978267
P 6.623031131971885 7.779302770896116 1.4571940191935062 0.10754333169931801 1.1728107639030898 0.6258185936418448
P 1.2029375583937023 7.748929376233523 12.51892817194492 -1.9040145052506692 2.954254867917989 2.354623988415106
P 7.934524087551677 3.6994075911179873 4.5269176430752225 -0.45302991968047135 -0.0648542774712238 0.66590620569135
P 8.065260540852107 5.082318571162313 10.674037490473387 0.5761551649784465 -0.6219904781450062 -0.5427295383301491
P 3.6335739954051327 7.132052734210259 2.4107140335159625 1.0074214677295812 -1.2702979969179866 -0.7502479024632241
Ni 2.586926720226718 2.1379791955992196 11.945888374099434 -1.598403413308215 0.8248654299687987 0.9592575064298448
Ni 1.7419363004492543 6.141719723225749 3.3105276934410908 0.2565647280377646 0.5823335258750164 1.0908159700968376
Ni 7.159597053581161 9.067121803269536 10.815075648231737 -1.0005591933921092 0.7582831140628747 0.30924020405460934
Ni 1.5026813108785875 2.0090581424045335 5.9659032913604095 0.29943144549430367 -0.9930945095839478 -0.19005620279256946
Ni 5.928663629597361 4.85474849191694 11.55196129551941 2.095213049177798 -1.1290253912870234 0.4771772063506363
Ni 3.467128529872437 1.6461716410640381 9.98353577664891 1.4860870857002857 0.5673002856909778 -1.7776172740696417
Ni 7.511876826385052 7.2031297952031546 5.702156987774337 -0.12674947231412365 -0.6583826436207951 0.9454607097560684
Ni 5.080853349757169 2.4373082627807627 12.372670508501828 -0.4447283417933115 0.41924459569991024 0.0941316862791024
Ni 6.142134408529091 5.8810485415446845 2.4538873812083937 0.6073385325597863 -0.4493013058759746 -1.4408392696060799
Ni 1.1524381036755553 4.274557676396038 2.2830020183612443 -0.738726789197502 -2.52751293539977 -1.097065293440659
Ni 7.8764036384809915 3.132118096145517 2.2644296459088804 0.6468597305828602 -0.11714665911703696 0.8166664390977743
Ni 6.119372792990072 4.8559741173690405 5.162768441533644 1.953514154642694 0.7626557892092737 0.8235215143463945
Ni 7.957875477744338 1.713700838906115 8.877904585445963 -0.525035977705128 -0.1825274985156921 -0.21530726404987438
Ni 6.220804818187635 1.8627755978432439 7.158529008544329 0.14146878080216926 0.13800910438834296 -0.2572288439843248
Ni -0.3638144748970863 0.029901574939679522 6.861629997240374 -0.24503410169034576 1.3041010615103605 -1.2261359576887916
Ni 0.6558690403351062 5.960142851735535 9.526582061098214 -0.09039947293017979 0.9638572099853853 -0.9942713035008681
Ni 1.948348213995199 8.417531098427036 10.675589335030782 0.7298875936393172 1.157817118707735 -1.8300454099623709
Ni 8.283154629686155 8.751675300631417 -0.05666812898609013 0.004018891351405982 0.9445546530020313 -0.11728344180521737
Ni 7.585755316982751 6.491327079630322 13.484978133088593 -0.34085911651147105 0.5939531123918158 0.21256955340373712
Ni 4.5182544063269505 2.9679672226246496 5.32363224288335 0.7478701462596669 -0.58027715756662 3.0412885096997297
Ni 1.9579136216589648 8.272824358018447 2.1301222913852245 -1.5994927897176519 1.167668814690834 -1.1719149915616978
Ni 6.3042671469070255 1.8984846100755104 4.090113947175383 0.7915619307206625 -1.8565578544306027 0.681252349130117
Ni 7.789927929890646 4.9550009678072175 7.1846670839754525 -0.037605211947283626 0.9168674714994081 -0.44917480760043926
Ni 5.914638051115423 1.6436558835570938 1.061983259218915 -0.10059646806783965 0.7092398354819786 0.4241739146807275
P 5.554267307281872 0.8904085972453212 9.258667709452103 0.5723270494816078 0.6633325314269027 -0.9197013414037774
P 7.090114227198893 0.2903654139690717 5.355071839536982 0.3341999593237406 -0.6131481972630278 0.7314935046738564
P 1.8490633371460536 4.026363914731101 13.310154181382584 -1.299681078065794 -0.031866252580977375 -0.054190627109790536
P 2.393259468336831 9.297520957806602 6.020379117376162 0.06414285322649599 0.0898266311458453 0.582388547482668
P 8.565656688780958 5.194246742148922 1.6116117678834785 -0.7636158391296978 0.4907068654059548 -1.1571645727254005
P 2.489392736880574 4.037910596621947 6.2564898708245975 1.0408805187189751 0.11030058272948103 -1.0751939472888643
P 4.231301391642939 1.8956094586390027 3.195061796055523 -0.21853194163475914 -0.5802367912469878 0.4424662852320122
P 8.46991967508263 7.276962209656037 7.846427420186711 -0.8866014735260151 -1.2933438229938563 0.3355315336509705
Ni 9.417411086617385 0.7602821921022533 11.522706629652946 0.46365243239132414 0.09830304404797263 -0.8236145882808332
Ni 1.0529228461023306 4.038316066696326 11.101144000935285 1.5077763977482612 -0.9747304052544631 -0.3850550943023949
Ni 8.891074069157222 4.741880367576088 12.692929203704512 0.6664785332550522 -0.3863838404161475 0.7973034611901301
Ni 6.563473107182946 8.587533642339512 7.58402930459795 -0.18760131349417367 0.24559074552476415 0.42288219245249753
Ni 1.8624530648295332 1.1519681269984339 3.5108833585124435 0.1284523139378433 0.5648569663568078 0.14312200013487608
Ni 1.9910515850105082 6.255748966415959 11.49624417816232 -0.6478650319189229 -1.1062253626733722 -1.5470867653121096
Ni 3.1487792301109208 2.7703558527385277 1.2245620146786664 -0.15565304272235128 -1.0904483023447735 -0.11588219058231655
Ni 3.894724368992281 1.373050685053738 7.227098605736348 0.4642517565382198 0.15010280232808343 -0.10639173459337807
Ni 2.8600292457790917 6.22457384683357 5.783688726025945 -0.6619245953357826 -0.6332010021488449 -0.43955528223280427
Ni 8.524243449820492 2.7784560389971507 6.718461278545738 0.1302824251680466 0.048729089774587044 0.009477600473132064
Ni 4.690772707746373 0.24846837548803963 5.210824017530759 0.5949674125889431 0.15705429394525208 -0.6087238429430871
Ni 6.9685837876326655 4.263720567135355 13.847532886186412 -0.49912748536948237 -1.0861548171757425 -0.16419450453445916
Ni 8.685178208433214 7.0927129217665055 11.343971734774971 0.8641806826286537 0.7840046871986949 0.948582800324818
Ni 4.667283089119263 5.68543687634357 9.940349527635933 -1.7712825901008655 0.7301197642547813 -0.468645000509909
Ni 4.966483143095322 8.071029274183047 9.45106602431376 0.34741542957275 -0.35358607715983625 -1.0487174982648906
Ni 4.411459117872825 5.71530343341319 4.013518807079344 -1.6244980535127378 0.8051563815756455 -0.955835111011857
Ni 7.94920394729 2.8294070399344924 10.970464682054427 -0.3645397479578625 0.17374615277863625 0.8548506634769794
Ni 2.851855337688764 8.191066846657241 4.21344319943522 0.15650150676557562 -0.010474160058446477 1.3563067969796383
Ni 5.727992803695469 6.082530307595336 7.811144151532542 -0.38228087399136745 1.2377066932455265 -0.9846983151004526
Ni 8.353798574917782 5.863806848154603 3.6114454660958835 -0.13163045455550879 -0.9534146744958225 1.5675524893656294
Ni 0.9852922807416588 3.853403282321447 4.6826697569190605 -1.3470940201321189 1.0831682237435927 -0.24578820624755088
Ni 8.75232036665884 7.669816635584747 2.167077202573311 -0.003464561509832743 -0.35748361244202953 -0.627728666180364
Ni 0.8390788503975928 5.272880290891613 7.1441643096365475 0.8058852893218702 -0.3973207990436254 -0.7171845442503518
Ni 6.448190592853745 7.902233925264745 3.6833740142449756 0.2001709226290682 0.5927349237139985 0.5784357334825071
P 0.6714492279431302 6.555750745311813 5.184603926561865 0.04073681559772984 -0.28791213200079446 0.3923997075929242
P 5.21680562265075 7.2237719080806455 11.690733428475719 0.49210117465032027 -0.9918202708572144 -1.2855675214825473
P 3.489715056061156 0.9340740381643847 -0.04593699485848386 1.7231777641738386 -1.4722121274904065 0.036263096097092384
P 5.0033164132610946 3.937648905502706 0.959043622562978 -0.4400620466658937 0.20165213516028493 0.2858321095433142
P 1.247742001612613 1.7806310468655866 9.648252572144681 -1.5972713565863008 0.06233485348347974 1.3377637438701284
P 6.9779648907171685 1.314497120221784 12.522623478759147 0.5474768232071474 -0.2249437586983739 -0.08878404881394387
P 3.0451724108780507 7.241372995400291 8.974421207514572 -1.3751411560773221 -0.6555567441362259 0.6631733801412192
P 5.723246960779438 4.046701925052807 7.154671513700349 -0.39750643269187025 -0.9753880934431202 -0.38485274848360174
