# total energy = -340859.79202399694 ev
CRYSTAL
PRIMVEC
9.31336099935876 0.00000000000000 0.00000000000000

0.00000000000000 9.31336099935876 0.00000000000000

0.00000000000000 0.00000000000000 13.63104523152082

PRIMCOORD
 96 1
Ni 6.875449184969578 0.8062763034009309 1.104356015734351 0.2699925714078963 -0.05401553498450697 -0.45607384871311774
Ni 3.8792663889788797 0.012191189774428438 6.976559690535722 0.5350838488594333 -0.3791122464553987 -1.028377758266274
Ni 2.6389129480633877 8.244010355781771 13.344997875315013 0.841087805364932 -0.6895050760572126 -0.42472130254376533
Ni 8.967434998194685 5.705253293764375 7.24194298580185 1.098740881370869 0.4303543324598265 0.6294952711624836
Ni 4.081738860862818 4.266795347354715 7.676677646615169 1.173155034616386 1.4469626088949983 0.2785880263863912
Ni 8.459614666918531 1.3867408518203557 12.840921515230088 0.585004130728644 -1.486227467932892 -0.4358500654670752
Ni 6.441204406953918 9.159876980096147 6.5024853921309695 0.9401143578424906 0.030903888667708067 -0.4316499113427985
Ni 5.889099043303885 6.993719558495527 13.557778375344355 0.46251111969802927 0.2136252483617611 2.9833857238456747
Ni 3.0881429242051412 6.867858795614223 6.0610441799375385 0.011410041609154544 -0.3382319633012691 0.09170893577022271
Ni 7.0670529643655415 4.96592143046932 6.365807160248139 -2.4732850272941405 1.2649328759513314 0.20057535715633842
Ni 9.257900106433702 8.956584932429054 9.036824195608267 0.8401169568112306 0.42483623085507477 -1.8886778748935988
Ni 2.0473934399325446 0.045431507134178276 4.970001613998868 0.43071145868892924 -0.6169868542828277 -0.1833327680258068
Ni 0.31270168937379633 3.230888810891669 11.819970374137384 -1.13560510138707 0.3723674715323974 -0.16219058673055292
Ni 4.609499098408682 2.8160996443647632 0.7914224236673665 0.5284144072590576 -0.4193651804381745 -0.9591127533218642
Ni 0.07725339958739988 1.4911436305608772 4.882599444742106 -0.5376950612300352 0.5264791379095578 0.20338505869099166
Ni 2.407271028988075 3.0966646496777175 4.695404610525069 -1.7245291359954107 1.0670461213707496 2.0509476516015193
Ni 7.29682289784524 3.805588388745493 11.088255908945083 -0.8257835709076939 -1.3875541850296942 -0.377629234151969
Ni 3.5106994339496733 0.4635064274826409 1.2420866574296412 3.066331825821603 1.4999962395822104 -0.34525004649031504
Ni 5.447329069461075 7.274778171950608 7.238344303044906 0.03755764653879983 -1.359655144626581 0.711060176520169
Ni 3.7107783720123524 5.523661377628542 0.45249896591320093 -0.5613281272679429 -0.24137310789899075 1.9593405315164838
Ni 9.30096508849402 4.528053754957668 9.471940704229647 -0.24046422293147618 -0.5928287689793855 0.6643584015882559
Ni 1.3216032037818892 1.3002383532528299 10.536130055900472 1.5185115247775782 -0.275590377210648 0.608371601809991
Ni 4.0935109493844966 1.7826797753346995 4.246289188725733 3.787458385438838 -1.696019201481176 0.5136372489498832
Ni 1.7900373306607489 9.222295126672327 2.2915422717260236 -3.9756160856571148 -3.5593729957876894 1.09216065705019
P 1.6546117458555816 4.879027770732561 5.697422619690778 -0.43729116878897595 1.1405506183178034 -0.25603945166191383
P 5.6845590052397155 1.7495894030898222 2.6182652263445885 -1.0611400402989597 1.2092461239119885 -0.15140146653484893
P 4.602858671892893 4.278017947567232 12.581986791239602 0.39227398064833735 0.804465526156208 -1.1766566200117412
P 8.256089785222134 5.6905474964734495 11.071135157102203 0.768652887332973 0.6735704071048271 -0.2543877749911038
P 7.838068882368469 7.570579836141304 7.3506504000761685 -0.9017247023206986 0.27460461625861093 1.4236650718196384
P 6.93754136390473 5.9908661408326696 1.5489637707263348 0.03682899590289141 -0.3251887569640658 0.7416478194990388
P 4.667437518261027 8.557302512253885 5.042819059659942 -0.23214901819756145 0.8162514630475426 0.8309676862117947
P 1.5134118771236416 8.673561199766636 7.074431009086169 0.04440012338192999 0.14998658846519328 -0.008631193312436747
Ni 8.927983600269185 1.2952370783033507 2.607810047092661 -0.8202176467841422 -0.4642597269580198 -0.8395847384568443
Ni 5.749799100251076 4.308882426491951 2.1790312807489722 0.2982914183525895 -0.6174686790152527 0.28771132884389805
Ni 2.7319068593679465 8.874273446389026 8.918820184211844 -0.8617743871800063 -0.4891513479933769 -0.2507766606010778
Ni 5.398173149194128 3.787241067236231 5.191166001755438 -0.36388257398983787 -1.5938175937097454 -0.7426410366502435
Ni 1.7419524469286067 6.922183631331749 1.3354093303835797 -0.6802676166193447 0.6398118225971432 -1.3116721889893992
Ni 6.1485227187559115 1.7320057771966817 7.795990185256288 -0.31125003539578655 -0.26866948172109856 0.042288219245249746
Ni 1.48143910821943 1.7456777913974924 1.078761967896989 -0.592471642750283 0.9678768726677395 -1.5305080350178222
Ni 6.755353392653875 4.498530400041749 13.57011485355307 -1.7286146189186942 1.6681376445795593 -1.8668471521717525
Ni 9.14600938531072 8.56926086799901 0.9331866820863428 0.5233313363091955 0.9735425555939491 -0.7589924814250735
Ni 4.166695341475756 2.4324916110424315 11.175930959684191 0.8981637244423177 -2.495852628182011 0.6236866349005065
Ni 2.8722592122332156 2.6312014850127943 9.173830257804358 0.2765475989175947 -0.4486320477230919 -0.926117015122134
Ni 2.438033060939899 3.8394424566064917 12.172754907324157 1.4992285081782502 -0.3727778195969386 -0.14868535315526651
Ni 8.63782583294885 1.318501854511542 7.248840461085991 0.24653819703969798 -2.1543023991407866 2.1808690938857214
Ni 1.4549891624903415 3.9867239501838876 0.6683808152128926 -0.1947592646951936 1.6516296196222071 0.4659679678983782
Ni 7.460449340279871 7.844625488633708 2.3914848818011722 0.9611776062706929 0.43069911739375505 0.1129220795127281
Ni 0.5398275596167023 3.5644654679968664 3.004036753467226 1.2570681284912737 -0.3050940430967197 0.743457619014268
Ni 1.7206621032889249 4.323690670755771 7.703217000611511 -0.4568318099250649 -0.47305109999740463 0.9254397865494514
Ni 0.5484899168429787 6.809203246951618 9.122849850083776 -0.12679163840596872 -0.12739199099412898 0.13548993751091504
Ni 2.0321288409712857 5.303251372126921 10.240281824903915 -0.3948119165788426 -0.4737918348181711 0.0031850825962009663
Ni 6.842433319614078 8.841853636148548 9.109777616342456 1.0454761085094575 -0.19761396053516933 -0.7030082527499699
Ni 4.326680259692052 6.603098564210517 12.132434572801289 -5.75065891413136 1.3021092278913122 -1.1789086492707115
Ni 8.463842932890715 5.921993834964145 3.79795050124816 -1.6453944373457725 0.018353562806523227 2.305432871402436
Ni 4.016247305099807 4.372120148851285 10.28308323884306 2.2609520153812412 2.4920947038014756 -0.8247247906258763
Ni 8.678804622106593 8.590886492640891 11.186072278664616 -0.36276902921068493 -0.05815989617018372 1.338896829033307
P 5.17656172010129 5.768919430737632 5.7181960717854015 -2.0870428546621795 -0.9058983740824141 0.28253955483497145
P 8.526847821220745 8.879200214449126 4.039751434690124 -0.008600854295133574 0.21320178767109732 -0.30823156028443693
P 2.1586508524958163 5.4204227690345474 2.5787756436382834 0.503763441479597 -2.562474281966303 1.1603820512214338
P 1.244907674528705 0.09914911170327556 12.293335925756931 -2.9405215774922975 -1.7862919190255042 0.017814402473601578
P 3.3431893199062284 6.578017682573744 8.717789420637365 -1.7538219714222567 -1.6380819628447594 -0.6251675903214072
P 5.5887245187776315 3.247364146805316 9.129651397747843 0.003899077944090059 1.5075627390755584 0.45231746699447906
P 4.899833819591288 0.31432873357058216 9.567875774992391 -0.15258777353346625 2.142972061729632 -0.014513877345458875
P 2.407904337547786 1.5215424414269845 3.2008280750361133 -1.9748175441061604 1.9097876602890207 -0.31104357581193526
Ni 8.514284096999429 1.6873295836535702 9.922105741833091 -0.4909585764054448 1.1694130510754503 -0.6622549820920078
Ni 8.309418091294232 3.210287655978731 0.6435420809665972 2.4046728254423813 -1.4329043310297194 0.7962199983179643
Ni 8.859278934901761 4.22757678345852 5.413978854439493 1.9627102193196646 -1.545701197818493 -1.3420132631751016
Ni 6.133565460713336 5.97025567255856 11.509932306058841 3.151028591940051 -3.045490720706536 -2.4476002209335266
Ni 6.694807231673311 1.171220360934146 11.020154749381618 -2.064713852147676 0.4243366655108369 0.7669767851821306
Ni 0.91251008894791 7.37160918805812 3.5857008628056324 0.4044751507002195 -0.26136446341925307 -0.3903101720537472
Ni 6.529932798841601 5.311754470877152 8.924436140998688 -0.42344654959639977 0.4450541005638465 0.579813330556324
Ni 4.3562222413303155 5.566437645492522 3.3816032093971433 -1.1610572229115876 0.6710936634295603 1.211005015584624
Ni 3.4061569547915687 -0.18057489709582744 11.099282928572986 2.1523668726809704 2.55146327556778 1.4827395093842917
Ni 9.026407201137145 5.412264264647688 1.7916783448992928 0.5696353615820576 0.7617602739781978 -2.883143039572828
Ni 5.484824661540409 8.861141607136203 3.0257108075872035 -1.0387439319919465 0.4802149647356955 -1.586354966784113
Ni 2.2043142623231824 7.442083392048264 10.785905089178087 -1.553747465161737 -1.0920213032588484 1.0447803679940137
Ni 9.2534762598769 7.666693723438555 5.736066549202646 0.5825723813586998 0.3026694928156271 -0.021801926366439874
Ni 7.827339890298079 3.5995582128937698 8.002173100231236 -0.08002121501964929 -1.7266250992924912 0.28114498848029
Ni 3.3584166654227983 7.863522298452131 3.38657840693534 -0.3803255500372095 -1.0077294858883032 0.573486874117664
Ni 3.9712451439156675 2.274984046897944 6.580836837000573 -0.3722558856551976 0.21089345125289485 -0.04140118865460612
Ni 3.291807506319122 3.4384743180591526 2.4897101080761637 -0.7726149573045146 1.0280430006346748 0.1976424997802596
Ni 8.903573280636811 6.660422302225496 13.066638273927639 -1.7956155104192755 0.5435661752988317 -0.18269153489738213
Ni 1.5268789973786634 1.5589728399781135 6.804781263067051 2.2058393906778138 0.37894898140465705 -0.13042229318002055
Ni 6.125444209771166 7.025571253704499 4.402487294289407 1.262720955901677 0.29274220639958615 -0.3582999376957378
Ni 6.551530483399968 1.0020338418797021 4.46294032165825 1.3345370094027145 0.9085070153498547 0.5594396519959784
Ni 6.062346187829414 8.204195736770556 11.518751127752811 0.05670902265627008 1.8107248552568878 -0.6622428979071497
Ni 4.794564898261751 0.946256121819311 12.978677303000545 1.5671264575718042 -1.5429650298342523 -0.5125841250950204
Ni 4.894478636917265 7.55832345283867 9.60795116811643 0.10990231884979783 -1.674679302352819 0.6136765589626721
P 6.4288362633172165 2.4156158005983794 12.961079707065645 1.0041957617034318 -0.7622732090588743 -0.37988820538947476
P 0.8421048038304392 2.2883952869859328 8.670571610830356 -0.8559284699221903 1.4966036689608935 -0.421317676178855
P 7.27579332831838 8.559183811210673 13.204666011844322 1.9684229534337263 0.9049210977708092 0.14683672998230193
P 1.216092135061874 5.5532126726279785 12.66291431180944 1.6984000430085264 -0.7513519341606801 -0.5926457064343019
P 7.557550443861377 2.427006041311997 6.042928761121464 -2.326015323539478 1.8111719700966358 -2.3613183697161464
P 4.182164834382804 7.670316620934547 1.3612511136281225 -0.1038471137946534 -0.3736481380170339 -0.47371187350985516
P 2.77595905771252 1.4713154846252332 12.694824681193799 0.47333289290388164 2.0061580060906548 0.9924424778222456
P 7.747952799666125 3.7138890346438718 2.63785308756199 0.6823473819665088 -0.391681598479977 1.0235057748859535
