# total energy = -340862.2333541179 ev
CRYSTAL
PRIMVEC
9.28926560794516 0.00000000000000 0.00000000000000
0.00000000000000 9.28926560794516 0.00000000000000
0.00000000000000 0.00000000000000 13.59577919058688
PRIMCOORD
 96 1
Ni 3.6773694476814054 8.508827966379249 6.228579859277636 -0.07098918672436808 -0.9246972519564719 0.025836244336813568
Ni 3.3985707187121097 4.390887229004851 3.765473487427825 0.7966779117909893 0.27143547450200994 1.607441098030451
Ni -0.013606916276087844 0.1886399036683497 3.1689855900562254 -1.2050099743434537 0.900463833330404 0.18558402595382878
Ni 2.404080520264941 4.158163257496913 6.5619344452168 -0.13478468391377432 -0.8153348647705442 -0.9572618161560545
Ni 2.770551338129456 9.270417697271752 11.813372738513968 0.23224080658041937 -0.22061967740172325 0.8578457415495613
Ni 1.117591546406423 3.4282034760310065 9.763128705947576 -0.2605280835608868 -1.043843458002041 -0.48333371287033533
Ni 2.3194460212265495 1.16469741235129 6.216044924253774 0.4462494064235282 0.018820732250928878 -0.7480357253032537
Ni 3.5544817528313466 0.937240454448309 2.1851000172376636 -0.11001956115395246 1.685083785515595 -1.0933737035216848
Ni 5.680116536220446 8.283173126006005 10.035166707400666 -0.6470060263527373 -2.164088274882957 -0.2769286364060973
Ni 1.768211710235746 5.7957307360922306 13.039875350722797 -1.5376508167101903 0.8365618924701207 -3.069510480659901
Ni 8.325169895861407 1.7474037552531978 12.073663534667537 1.5863413399373585 1.560853222968583 2.8303719185183835
Ni 0.46278099485717683 4.088168641071242 11.918155654676085 -1.540750795791753 0.2109531008462367 -0.7250261517819578
Ni 2.5239027574613213 6.694978094166154 4.5908999805683495 0.8021723592466572 -1.3447964823471936 1.2069809820268955
Ni 8.751119881472913 6.3262592740222745 12.239545666500286 0.06083281501665653 0.593005917987198 1.1514983755785588
Ni 4.647967654961112 6.283779462354777 1.4158782257140616 -1.6845911621498926 -1.2011399498650863 1.6156251765031402
Ni 2.8285999589713957 9.223116756748922 8.639464766607183 -0.555309946098321 -1.3638707253698252 -0.28155096566945703
Ni 5.957289643706731 5.081627731034899 5.540198830714358 -1.1434716486193404 -1.077448547650996 0.13397864307271118
Ni 7.97498316062386 2.966257586152817 10.253284237652105 0.863443547352313 -0.4492964207799682 -3.0201378437640436
Ni 3.358989157917182 3.851942616425615 9.234307535037974 0.2912285979685371 0.6418756471047075 -0.1715846263509432
Ni 2.2678627292541873 6.069281029987803 2.342199148429341 -0.31645446241486147 -0.7306476117337932 -1.3788178335979608
Ni 4.272588431369694 1.6984679039817405 8.017512205399129 0.12070969387794694 0.9923401479164264 0.6225237249406569
Ni 6.921775514210314 0.7812699690291218 4.824584462141107 0.5808713395071932 -1.603287995094026 -2.318528014023497
Ni 7.922508099152247 6.202145396110745 5.379496393389765 0.7799204898269922 -0.496883426530312 -0.07741180242126022
Ni 3.9624291416767 4.097801609516288 11.898835840045415 -1.8746594491273199 -1.0475198784123636 -0.5755062185405379
P 0.6992429668494806 5.15977832267248 5.690051405798052 -0.6262327983611279 1.6346881066718624 -0.8864029843619637
P 1.234747764370664 1.91344937816081 11.536440223007169 0.2565390170061517 -0.49927352402904335 0.7031038977875698
P 2.6747790096160307 7.050719810242792 7.590197626668456 -0.04893040715211573 0.8067640923823975 0.1050043673275482
P 6.4786868335350585 6.015347553814287 9.443464639675053 2.3610982832855396 0.25592426624028825 -0.1233443032873166
P 5.869710447467684 2.8288136120805913 12.249824238905726 -0.6029779415982455 -0.5376757779563256 0.5612916176030527
P 0.3792491316475477 2.4156270774271325 2.907348779314724 -2.198902554348664 0.6490109725979081 -0.6954247839757571
P 4.402731042666793 4.152868376095103 7.283231986494659 1.8610529140874785 0.747774501222067 1.2808924846043812
P 7.498629619773379 5.588357170453655 1.0173260001139535 -0.651144216890827 -0.4548176077085135 -0.11279146747213478
Ni 0.362270211952413 8.89591166464835 11.594154430286888 -0.16622567603187502 -0.5343523700100474 1.7507019377360367
Ni 7.49716191580586 0.2123879112187447 8.545409094379819 -0.6469931708369309 2.437379571646783 -0.5815657944710565
Ni 9.041511613932485 2.144176157561049 0.6596391118170715 0.40512281158654745 0.29564498186867794 1.3710651862357355
Ni 4.671627414488143 6.703756450174416 8.427384330080368 -0.35036422778842885 -0.34605737288295885 -0.994146604997546
Ni 2.09184972433931 1.9570160339055205 3.889874403646927 1.3779549713770334 -1.207200040016237 1.5215469691697925
Ni 0.7140853554526572 4.621140255858612 3.616653878680765 1.1441833299743842 1.0835513181146241 -0.4767156933331854
Ni 5.768048724552947 4.734682949497759 2.8168416065531328 0.03879794670380415 -2.0046312850334833 0.3661245759464791
Ni 3.0247520917443826 7.320387191110371 10.364157196352865 0.6834580985321842 1.9581956192787633 -0.4706445474384411
Ni 6.408998762874756 6.779519700548374 12.145762169755503 0.962544661821549 0.21722839233198718 -2.0239266429279854
Ni 0.4012461126290988 7.2655526561719865 3.9577445650259415 0.05924181638045281 -0.6959312912985305 1.3357372003584027
Ni 9.307751255787313 3.3569362302157786 6.621674641327633 -0.3802707855398741 -0.23543154560357515 0.6795698192213715
Ni 0.21910869489279544 0.6754512997506847 7.4210930485930975 -0.7768781034562426 0.547140008693019 0.45265171040544616
Ni 8.880463615926931 5.696010469691491 7.520151919281891 -1.081983202296556 0.6862297477400504 -0.16024991806441433
Ni 5.458846229218526 5.039129340836168 13.330933123527124 0.4081076052464842 -0.1598079454309893 0.5514324654207858
Ni 6.972494904480275 3.4439023349240903 0.7380943913668958 0.049239196641786165 0.4732814708406558 -1.0745465435128525
Ni 1.8988466526105574 8.379372760737823 2.302309184015922 0.31006604239001434 0.4531579606179035 -0.8031691759422876
Ni 8.188450484507324 7.730991309922247 9.993223815285843 -0.3461453046110748 -0.3453202376066182 -0.2979877710692417
Ni 7.186092278082381 4.3801023916232715 11.708481137944128 0.09791583591188299 1.5919777122875292 0.5768257086829097
Ni 4.737544043307858 0.6063530974570751 4.1892126278224335 -1.1676361616806858 2.1913553381290263 2.0299317114714848
Ni 3.2233751691715464 1.6533778086758077 10.31756502679663 -0.05612486801802593 1.0880643754936292 -0.1247290994499852
Ni 3.933669575325821 2.183952792933938 13.291858756634896 1.2174996221700323 -1.3870484490378692 1.0003596757867932
Ni 5.3028794595055855 0.4830891873495193 12.064201488709847 -0.9921647986808269 -0.40713881357531173 0.22695873224587365
Ni 8.160703448108722 3.6882843347816263 4.405902397948508 -0.7547979837277516 -0.24442089358637903 1.5608179988552733
Ni 6.6199858528384254 4.322982697343053 7.93185960284909 -0.2799635665776791 0.8626876430228949 -0.13217578553601753
P 7.657559665218209 8.485196074649068 12.559250605541523 0.4228757646945943 0.39613552048627254 0.27645889585853034
P 8.216401884749507 8.26199360039877 5.108015747873706 -0.05203167178525878 1.5723033737870533 0.503961673533332
P 5.329818329795492 1.017973461927473 9.940172819345962 -0.8032038858349652 1.773263110866004 -0.7257548024178663
P 2.472347333285811 -0.49399385625756104 4.320426291445197 0.14913349643627863 2.1228084422975635 0.3162737138626231
P 4.6689706845216215 6.286835630742839 4.251957901360434 0.4526308844698398 0.12393385724219946 -1.0211645283472863
P 7.916748754469577 2.5260857348813652 8.061535893012206 0.47229211034419305 -0.6620192119321179 1.8126197582867558
P 2.1461176140750453 5.529732615143448 10.397480578901481 -1.0871148670961663 -3.1677117090226865 1.9494656956049328
P 5.416933062753678 0.21573204684093994 6.996333946833718 1.7771953560408746 -0.5188046520834355 -0.6875111855556353
Ni 0.6078040807464831 0.7538824272099043 9.649522845302231 0.267436637755262 1.4356356139179534 0.8466917818152708
Ni 0.2895612721133942 4.572037197806045 1.0135749946577244 -1.3316951690785452 0.37772153675545916 -0.23400535468000988
Ni 2.1358715540992637 3.5174082937530655 2.1082972980411405 0.5396611838174706 -1.0337055982370906 -0.560086541551358
Ni 4.61648633378439 8.227149565068617 2.846711240145268 1.0506972476990806 -2.373292511358887 0.575886484698092
Ni 5.92993275646405 7.785073414345638 0.4225463986893592 3.936255324471304 0.828171097303264 0.8730167928630448
Ni 4.213805958543995 2.6819781904693674 5.822161483552875 0.48817124346829477 -0.3337813837290832 -2.110004862774992
Ni 8.9940713344254 8.804040827694152 0.8885897836312998 -1.681299121662182 1.6936751267290315 -1.6690809823294352
Ni 9.018009771920946 6.8903963749553805 1.915835790497871 0.6197165945091649 -1.7963253920021063 -1.0902426140918708
Ni 6.378046929838215 0.9964502334923996 0.5059426386209771 0.8742704627644879 0.07795147697481414 0.7603626222997227
Ni 3.966739360923085 8.41279553842854 0.7002517810955095 -4.222146312277013 1.5396591053894708 -1.276929643301891
Ni 6.92291809388123 7.678191124154031 7.477243872469441 -0.40722211731773733 -1.5899146591109132 -0.3699997426311692
Ni 7.297526308426421 0.4762467142958831 10.805979750124497 0.003445278236123099 -0.48564436328138294 -0.9334474873452763
Ni 7.381844972433827 2.3678338058265918 2.707599842894754 -0.4802920978305342 -1.85093356626529 0.1348376486388968
Ni 1.142124496901472 8.248366247738323 6.2736634520976375 0.04164441501366376 -1.4342266493855687 -0.7039911854885296
Ni 6.706719725906306 2.258220471543525 6.3567884454732315 -0.5040871433676029 0.7135361488644874 2.1915908511785998
Ni 4.896659874065033 5.819557702400371 10.799208804416113 -1.1288893799297912 0.09383729496713517 -0.5441734698655273
Ni 5.888335425030187 7.9279794766007825 5.283605162276438 0.21256132587362103 -0.9282700569093948 -0.3525789760515605
Ni 1.6167223665503008 5.329716147873703 8.393272288880853 0.22070169559256828 0.6169338895577052 -0.5786630190019647
Ni 5.531469707813867 3.3586268765581107 9.916121981736447 0.4377467682691558 -0.7078586388637358 0.7997609215916872
Ni 7.014751773772959 6.660951514210317 3.103399659092483 -0.6051932040820093 1.1966058094401586 -0.09169325204093887
Ni 1.5809958509865145 0.7259421740864628 0.20725094733242808 1.3574146853318363 0.282208653858114 -0.21137270488215856
Ni 9.144000081487153 1.3752014605028648 5.350442357318819 0.044917943558612956 0.10962361126711442 -1.646420564617442
Ni 8.966733025713951 5.645932038749116 9.932151538485503 0.12688162701661373 -1.9607739215289004 0.4258952682472084
Ni 1.9627475107913386 3.27418745209768 13.366649420898732 -1.1316098641847478 -2.089201038655763 -0.9023988455695878
P 1.4576901391836814 7.696611737872956 0.16026862862026978 -0.16847153464325826 1.896059254959335 0.36699232326341313
P 1.6226582072796973 2.336417509509191 7.775316898667883 0.39026466352779243 0.7839779477258176 1.9652219299979254
P 6.037298088467752 2.9807023941875768 4.482338191153151 -0.5758895700218856 0.44958001345865795 -1.3777420840352788
P 2.9886447162902905 4.812211160338985 0.588157283966086 4.37494851581413 0.054833660010428144 2.3048973106139403
P 4.17947283282279 7.5789910566278555 12.3249270224943 0.8290568423423269 0.14113248050867305 -1.148327948270377
P 0.6752320730821186 8.096087316475415 8.68600305842284 -0.25721650268915053 0.09498349275643642 -0.3511152470218405
P 6.900521674478139 8.789187291972235 2.2475452474962276 0.07120541650023221 0.5001541268617837 0.373564320053976
P 5.206354700477167 2.4594259648122727 1.8173073368758197 -0.30931193783280925 -0.091129666227985 -0.06766732143998667
