# total energy = -340868.1832589849 ev
CRYSTAL
PRIMVEC
9.24349442824569 0.00000000000000 0.00000000000000
0.00000000000000 9.24349442824569 0.00000000000000
0.00000000000000 0.00000000000000 13.52878844247077
PRIMCOORD
 96 1
Ni 4.472390834212441 3.313894433233032 8.22214838226609 0.4695191755847462 0.7183453973276726 -0.12931723304129986
Ni 7.502214196482191 1.422666228425058 3.63982559309272 -0.21802183476755999 -0.9817909116456704 1.1710739837176414
Ni 6.376596905206555 8.662753409731641 5.1613278857594445 1.7350449479250698 1.0521864306500976 1.9511628808016974
Ni 2.9382110889287008 0.27008381518488783 12.553592564641283 0.7336007808248463 0.7005952724331032 -0.18788362062128286
Ni 8.176850637789467 5.367900575033828 7.113896843984686 1.2974753286637268 0.27251945159480806 -1.590059926439526
Ni 9.028842006812885 1.6626550744298645 8.471132072705178 1.8882955518535158 0.9059711363018783 1.0215661346610794
Ni 0.40225284470706657 1.3624263751949488 2.52394447450502 0.8961127554505599 -1.482494483253021 -0.1316978174583345
Ni 8.300417671390832 0.570206214233806 6.1083155714364095 -1.243588348837284 -1.2130629265549173 0.6963400967011749
Ni 4.894485764072762 0.8164695442608003 2.2270951968353843 0.6584314945808595 -0.24931884510862867 -2.540174075807206
Ni 1.7189109815586732 3.117340767576282 5.111284531240113 0.0013858246039330972 1.6982408917228429 0.10183445423999882
Ni 9.066074802395343 2.9299104309264545 0.30748391801661173 -0.14238152242442575 0.1975705088917436 0.67166084878694
Ni 2.314996207160952 1.765701550386479 1.0375859476785403 0.5878284875513167 -0.48415543744068235 -0.2960131638413741
Ni 1.083106460371036 8.997543534657424 7.43753284417627 -0.6990047880175316 1.6245790432623182 1.699412543433441
Ni 8.023556526086516 0.8596338902219238 13.104958688518542 0.43488075957527034 0.052100577349981234 0.03348707601385201
Ni 7.521181847061933 9.002914004923909 1.7699711204658082 -0.9405514453799091 -0.710728247102047 1.1334644008949835
Ni 8.863254047511955 4.330041019920025 4.634002242207622 2.3757471435469664 -1.3003673054995413 1.563276487698095
Ni 1.7917682046919738 6.581654585743112 7.956064227123042 -0.8625194928761468 -1.5141828154952375 -1.5733757809156257
Ni 2.5437357204388835 4.723250029672306 11.516246023468598 1.525406966345831 -0.5973392552552294 1.5934710090036042
Ni 9.305610717172858 8.098974197178194 9.45877449560428 -0.3576401926245518 -0.8327828850436625 0.17281284233108948
Ni 7.207355967513762 2.487757118143112 7.284602926154041 -2.275147590155333 1.6500136812853388 0.32687282953470803
Ni 5.016268803248255 6.8896293333142005 5.021873133923936 1.688105345950738 -0.9325314032889102 2.873709147853438
Ni 7.184838815071143 4.642887089058132 1.236831318914638 1.9046253993617908 -0.26369773953812004 -1.1433394939168504
Ni 0.9600478189635719 1.0808695347178696 5.046454358673794 1.270121362130806 -1.7439149967211902 -1.0748023682774006
Ni 8.05781291646104 0.892031413865657 10.76848244899053 2.5768999704733297 2.351870851150001 -0.26585515220075506
P 8.452805920639195 6.524853312442665 1.589402229734764 -0.39387012149086364 -0.4173378655955006 -0.6932784270567157
P 3.3533179369964836 1.093810426926271 5.893979271186428 -0.6993901963814083 -0.3965001029145429 -1.4657175209049982
P 4.994676000249093 4.834560189653428 4.26440943638623 -0.8916752885044966 -0.9672739489764179 -0.014985931885870966
P 2.4162032277250862 5.875904542169065 1.725474786956663 0.2413525390737005 0.5687735278023945 -0.8616985396367483
P 7.299060675799155 3.375936767877883 12.787073066214706 -1.5398665934145868 -0.20023854264221 -0.12872510798325573
P 2.2796490844431463 8.142797604292502 9.161154310498802 1.1771376734132177 1.7048961922558317 1.3445226598605167
P 6.164292325033293 0.8946445497423106 9.942225892822405 -0.6974515845977989 0.28461597774802594 -0.44634196613733457
P 0.1697327422053946 2.658068503100111 10.53136370800766 -2.2309621538873707 -0.35542775835426527 -3.1472292727986186
Ni 8.324275130526464 7.615391542339096 13.062018035122737 0.3737748934028853 -0.6257692284611481 -0.19776848383516263
Ni 3.0436238994605658 1.8704580728134896 3.42239087350827 -1.1016583121279802 -0.45089359006375895 0.652553695643844
Ni 5.035791063494072 8.736756826174828 11.656809994636255 0.8213165362752758 0.42633492688778835 1.2382311982904286
Ni 7.149463961870034 8.229150329300278 10.899007985202243 0.15579599605811878 -2.8501799543832465 -0.10399160979231767
Ni 4.803696161736391 8.556998589905696 9.278909034799709 0.014313845519510832 -1.878037364460617 -0.8341962204514214
Ni 0.7098467603074498 5.984293757908863 3.2037119795729274 -0.109494798998734 -0.30148267159637754 -0.4540136237499794
Ni 4.045193495424238 1.3702556149810319 10.247826911022695 1.3288307030465567 1.1043985938772787 -0.012281388470514333
Ni 7.823185297228287 6.33542638099497 4.920758548304147 -1.5827991311120546 0.86668467999743 0.2613258968718338
Ni 7.03052791898039 6.810098307199138 8.704003427995364 0.1649475806503998 0.44439024172760233 0.7995056110477714
Ni 1.2689746464614204 6.124748655842192 10.426271646732673 -2.525451939105683 2.6435064547489695 -0.04774924235982098
Ni 2.6970852931084415 7.107147244348561 4.166068823446256 0.7007587945941609 -2.172373397709885 -2.8594593228026435
Ni 5.588117586443085 1.6931678495583884 12.766292766376344 -0.3012049924549587 0.41478373171507926 -0.4592985262980025
Ni 4.990525671247971 4.943679641453556 1.2797802914554357 -1.66764347855196 -0.5804995579900711 0.4762071291278831
Ni 1.103155599799624 8.364225513472688 11.508980636843022 -0.6349508949604161 0.23586297671403897 0.9404154340226771
Ni 6.287018200641113 6.887715929966244 0.9301987267354503 -0.3084699015474881 1.0235481980881147 0.11707569666978547
Ni 1.946957232754012 4.012915212858711 7.388314933709945 0.13935816221706968 -0.0085471182390627 0.3626096208146852
Ni 4.7471259757968065 5.840585149934563 8.895908540300969 -0.07755321309513095 0.700957026647896 -1.0936650095098583
Ni 7.001355450544878 4.544443873329935 3.5782297192290593 -1.4125707616786898 0.057950351262538904 -0.6809173343882015
Ni 7.554162635204488 9.184761270935256 8.494658614740052 -1.6799346372144877 0.022481468931967733 -1.1277604085316708
Ni 2.1480217236948334 3.114271927424004 9.801012103995998 0.9022227250030397 0.4710345837880081 -0.5908315360436985
Ni 5.298435714358016 2.6717673618521474 3.655573734560901 0.41849589045934377 0.6779320265076324 0.5986204359604981
Ni 5.612779229594524 4.644199665267841 6.303846906608697 1.7759375723743738 1.045927337114263 0.9995955439272591
Ni 0.6404817293715306 5.2906804225274096 0.3332612509463041 -0.610351351244181 0.5565813566115769 0.6968144652344322
Ni 5.782046099680416 6.145925501591798 11.235591348048333 1.5561789574213651 0.227325371556673 -2.070952891078853
P 8.06811941275559 6.041797536786338 10.966584399965072 -0.38714540117252033 1.975487059369359 -0.4645083526337161
P 3.3361712548203517 2.50899866835376 11.920513025612957 2.803575881371462 0.9864389519406429 0.2953161377743495
P 6.315062962755606 1.535020903277287 5.478076558247829 -0.7019720981759717 0.7597460717616464 0.5168848093529033
P 6.415927974025662 7.589731601788723 3.388447837595077 0.5623149166612444 -0.255781827125153 -1.644912869723664
P 5.654781668305222 7.337254794802809 7.066099658612954 -0.8607516023424466 0.5917337361429937 0.7929238440651957
P -0.16891007120071763 2.5456768542701433 6.481398720756295 3.0609674761858963 1.4807983264975209 -1.3914640616070617
P 4.23121882092001 2.916535094479628 1.6800587257512776 -0.03507293244373314 -0.8053885521911097 0.17031321583768733
P 6.1411928324412965 9.042947579320042 0.1521922871663498 -0.6191113568249982 0.02528525692935 -0.3868319836971596
Ni 3.375714924011453 7.344381529011865 11.018264777348769 -0.5177435578087728 -0.41063705653655735 -1.3528795164656442
Ni 0.49808754630582763 8.325541489264001 1.568541511494821 1.359035508764711 -0.8031321520567651 -0.6594871895388836
Ni 1.6663524722036935 7.994347083673267 5.615881346326766 -1.988712042700065 0.4700776191913776 1.1648691404585099
Ni 4.655735546322188 3.9697018763770835 10.336995204435242 -0.11555488914988486 -0.3429172845920804 0.6846804009750596
Ni 2.901921129778569 4.687218888366341 3.4843795958854007 0.47881062818900116 -1.014143616944763 0.748650218958801
Ni 4.3864448229597865 8.805972112500909 4.015601372341397 -1.4943236146774652 1.3970549254312778 -0.03786463625625737
Ni 4.420377691029102 6.545272191648635 2.978850112210299 1.1787968062831957 -0.3092003519556094 -3.912216024133914
Ni 2.2773751848122417 6.808794974483864 13.015979886741903 0.4394938328672495 0.020836991350009278 1.097059122793072
Ni 5.019171260500711 4.188754207487583 12.580961627312607 0.7111565928887171 -0.41859102127631137 0.13597021958144326
Ni 0.06472664542865067 4.408693914063803 8.956477461932948 -0.06104467391714648 -0.3684172286353978 0.9771107325611817
Ni 3.4199912623530557 5.878039789383451 6.162119179491725 0.17099430106511196 -0.719618093392509 1.503624580363417
Ni 3.966993532507754 3.15263242932748 6.002994271499446 -0.5740388899663921 -0.8382354235178016 -1.489862750692634
Ni 9.300064620512112 4.474184072132749 11.632755649069168 -0.909217411153318 -0.4473629512026811 1.2077461423276943
Ni 2.82589338805421 1.5604312694779268 7.895725468502483 -0.17682839124838576 0.26950894690325844 0.0175115265212021
Ni 6.860743413206161 2.129331377948128 1.4837564831431478 -0.8257881988933844 0.7342055042883806 -0.9942095970249973
Ni 3.571113152863882 8.472596242223615 7.047619140189914 0.6226509945471406 -0.5727019163225234 0.40604789450397816
Ni 1.2128573917491308 3.6420754596380953 2.0857196468563712 0.3493540413563596 0.4403788065753641 1.4253231762483516
Ni 1.3090174643519887 2.346350140283022 12.148540789819426 0.41958706664099354 -1.2978669076751908 2.0147184940661558
Ni 5.285984727354647 1.135914544075749 7.7309453906151315 -0.03387556970152231 -0.5185462562157264 -0.693199237079348
Ni 3.1628187601943787 8.300731950201609 1.5937586886617783 -0.5481221701006301 -0.052985036837463584 0.26660591432385056
Ni 2.8128877913847665 4.054677320714109 0.26225272669991795 0.019925535279333426 0.14620475282525788 0.7250935146847836
Ni 1.8645052623976248 0.9060075774507306 9.985098144359396 -2.177671155773714 -2.1076345627706026 0.10829152271925221
Ni 7.168015655200221 3.2697475038135138 9.908119247057721 -0.10808197781160742 -0.9293010692770705 0.41161099041405247
Ni 8.855406320737002 8.004487197067993 3.778319945856477 -0.0770518479786802 1.9896864907981926 0.47581092213072895
P 1.471897079783591 5.424895961717402 5.705820547175158 -1.5324962690924446 -0.7487034407942396 -0.9478423226143675
P 6.698057911157685 4.686414704350534 8.352687783719453 -1.4849316319396038 -1.3421796135496369 0.7441399897932732
P 8.94550266099078 7.574858819243496 6.447482490976961 -1.0836886150234366 0.038273441658901834 0.0748350428330195
P 2.698268460396067 5.163009277397094 9.357091435076764 1.8686898618074463 -1.272680895327866 -1.5927649840755151
P 8.440669212446602 3.0584227340503163 2.6374647540054488 -0.3474506536860597 1.9848510170827625 0.2959622559987806
P 1.0016620309080175 0.3566916606390586 13.476202382445948 -1.0640477008640579 0.013845390523524542 -0.7506520798801782
P 1.7379525800938922 8.820465911774319 3.33874279497205 0.03778827449236718 1.3702419190034918 0.2526113998169714
P 4.4741101241772725 6.419653102282795 12.718143403866655 -0.9681668931043326 -0.30967986269518927 2.530743526521926
