# total energy = -381165.8133518071 ev
CRYSTAL
PRIMVEC
9.26623288557589 0.00000000000000 0.00000000000000

0.00000000000000 9.26623288557589 0.00000000000000

0.00000000000000 0.00000000000000 13.56206847321925

PRIMCOORD
 96 1
Ni 0.8889495429185666 4.153588785379656 10.227345759588806 -0.5247901802429091 -0.5063854524834762 0.9840658237227762
Ni 1.5591363056954397 6.663978002462724 11.655037775273659 -2.096009319826848 0.5866408950011187 2.021856647772834
Ni 7.250474931814247 4.13030274273011 2.6360458181804427 2.0620609879058613 -1.08185541846944 -0.5041419078649382
Ni 5.575631179017779 5.013013331205405 11.721410873122617 -0.018579305664084132 0.3881926114901121 0.0038458561086514406
Ni 4.256740487239882 0.02258458883793828 13.094163395425394 -1.1338881186959633 -0.36345834196822563 -1.9826599229687145
Ni 3.6641649092699344 8.019247923624672 4.906661072587856 -0.840449657560301 0.8462670355730264 -2.5952818154146273
Ni 9.031722834131104 4.113892244706892 7.95346137830246 -1.0225783779756774 0.5921571968336575 0.40722725952405997
Ni 8.125503813422661 6.174841379565154 4.102620799311385 -2.147342937103818 -0.6576084844589319 2.217602444751013
Ni 7.491563772902943 8.69646127062007 7.014301827146396 -0.1289971306977198 0.08834516150431236 1.8652965198551807
Ni 4.8287820936573445 3.723904311164731 6.195572721873085 -0.1645436603437618 -0.3626705559596076 -2.124899006278005
Ni 4.199132318854594 1.5293268352602665 1.2632210192629976 0.353023776898463 0.5238794955031816 0.837238606822171
Ni 8.418502089816872 6.266299095821032 6.897030239974042 2.192929881704998 -0.09470144273964336 0.5160538288111758
Ni 3.227808747546982 0.21481536503277726 6.639038863908412 0.8870416463872272 -0.4617115066148693 0.21243482759808574
Ni 1.3314279045533992 5.70426502066561 0.6529673226433069 2.3112636191516 -0.28823814788164553 -2.250351871267892
Ni 2.3725447401810995 3.288539636335333 1.359638023233176 0.5963360108016955 1.3890554521655691 -0.40349144663071157
Ni 6.571426870754142 2.7954926632594463 11.790224696651597 -0.7921034050464293 -0.30793356942804384 -0.13077324876153607
Ni 0.3944774232611043 3.447066344512187 5.866001551832439 1.188287005161818 -0.15361415791545155 0.01826254575461371
Ni 5.428705794118772 8.109223042656545 6.1883849052064495 0.1568447490376073 -0.24105043445224936 0.5935059975520682
Ni 4.131961398374466 2.5002148936333266 7.925835032279637 -0.27943211955424135 -1.3982754281019403 0.873428940699799
Ni 8.952857928046628 7.950279354010437 5.279997586057898 -1.0349672385583337 1.8257619520956687 -0.9301770441241206
Ni 0.7903633138850145 5.845065425782942 4.996781671472333 1.3372132706832969 -0.8774393474107727 -0.12391148864469628
Ni 5.240592005090345 1.212745996771709 10.695087577920704 -1.1060518132099852 -0.8006137565102857 -0.9634468619208439
Ni 5.855230483000034 7.397214992060253 3.804227722268323 -0.7717891189691095 0.7981208148851029 0.5386525400472981
Ni 2.551559088747189 4.303201377747174 5.027404717134179 0.5975452006184484 0.3166223554512934 -1.1769690090458376
P 2.448008938883011 0.5544756091827852 8.48353436380137 -0.5976853257407384 0.9043300011540295 1.607809022892831
Ni 6.556267314138679 2.071225386867155 8.716788605184458 -2.579990179362879 -1.0437866366221766 0.20671900816023106
P 2.3289563817953196 0.48786066266166006 4.542560213200107 -1.1463248017974192 0.15877770439426203 0.024494128486622333
Ni 4.352015891347575 5.2416576218451 7.86255500288926 0.024847398060983013 -0.7955831360649137 1.6532036489775463
P 8.515704870315773 2.1246452180946256 2.5391580895916426 0.5017052733989875 0.6906116788578299 0.8707804473333584
P 7.254904191020965 0.21434834690721533 5.117945076357704 -0.39627564560856265 0.284010225843227 -1.7728134249230953
P 7.8032705730175795 4.320714557455746 5.5646933179976745 -0.592347972688225 1.569240932811646 0.37725076776662775
Ni 8.631708836861602 2.264528266179603 12.66118106901032 0.6757494170340168 0.8272830382713559 0.8736503126819857
Ni 6.324704160214223 6.029843371057355 6.302171462279125 -1.3355682788807064 -0.16282487788044217 -1.4487482400405114
Ni 2.7311757424355303 2.6393566431063014 10.029135483464898 0.6474569978472269 -0.13799624887253653 -1.2191183887203778
Ni 2.9821145888312173 4.771924490116709 11.259852411838091 0.6623390571653819 -0.18328057463163275 -0.5305219405203638
Ni 6.962295096398056 1.9585016666794393 1.0151176400582227 -0.734374168655761 0.11020956567757148 -0.7292242490237055
Ni 2.6471124798343837 2.293216522464122 5.847814717010208 -0.2505036094453492 -0.9231890428420617 0.024670249053170414
Ni 9.174052167635692 3.97293431363451 1.2879655669316596 0.5646479356697953 -1.6555173847123876 -0.2435428618567999
Ni 8.895629675199991 0.5678097179661903 1.1167098349634472 -0.9428782937408728 0.31303335254845444 -0.1345298875904909
Ni 6.8144245557687455 2.5103706846177687 5.0254106238678915 1.134522924066485 0.926770846656049 -0.5747811674490553
Ni 2.0600317778259085 3.880420246856527 7.970657652854402 1.1720566593458848 -0.2413432831023198 -0.5222594434012554
Ni 5.689957957453951 2.6752169634619496 3.0651761716828956 -1.6365948367762717 0.007104729365581312 -0.6039266786647599
Ni 6.346831923782515 6.880224073816668 13.068015940133517 -0.6234644915873714 -0.19118286019784494 -0.30017166609443785
Ni 7.977883461074901 1.9391167079755594 7.055476331926842 0.24492251581314592 -0.004892552205610929 -1.1048909601326649
Ni 3.594084391737695 7.433167974742401 7.924004024707989 0.620514407820112 0.9422673996297515 -0.761838692624617
Ni 7.403951543196831 4.2864665615812045 13.433214848090293 -0.8133024077215478 0.872580990877207 0.253360362167854
Ni 9.193594652294623 0.045423072450487614 12.420996612228267 0.7492120049995419 -1.4532253019752583 -0.07955430268555976
Ni 3.928206208632775 5.952924373829387 5.700788330175317 0.42301743247878115 0.3427640468436678 -0.024936615340679633
Ni 2.243707041414967 6.613310242332315 9.568188593535275 1.7771477906323911 -2.1452343754012473 -0.6708982595893026
Ni 4.012158276442122 2.4449603483411484 12.1840534836272 -0.35165929245076855 1.6805092787710347 0.9687050249959899
Ni 9.101590228312393 1.538630132840905 4.691268421260982 -0.32007406144531975 -1.966972851250761 -0.3671730718156515
Ni 6.482869485317726 0.4443306815415752 2.980183505946949 0.7545303318886618 0.13591622641505624 0.740016454543203
Ni 8.21269906265952 2.487436758808924 9.95067921824029 1.33846694058474 0.18561719318460934 1.1883181155100695
Ni 1.10162533483245 3.012795085135494 3.479877147702708 0.6486733867528313 1.1298553433874865 -0.34760054900036264
Ni 5.839579816054119 8.73052394184161 0.8853699972458569 1.4594766822016092 0.6833804512167134 1.655424053667633
Ni 1.3706796660589613 8.593216906433343 9.93028146030776 -1.7457877882638708 1.048974351470703 -0.19872313443894807
P 5.29011075237215 3.1517885748860683 0.2263944493522651 -0.16810798065625243 1.3150542180877545 -0.13531895915068953
Ni 9.225831875684106 6.051702413878796 9.38427333452058 -1.0405509032936981 1.354208519689713 -0.18977646676862153
P 6.960358453774198 0.2908837221034714 12.762625004193143 0.49676541289520904 0.16489538725622566 -0.1640104135481111
Ni 5.373701437108145 9.240945101136319 8.350314663615034 -0.17646175193758643 0.08166569260160773 0.3322124965800666
P 1.6885855758164745 5.888987368544123 7.568244627951804 -0.2718067417984996 0.7093344520783139 -0.19351433654449898
P 3.6544075662894437 3.390347734461303 3.236383719241327 -2.4694119174919797 -1.8344540805530278 1.5366450011534956
P 8.647405834970765 8.050808712030703 8.627835551613886 0.3714187344658829 -0.3683670921237527 1.5501070401956722
Ni 0.6135552553128991 0.4652176965580265 6.843514966550275 0.562687983729947 -1.1456077211257367 -0.5601711308453643
Ni 0.8371883673354529 1.6934688804230447 10.971184245961243 -0.4851867069186741 0.2863573859191649 -0.3336500003575415
Ni 6.655147282747238 4.092107331746652 7.575690045886111 -0.2885042570588386 -0.22813166950805225 -1.1593605519354548
Ni 1.9585572640753395 1.392622104974252 13.48395025171905 -0.16443875933478133 -0.2989370223563884 -2.5111283233941593
Ni 6.578617467290572 6.454042235543458 8.411507010789357 -0.3368703070670521 1.566384437199457 2.718784755766995
Ni 5.36519503553541 1.1546652505212691 5.927410728850772 -0.9469763750696466 0.06725954447860674 1.2741325401727281
Ni 1.688214926510473 1.1951123560386863 2.015350003987424 0.23498931585983399 -1.5610982490998535 3.2452695501035076
Ni 0.5870028656542146 2.0425000656520362 8.425204355892644 1.7553481782587963 -0.3655782165247059 1.4910873671283547
Ni 7.379868604539381 0.39106003665977024 10.619139681874461 0.44908841853422016 0.4139522369527193 -0.5468448460501034
Ni 3.1239528120053532 8.101448673463162 1.7963639076388644 3.524007728914518 0.6024824900190656 0.10215121414946923
Ni 8.226320424655077 7.579231600004955 11.219004078446929 -0.024983666528531165 -1.4192029222832268 -0.3000261416555091
Ni 8.300644876741034 8.204711570115188 2.7700929929424265 0.1492376261143107 -0.14746922135997828 0.00010875766372239335
Ni 4.962614291821847 3.529684074819929 9.972528068205815 0.060099793505373915 0.45236451818233064 -0.6205378048588797
Ni 5.994362966240359 5.0333249131742885 4.351403393369408 -1.0756593169610569 -0.9884094454034525 -0.47193678388730337
Ni 3.7123400528174835 4.941070300910508 13.51597064526452 0.8024662363379922 -0.23436325224006088 0.5493994941511571
Ni 5.489158695927622 8.10080003717766 10.914345174885911 1.1882903475959277 -0.03501791083608163 -0.9843198487151111
Ni 8.532513816342941 6.8408889162172555 0.28117919664908636 0.21187201311608025 -0.34029887313262686 -0.6402216564410523
Ni 4.6243504689322 4.861176843001878 2.324049911607124 1.600899183146875 1.5080846730172994 -1.335995596226112
Ni 1.6920048156643386 7.566907510580403 6.1825267929250955 1.3055668474226096 -0.21312953967226522 0.8939846533639636
Ni 2.8986999625155727 6.32175749823151 3.382216615310895 0.03895144156253292 -1.2178999429322444 -0.17239195274358698
Ni 4.308260740774095 0.9398369127627818 3.7487730263509036 -1.2362853874179676 -0.0757189880998696 0.08214880288561335
Ni 0.19893767538693669 5.895927776799002 2.4226602328455664 0.2267458449041192 1.0991797686805003 1.2620054178918911
Ni 1.3194188670389495 8.068970528024778 3.4879471097176262 0.37932976178284344 0.3565958105204375 1.537897642613674
Ni 3.895162823002738 6.966270310204923 11.975102717238633 -0.6453263246574692 -0.49598636863733936 0.7828785440140517
Ni 2.8081410708267485 0.7224492415463539 11.286393682017597 0.7531568485799028 -2.3576272940178042 -0.31229647438242986
P 1.7003258925840727 3.3972325453202816 12.395106758204061 0.08023641635424891 -0.41213241013516116 0.28291956388220946
Ni 7.030809620612439 6.2687917124038925 2.2207610695036775 -1.0709570263893815 0.6629049569711809 -2.8772472429136835
P 4.738927435649923 6.138239760597503 9.925901312134087 -0.14621298035537397 0.19854110033512903 -0.022252897860929415
Ni 7.261131099361791 4.460486410748923 9.659366469565121 0.1041726154548722 1.196778844682913 2.2529615409765973
P 2.2921601719420175 8.278109398936142 13.09697013729509 0.65591309903438 0.09021358217161883 -1.3289983389726725
P 5.054275865196026 6.818816750044864 1.4138315848869245 -0.8498226141347687 -0.27542068440200307 -0.2858511357067077
P 8.373255075786734 5.457681303615442 11.887572957003105 -0.0992381542677323 0.7692077313951785 -0.6853342325089746
Ni 1.0788118700480558 8.0866968310843 1.2078172876251536 -2.4079226998382466 -0.5483090893004556 -0.7760260398685924
