# total energy = -340867.319995247 ev
CRYSTAL
PRIMVEC
9.29836446572185 0.00000000000000 0.00000000000000
0.00000000000000 9.29836446572185 0.00000000000000
0.00000000000000 0.00000000000000 13.60909628866606
PRIMCOORD
 96 1
Ni 4.184580074944138 9.042408216315104 12.398063290541353 -1.1525216746367506 0.6540261664243123 1.2061438308375807
Ni 1.8919939722983898 3.355770373943446 6.897048694493549 -1.5764341081259754 -0.5894354270271204 0.411506089405072
Ni 2.5175042364596916 5.54819449645592 2.9253295643883424 -1.4009560602578968 -0.09643436627035006 -0.2300509980179522
Ni 8.549836666409783 0.7166770066803051 12.039069252518745 0.19713830645033145 -0.5727703076666136 -0.022032554320007215
Ni 0.4006665172616801 3.915755064952205 0.26681470363240795 0.3672718021770449 1.5127031456259175 0.3100727272582337
Ni 8.813900913885172 7.174208758235156 9.184996773031381 0.0994618402427642 0.2955413664112781 -1.5514895223654956
Ni 7.991200238223093 7.624463452256096 11.35518478718044 -0.44949568127496786 1.7442327850719253 0.25769781320094326
Ni 5.575801340033315 0.15083062682304862 4.551004435870988 -2.3452474322962127 1.3881733066709319 -0.08117409767716988
Ni 7.547724051769657 3.9513492034548205 9.475863555573069 -0.6584178677341047 1.3335540766641552 1.739072323916908
Ni 4.371272633161358 4.974085590090454 6.503378266523763 0.5045697394309762 0.2635966951838815 0.5212289452542119
Ni 4.783125082664065 7.220514612400001 11.23245753658788 1.7886190244967843 -0.2504190201513429 -0.24713469297311635
Ni 7.104089793123289 6.1880986285383415 0.685502380724788 0.6845191928068469 2.7429024747508053 -0.3122237121629655
Ni 3.9838748817416936 9.164477142715924 9.652904411657133 1.4749138426922859 -0.18032534865805075 0.42999463512756264
Ni 2.9616778002348876 7.912647656700079 5.721740097403326 -0.020450297434551876 0.1497706157996453 1.2083858327942223
Ni 4.354591367624867 2.1524039626077567 13.023823680702058 0.5163312508422785 0.10393813084656292 0.3026255269515691
Ni 0.335680249237965 6.370281480074849 1.221568889270047 -0.0933277023205683 -0.15396485638665097 1.5158221508708734
Ni 5.108921170661622 2.6030584862931727 3.4512255220730577 -0.8656166437442319 0.03562263429961607 -0.7878633988231527
Ni 2.120891806028508 0.43922311462713104 3.676742470547284 1.0986143830953339 -0.26288347116694083 -1.6051651575120807
Ni 2.83406704871715 4.041496845247626 12.341272600802958 0.02008365812375251 -1.9456059555392107 0.8655616221365803
Ni 0.3160523320579307 5.7154255782139 4.489191699579494 2.3068706322902273 2.591007099298673 -0.48876388274697125
Ni 8.398505787587926 8.453514910728332 2.5977584186477993 -0.24780086580220548 -0.7724879448083469 -1.2171941751144715
Ni 2.2870163824359615 1.4368297419322607 8.768558370260784 -0.43067237792087765 1.3866568700264055 -1.7030336851257961
Ni 3.4981748230467793 7.7442821744987045 3.3875084807749447 0.8657907074282509 0.030434405230457266 -0.19272397943271968
Ni 1.1282914180571837 9.26613615949991 9.933741978475485 -1.616530204815913 -0.6310885837915324 1.329029449320924
P 2.4849785581728185 0.26548131819320336 0.3758398846070343 0.34471628547403216 1.3965805568980205 0.15703938154691663
P 6.716924500810877 6.105454766727671 10.770048020766879 -0.6686760551270032 -1.1799116366139293 -0.9474623135671296
P 4.145340977639792 6.743527121044938 7.9809320545375035 1.0884094175378738 -0.6640583538493338 -0.4214117785545582
P 7.997504529211802 4.717943548990258 1.9759591316746883 0.9371349634991926 -0.6912945638574676 -1.1620699804468182
P 7.9940362393315825 8.08725234134013 7.100355570024373 1.147735566102017 -0.9369555004985347 -0.07320522053908038
P 7.842658868688275 5.087404755694262 5.301886405428964 -1.7534905562247673 -1.308321013128979 1.1199378271634581
P 2.5901616550227633 8.159435543324406 11.067161444438675 1.3243171314469193 0.3588504108825691 0.13100464804605177
P 8.384074726209645 8.073425673640708 13.558960352818303 -2.621666733166059 -0.28528420745964417 0.8201945068556906
Ni 0.19462964197527463 0.3663648513953924 0.8677605490120454 0.03582266612556411 1.5768241444755424 1.8573968053921301
Ni 0.43422989300333154 8.346146698270207 4.90153324304386 0.595890952844477 -0.4765601415919277 0.7953743624882172
Ni 5.886915310816757 7.74537008312065 6.8472122514077425 -0.9637965319507789 -0.5123902639166595 -1.0778491255235243
Ni 3.115835381800944 1.56171607271299 11.121203537692907 -0.9655875624129306 0.6369087900177353 -0.5860302580003133
Ni 7.594504122513299 3.2201444324076167 3.580240326598604 0.0686440835309592 0.7696638450959906 -0.10888081956381894
Ni 0.8807410655610661 8.843618486156425 7.349088674458195 -1.6488191467566053 1.0698406533967508 -0.4439552110727128
Ni 2.899574025141112 3.7679761612891767 4.664395198879831 0.24387042039954773 -0.33732564943691584 -0.8902845788045571
Ni 9.229946925682725 6.2491702851959126 12.549219360114556 -0.010681905193878377 -2.431244662393639 1.0237245757649789
Ni 6.8738901883925525 2.3919949152715234 12.252949298083875 -1.0349764945297144 -0.29675904086846305 -0.23365182799533304
Ni 7.4219450780170755 8.224812342648308 4.683270878388793 0.5596540819996297 0.10462153006683272 1.745250170592846
Ni 3.8550832379591102 3.2606760023482915 8.884957154117483 -1.4448293646020796 0.28843689415601287 2.430819144820446
Ni 7.381608773726494 4.684729791745914 12.320654407826023 0.9203934823747956 -0.007507364120638684 -0.14730518497828823
Ni 3.910743246599825 2.478209348969604 6.623057513302019 -0.03008679208305141 -0.2763246842735112 1.0242771058343392
Ni 3.115946962172426 7.604388283753706 0.8393466074142677 -0.8891430090009461 -0.7613956915499274 1.18108508809674
Ni 5.686172924157151 4.891581203744135 4.3919549848518935 0.03827215610732118 1.736148979622526 -0.7066617903421571
Ni 6.637358397580239 1.7232565555254098 9.245516106850118 0.629528181282948 0.007348727055587344 -0.16661494105049368
Ni 5.9666952764260675 2.951682058622998 5.499394820988462 1.2915322237064144 -0.9959921428467169 2.17743435717256
Ni 2.3842121843606847 5.115430025664713 8.210939183127433 1.3791446208097602 -0.07176051767275382 1.4879043414146826
Ni 0.3425331437197905 3.561691949512654 5.022968021000095 -0.526249538397255 -1.5540071465810268 0.6965367860930133
Ni 6.0110298773614055 8.053573665881283 2.1884518612877306 -0.5938111874973129 -0.5248143486126252 1.2861362495018238
Ni 6.187912661252539 0.072521662444436 11.0113777675529 -0.5549029404678895 1.118027497514623 0.8416624469214795
Ni 1.1054918288177862 6.789991047402714 10.736651085746022 0.6443104817984451 -1.111453443841531 -1.08006361667634
Ni 2.432824032869482 7.700710039435158 8.533243735334047 0.14689740801690832 0.13422469764524625 1.4828282124433558
Ni 8.196219872456158 2.2341179879894146 1.0012711126718696 -0.7296762489594595 1.065819705162816 -0.3212914787921886
P 8.037515390752228 9.301525733988143 9.853992697468332 1.1186540753550283 1.011634477369664 0.627412420491526
P 5.11523476001462 7.583690124843878 0.3128360278499749 0.993803105615198 -0.845476164240615 -0.8202166183428777
P 0.9966544748018205 7.603030722567348 3.0035139306854672 1.8142845475836884 -0.762036667568036 0.352517783796322
P 3.6100806372784877 0.20319157581362587 7.527327159862829 -0.20367096536252663 -0.03193232993222243 -0.7172717046475195
P 3.8094375676588643 1.3713692573297491 4.915224154624648 -0.7634903692954271 -0.17877214523831791 -2.459155529871294
P 7.4211640154167045 1.3153559108460091 4.741395883402821 -0.645625858175759 0.3505493472160415 0.5921245438235093
P 5.586661829524186 3.4528917889538486 7.905428406665224 3.180117795996523 -0.2271104273323895 -1.770043575487442
P 2.3106993162829212 5.486983364333997 5.950169293573221 -0.7228435423083422 0.3023643028703825 -0.8295993451093584
Ni 3.9365555058692245 3.3922385586893338 1.4807105826902398 0.4287700186918422 1.2670375809991599 0.3176286852286207
Ni 9.098486651348875 2.1420734798814225 9.882572149950475 0.23211790784930994 -0.7698988439249321 -1.3968687775624007
Ni 4.672000331032726 5.781797302516844 2.148045819264973 0.9742568080521543 0.6847012269106659 0.14832925536742841
Ni 7.537728310157768 6.307591908030797 3.354343075024911 -0.5586174132049992 -0.47819022099618286 -0.20209410779370998
Ni 2.080908839580951 2.1060795117143316 1.3995051778352519 -1.0201430290613076 -0.18711974587206484 0.7621379690325907
Ni 5.666795132976522 5.511149813124044 8.796906293472102 -1.607053632784045 -0.5118850421454667 1.0923095239232286
Ni 9.138004699581925 1.2136597006048626 3.518033339661209 0.611688839108682 0.5674609796385581 -0.31657736114597096
Ni 7.508057229707965 5.721767062659767 7.673774537759511 2.13502992406442 0.49315018474012495 -2.1660091460547535
Ni 6.1369111331211785 4.228710111865094 0.828752980978523 0.9385986925289125 -2.2697539299435876 1.0412810965915036
Ni 4.283152034783802 0.6786615741165397 2.2561430234834443 -0.752181372040511 -0.18820166608233393 -0.8557598055548101
Ni 1.2741548586764453 2.024625840532797 12.778124632536105 1.4584898928083074 -1.491084538914877 0.13168958992821836
Ni 6.781548132627276 1.0272367949520564 2.4926962005336257 0.49406704012743946 -0.7558647344293693 1.195487122454683
Ni 5.650448608554474 0.9940230377077137 7.26796509520896 0.10513857891256731 -0.6386432562103389 -0.8167307166768062
Ni 6.538721349190545 7.86890815107931 9.15151801240477 -1.0033647811617041 -0.2503094911566721 -0.029468184662446023
Ni 5.304986480083293 4.414203181088887 11.083778551261567 1.0670759461674204 -1.708798355523715 1.035299425086772
Ni 2.861664593930254 6.231345320851734 12.353439510476592 -2.0754626060237484 2.9231260077236687 0.6811003969332851
Ni 1.3504107442197972 1.125938931891781 5.642385996878503 0.5342405270225316 1.3242937344081516 0.9008104180365455
Ni 3.6116985526649703 5.481692595052913 10.415204772563387 -2.4957307578921664 -0.2416513012610419 -2.7426361084632958
Ni 1.0097837651794832 8.27880794408109 13.005886206149968 3.6875561152245457 -0.8750893591213574 -3.0367973066975957
Ni 4.668569234609669 5.419328465759015 13.35923334753918 0.21217128952405395 0.9788642249171788 -0.5341181425120544
Ni 1.4833494584757787 4.221299315525861 10.390503667826659 -0.8321856177792959 -0.7864876015215486 0.03548250917732599
Ni 6.374056615976642 0.07272064744024477 13.69183955754283 0.8705127954942686 0.5282521706495805 -0.44959775407047087
Ni 0.8989491225139977 6.4748880783388065 7.3584242322054845 -2.24070226399327 0.1857326357165511 -2.1894804897038163
Ni 8.04765990619276 3.030634469810488 7.460642080683308 -1.14527810570046 0.590164591883661 -1.203179091782302
P 5.92663792306419 2.1674766111220567 0.9771558048854189 -0.9993266065365884 -0.8129707354137419 -0.590188503143061
P 2.288773773286796 5.403428262822893 0.7156932397384095 0.36298654453812973 -1.123400331790762 -0.5353296463216523
P 5.447734968665361 7.303428126775085 4.5883066838937 -0.7240234215490562 -1.988497612696414 -1.012346158724708
P 0.3449711748366624 1.7652944604810852 7.462983408811562 1.6002818612778504 -0.569218071538981 0.31468580055021284
P 5.102681968222946 2.249358007060937 10.594994225131614 -0.45956386414424727 -0.5557097526399011 1.43615317698432
P 9.085831577550008 2.9813159456156413 11.779244129323228 -1.4222283393731119 1.974049298481568 0.53306578998814
P 0.138219255336346 4.88325916770447 8.759100074104865 -0.04855091232550993 0.624037333371706 0.12376185044070943
P 1.1211409759180742 2.9749279693483217 3.1689597264997413 0.8736084037004568 -0.17399477845433262 -0.1979680014404784
