# total energy = -381167.7118201262 ev
CRYSTAL
PRIMVEC
9.30976553827901 0.00000000000000 0.00000000000000
0.00000000000000 9.30976553827901 0.00000000000000
0.00000000000000 0.00000000000000 13.62578291079172
PRIMCOORD
 96 1
Ni 6.262688503146667 1.0822881585671933 9.24746446293912 0.7557912008789565 0.021586467921524116 1.975876581498294
Ni 3.959070839567879 3.7664890322328337 3.297984397584821 0.19491533065708366 -0.6806016029199955 0.08432138505689993
Ni 8.681179362157492 1.3087668217712751 5.261746281829374 -0.14128289004360828 0.1701620349718037 -0.13985592778909461
Ni 1.3323391477972022 8.686076298764775 12.194530286949337 -1.1660441346032175 -0.7531925869138447 -1.0030912157853433
Ni 2.6264523988082837 7.522914208054124 5.056555328218849 -2.0210624340063124 -0.9806701677776659 0.24127180643443608
Ni 2.8698841448295904 1.1776573954588203 10.175230066156496 0.18089201979479813 -0.30694189493873586 0.3810045783821051
Ni 8.211445838474951 3.412252458265008 3.678770560557679 0.758097737524946 0.2272351258357119 0.13691535710353192
Ni 2.8877309651264715 5.306128726483166 10.73379178555143 0.06036076047624443 0.5019346158009742 0.9092696045474922
Ni 5.2970423954399966 4.874071823427375 7.076141358809872 1.6050240039485262 0.8432740143829737 1.8043436343208925
Ni 3.6332197403445443 8.604196911956706 3.4114192342605367 -0.43741483885103377 0.23840425507865395 -0.844920291737145
Ni 5.7186444319368945 5.288347074544176 10.939623251022377 0.19052491489887188 -0.9677904836015202 -0.15880315831555875
Ni 8.279453674817526 5.518922034530014 5.162399913153277 0.8972759225207257 -1.3129744527405904 0.3427455349009065
Ni 1.4489998181885515 7.7629199604034165 2.6079613427448174 0.15638580712331776 -0.5803388640424908 -0.003459162193194043
Ni 7.0212574987701215 6.880354199243103 6.782083108472218 -0.22039444876479464 0.5653305635591167 1.6971517724237224
Ni 1.2439336154345617 9.414779566943057 4.490458284698564 0.8348323113735235 0.40788391927145234 -0.8094832910857737
Ni 6.139380660250377 3.60826956903748 9.205878671815418 2.1675016714398803 0.09891290971782965 0.1553411679088873
Ni 6.7940154348021675 9.293761926338385 5.313360552256049 -0.5898702005716938 -1.2869070662295774 0.012622573860016972
Ni 5.969375034042058 7.966552459283792 2.606257655674223 0.14731726916314627 0.6208980164117759 -0.04627497180713966
Ni 1.1167529101264284 0.9811561768848674 6.832444284474294 0.7875445820311533 -1.4786077466041052 0.6315012458489188
Ni 0.9594271844107306 4.559951028624526 4.357430115734473 0.8889771728470433 -0.07088325727412308 -0.06099659428803043
Ni 0.992029982887349 6.692538991799557 10.748371809164862 0.3955372247806414 -0.5762065870416722 0.8461616203434137
Ni 8.991864853522914 6.774623193446714 8.836238159995105 0.1302024638597306 0.23127201490924684 -1.3289338042833243
Ni 5.545687610092631 9.13285194093865 7.428041181659015 1.1940555322144792 -0.021424488422363105 -1.630312860422302
Ni 6.059214270278314 7.528248703635822 11.605378540360094 -0.9630424273935736 -0.16256211113735874 -0.11794164421450655
P 2.0431304273207127 2.7456453253919917 0.335924265400291 -0.1510335416724689 -0.6987597618862611 -1.4950712914767672
Ni 8.135934331209432 9.10453163455205 7.4608245895846474 0.2913669233186143 0.6908837015722941 0.39416914078852117
P 3.048808526303642 4.0705366608587275 7.0333974328687825 -2.063323913778685 1.1886443885012368 1.1557553510826999
Ni 2.447462848976341 2.8567946146587957 5.001547648299104 -1.178237591345616 -0.2666917891694375 0.31343213064876985
P 8.150867194932019 9.507970318728024 11.420313437619575 1.243434082647607 -0.3298990179555415 -1.4266529508033687
P 2.958056933056904 1.4808950744937752 3.4293638070942554 1.9539376153333572 -1.0559124733514331 1.2812904913737482
P 0.46893102190393204 3.233961140839046 10.408108262105532 0.9322940904671234 -0.6516684648254132 -0.7514645484791446
Ni 8.608330447800114 2.2127450433816804 8.263601006272129 -0.2662906970762769 -0.01200833731478577 0.7142360031449893
Ni 2.964136209871648 0.7985404734245286 12.964428336103975 0.3191060411050956 0.8108215502812228 0.28836181794370336
Ni 6.644891612415396 5.793048077118258 2.699608535424294 1.0651679305114299 0.48983834675807253 -0.9477824159107098
Ni 6.529199157627008 5.943270451823773 0.2169975981073975 -0.3264694234487022 0.11080169073561562 -1.619061198767883
Ni 4.663270805178926 8.7022473612873 9.333919599447722 -1.0679115546948381 -0.9379502603116362 1.6508125230375505
Ni 0.968820737712532 6.066336240819323 6.380586441361415 0.38985200147040605 -0.5597435563896425 0.9174950777810781
Ni 5.534339006054082 0.8696493926262014 0.6266617224150989 0.9499637398327446 0.24390410185096056 0.24259900988629188
Ni 9.043022014467807 2.261165133295128 1.9390714553925135 -1.4096749281881336 -1.7852879032410223 -0.23190167807344578
Ni 0.2839813602545331 0.3864157781181493 0.36466444220702104 -1.1680567941578723 -0.7896228047164208 0.9563081939935337
Ni 8.280282243939292 8.36632309588701 3.576781149480808 -0.1130030692623086 0.5120907303983697 -2.215478970650107
Ni 2.262878130131135 8.30283049576978 9.536930205998502 -0.5382591612636214 -0.6022634320297241 -0.6650615983028675
Ni 3.117365638805589 3.13433734115364 11.507246165093864 -0.41685989751781755 -0.609935603863001 0.610265219288278
Ni 4.753035563291877 7.835173049774358 5.619150037990731 1.7427615998430375 -0.8364022269638048 -0.9293499202371349
Ni 0.38694736572323635 1.818215804706029 12.186164531749142 0.7599838988040654 0.9922848691984587 -0.9650897968409057
Ni 4.1733444003154085 6.3875045280398774 9.20905330182128 0.3874804159144359 0.3004411177057406 -0.3008383531441593
Ni 5.238800503015747 0.7901803040835795 3.100628542545947 0.5257682278854622 1.3675466315595157 -0.12381970026183838
Ni 2.9065646205571394 7.1975099775706175 0.17424250044781164 -0.06919969892411307 0.5907070946506924 1.2949829012591763
Ni 0.306404861228486 0.4115204915310702 9.644342555428493 -0.5075730450336743 -0.07775684446550479 0.5344647272181957
Ni 7.29630520813426 2.2330775710438546 11.220532388690591 -0.23018880914739712 0.11592538511542617 -0.26574922275051005
Ni 0.38717731692893953 4.29846764746725 1.004849529861165 0.38203713341167755 1.015330952384645 0.3764619533167452
Ni 1.1378395287870624 5.0262957976967035 8.876897629460204 0.7002103782898585 -0.46265227326158387 0.2404544527394633
Ni 3.9618265301301516 2.0911967461484626 1.3522257376960898 -1.8037016298615194 1.6488631126206634 0.7977896567979292
Ni 4.834691515730032 4.853795154357679 1.4796922528024048 -0.6904075332668239 0.609075569855551 -0.4505963705383143
Ni 7.735046522756645 2.1598004074774746 -0.01170703000695247 -0.793462233067169 0.4632176588467506 0.4347678881464899
Ni 3.835865404091132 1.5085730070668724 8.0479188780176 0.550213248301704 0.2750630439522682 -0.5420587375153697
P 0.9599857703355157 6.612167786988407 13.22804644647047 -1.6487391854482893 -0.12729737439779368 -0.7146224399501305
Ni 8.951320825148935 7.848337058068458 5.559074121780103 0.7055503024455332 0.11226927642007763 1.4014463696307542
P 1.0193913834364012 8.011257952797418 7.52963492770583 -0.049332527686540846 0.3298450247891545 0.17238809608884506
Ni 8.17388093503316 6.914278984408379 11.70506471547377 1.0604900654197864 0.34080460912445176 0.9452033423296238
P 7.796528213544648 0.44489972444313963 1.8812978441685413 -0.7771462695159648 -0.6397611718648659 -0.7802107673739015
P 7.495115248530658 4.349215178733968 1.1971706637646435 0.7336429469166913 -0.9297636107357858 -0.4473508670178231
P 5.0442543351785405 2.534676731366107 10.883035703912029 0.6500710384313062 -0.38674482329999205 -0.3216614605370976
Ni 6.239497877502676 2.1415067184407657 7.350387497371944 1.044138877755273 0.8590821850598237 -2.119330253940976
Ni 1.8451582658114927 2.8336970866689355 8.467442974874299 -0.2819911385306692 -1.3101567807861372 1.1988421549698451
Ni 3.9625713113631984 3.8399430813420627 9.127271667550048 -1.44024354500361 0.2625142607529801 0.06101921999584975
Ni 4.457878760635478 2.9961804224234814 6.055174763065578 0.4004742570709426 -1.366075703440944 0.7363534038693189
Ni 1.7351075288634328 2.878700492675781 2.5440563200197888 0.40666650192458353 1.9234792988435003 0.10310457920167404
Ni 5.963779865028796 2.109834896505456 4.854852743708606 1.6554171116890972 -0.9114049057229401 -1.1522717634094737
Ni 3.233868043184915 8.669979714365553 7.347962303481836 -1.3704051840542335 0.393479056700032 -0.22943933257588225
Ni 6.16855746505498 3.004382325752408 2.192402274977552 0.23297125698854074 -0.8067653779339783 0.3632454546264712
Ni 8.296034367018228 7.3320081584934345 0.9082402322165151 1.0889506347533244 0.5258759571079201 0.14609573805121936
Ni 3.336452348271682 6.441305662362087 7.019117183701654 -0.57237538622104 -1.2689260562711244 0.6287115989189237
Ni 7.922815181373125 4.376781394122108 12.280590689404423 -1.8172017212304832 -0.8727745949452518 5.561941484754873
Ni 6.2649135370803934 4.358245651184659 4.312097144032004 -1.909139999402693 0.21701704765212945 2.1000922316469706
Ni 7.2649778475192335 7.943194257862365 9.572357587301449 -1.049126046557219 1.3778994355487495 0.1493564110803621
Ni 3.963837439459377 5.062650431634793 5.236470268732852 -0.9752148010900497 1.636915453340484 -1.2474336907253032
Ni 7.105855337078811 9.105741904055751 13.151946562030844 1.3492198082258697 -0.6595735786051027 0.11529546484091112
Ni 2.080639472170026 0.5595541403879691 1.774322122736423 -0.004983055036888191 -0.6026665810054136 -0.6362022508690139
Ni 0.9751141391317764 4.467709872911694 12.360137979976516 0.14524316024293696 0.12199575967922215 -1.488280750917495
Ni 8.13749837179883 4.565620675761093 7.461914763114519 -0.7455024173584387 0.6095805345164276 0.7803920301467722
Ni 5.059904050837934 0.23600720810437267 11.466463806725312 -0.020428700167997076 2.3481903169746206 0.8219168888634361
Ni 8.333999590372784 4.751145680913021 10.400968603010236 0.36246075394164673 1.4852967285885064 -5.346377367499186
Ni 3.4052515146743687 7.790951664062211 11.585989091934264 0.7561892076483234 0.07795584785018833 -1.0084807622320309
Ni 0.6286344617061312 3.211440818304797 6.554138157215576 -0.2663457186839284 1.5012949037889756 -1.2237021514363184
Ni 3.0661805485644558 4.72411943191884 13.394825307986613 0.3695294878629701 0.1922030739322432 0.5796827185157308
Ni 4.022516890858043 6.329960868021608 3.0408933637494386 -0.5001916649679385 -0.2318057759255298 0.3989951014222548
Ni 9.186708933853339 6.076037016379757 2.906406354545117 -0.2723705847217696 -0.42881244189400336 -0.4514008687174807
P 6.313184670747232 6.125890810166818 8.810744298387917 0.26355041532697837 -1.1689353401080838 -0.039547680385635116
Ni 5.4089364659398464 3.4199050854345625 13.492386063656479 0.7278281400071271 -0.6937224565726697 -1.8732371148584965
P 4.580572159014506 6.201355768605272 12.558011457972357 -0.500406609192222 -0.6276497333133126 0.7392330394099591
Ni 5.232153330510805 7.928158986720236 0.2550093702890173 -0.8430022487788256 -0.45244165127716923 0.4443989834783508
P 7.747167837324479 3.16513404514012 5.813031488577442 -0.4239430296168441 0.5954500086523165 0.4563990932630204
P 2.142875253956489 5.168502464381554 2.583270913892779 -0.23557707004250397 0.715986924397825 0.37445495018904545
P 6.692808974996537 6.708924178926584 4.726552073621279 -1.8385642460666594 1.9729231552969246 -1.6882267020199506
Ni 3.713172005712105 0.8068149929236772 5.412529104412756 0.38378856888514545 -0.6114594967066953 0.14108285821766026
