# total energy = -340890.2632719206 ev
CRYSTAL
PRIMVEC
9.09689282861205 0.00000000000000 0.00000000000000
0.00000000000000 9.09689282861205 0.00000000000000
0.00000000000000 0.00000000000000 13.31422218269779
PRIMCOORD
 96 1
Ni 6.675772951803877 2.049211549451525 11.110479066294188 1.8578300362748068 1.1977962302038339 1.2358956081787167
Ni 4.994103160870053 0.3106288682913741 6.143861257234283 -1.05795752880592 1.4111021475529633 -0.42839232363744933
Ni 2.9223404142459084 1.7099975150143158 4.8079916511019185 0.32789072927626106 0.8210218878529925 0.6201230859189643
Ni 3.7559705706403252 4.498095082678393 4.8369234088622255 -0.7311332931209602 0.9543942648002725 0.3063744524710401
Ni 3.67982048127687 3.0131274040735616 2.8498691083179546 0.8673997037865835 0.12002706598862556 0.35183027081099405
Ni 5.317979834099906 4.821753430481806 2.765124274667008 -0.7542585662845139 -0.2985737254796987 -0.38032734980942245
Ni 5.246068896766479 3.0636697402942468 1.0067976974425348 -0.3096150708955248 0.1671510160596218 -1.455637510961177
Ni 5.938342436434254 8.211264772843858 12.353946984132527 -0.5720467992370277 1.7547627380689712 -0.8618754315342447
Ni 2.1188937480567174 7.013058444974206 0.21603937728657108 1.286346565740417 -0.3264997624660054 -1.0927437832471698
Ni 0.9048397232954071 0.12082947819496982 13.143773782469017 0.8119795751450661 0.3546895946366601 0.337787933785315
Ni 8.236836138415555 8.924188259095677 7.053155728918328 -0.3620586334072216 -0.38102591853834383 -0.5198541763938724
Ni 8.905294012815913 2.585136793110494 1.2009590476213399 0.19795668858656873 -0.7223216083666012 0.5495357626187052
Ni 7.330330774054271 0.8255575737518257 4.6735186531330495 -0.7875008732774115 -0.25374062832540817 0.28091513185767103
Ni 0.9123364726257648 7.509494077125978 2.1489553398988477 -0.4792528579327423 -0.30330738350994213 0.9762015904833511
Ni 7.872778489828113 4.140350677672154 3.4962479142803686 0.5990387544448393 0.12971961068604113 0.4029031782274094
Ni 8.027298310390488 3.904641089152683 12.68391311738148 -0.4191039563569879 1.0363211814830668 -0.21577674748712516
Ni 8.179225516513899 7.184434807836246 9.330580117558965 2.011213309126375 1.6392929524337252 -1.1189937180826341
Ni 7.0188804563459195 1.2270161872668637 0.2059700266813377 -0.7476575160282285 -0.3152606992170764 -0.11759608794962972
Ni 2.023085273420962 6.693493698916529 9.240762856500414 0.9652129526823312 -0.2202208993014078 -0.3910498784332491
Ni 0.3893279070085074 4.841266265469814 1.392188469260921 0.026319611731135315 1.166262678371927 -0.40306027263056393
Ni 6.608019294465565 2.425604584632784 6.892187121072502 0.016143956749714132 -0.4141311857327448 -0.5338108956842806
Ni 3.751513093183857 4.884713025331224 0.43274191805595136 0.8174120590145469 0.061072956051920625 -1.9293277872044774
Ni 6.334912379775605 5.9897580743606955 4.558443869303307 -0.9844790000007949 -0.553324540237176 1.6434164876837956
Ni 5.81942785416701 3.0738036788381344 9.126619594490144 -1.0646393117014696 0.5674920899868098 -0.14643255256534782
P 0.5919120702014832 5.755140112973422 12.569131253498877 -0.8698975305077729 -0.9212530021616134 -0.14191178187685882
P 4.130971781228034 6.727443302727832 12.32678639139421 0.1504373028493667 -0.8931166489367134 0.41414969767550613
P 2.5790509718485 8.811168463342295 1.4412243600391754 0.5368679373430496 0.643524238451724 -0.5812873439986893
P 6.5813108172978305 8.104130666711567 5.780875222614947 1.2460141846699573 -1.6883704266866664 0.3601213071751927
P 5.0698620838444715 1.659655310434533 12.57660071215093 -0.3993679113806412 0.21917600297666126 0.35611887088401895
P 4.185944304226882 6.434386902196986 7.977083462309462 0.015016528013490266 -0.19386092125064033 0.7746929228794658
P 5.091685529595628 1.353381124711345 3.7352787783495454 -0.45182047275340254 -1.4873476975802644 -0.32703429481323676
P 0.3648017744158887 5.7350814644193155 3.3892147836578053 0.445091124449369 0.9903866237344814 0.07417246954835613
Ni 0.8206234191142987 0.21301557013038752 4.514266628952603 -0.1764218998385865 -0.31687380934046716 -0.42756905640520554
Ni 2.1797155731055837 6.748520803271988 4.312822306423496 -0.7717538948557999 0.10926031439042475 0.6447118310019219
Ni 6.384253926150875 5.837421508062712 9.317105799990555 -1.4459987023198324 -1.6276509973194226 -0.327732606431842
Ni 8.9424912073455 2.3707776119182284 9.782877625998935 -0.047585463088447084 0.7764222468657467 1.4550317590563782
Ni 2.46339307719231 5.428243271344493 7.061224672803811 -1.0931232780737756 0.6455219856080432 -1.1973218616705765
Ni 0.6184659001921564 0.1105563571917265 9.07569245970536 0.4285069948384427 -0.3227351532172506 0.35283274393357944
Ni 1.686145462175828 1.3622778858387443 11.211347232687674 -0.40692926866766693 -0.090055973547832 0.201736210233659
Ni 4.526268159581824 7.160728305282051 1.6469424027908313 -0.3632053454171551 0.6569024595308429 -0.31641461031586154
Ni 5.921840672952554 8.023623165712095 8.11295465269682 -1.1283116530494504 -0.17834894165797024 -1.6726725563354354
Ni 5.634588090007885 3.1399017016926165 4.6408853697053205 0.15902453029774546 0.3655921004817768 0.5940580134007962
Ni 0.8118112590896447 7.411311313477695 6.185348546393401 0.7738159195911511 0.5392927447344583 1.5318540075227554
Ni 5.478849285814556 4.864308694851923 7.143985474141991 0.027976173497951822 -0.3079680222104051 -0.6861780685665085
Ni 0.6613159038879655 7.340109933780195 11.122993661675542 0.8707765906786165 0.4580124604967273 0.6303524769564562
Ni 4.921400793865785 0.8099172860152841 10.515200236079158 -0.7665875201635121 -1.5679821207038802 -1.985757330947116
Ni 8.251500329558057 7.253107251344157 4.532813373928617 0.7430521560457332 1.2149344325460172 -0.388082568274809
Ni 7.465583375733384 6.28683530149513 7.1182094284830075 0.40773119574367195 0.8391720763994579 -1.886020896886726
Ni 2.739501966495809 5.6140018216732175 2.2824040277420057 -1.091648750410778 -0.6367504100630001 1.0844730585979454
Ni 2.50908676956749 5.071199327081412 11.294095298375979 1.0301237944231034 2.7914150776392117 0.7034507396040272
Ni 1.337643500222183 3.746564383517901 3.729100168781315 0.4458508854335289 -0.5083351200106795 -0.31135056552939283
Ni 1.8693113980655869 1.5563691899432335 2.4900524311390955 -1.233288509573173 -0.8969229100566811 0.11693171489275345
Ni 1.108874840884927 3.4264356301085894 7.92527756768326 0.12220401903528633 0.7381485480965289 -0.304440725783437
Ni 4.0819395292068865 2.9166457593729516 6.802768303917202 -0.43806018574451655 -0.6124059197803647 0.1697429451565141
Ni 4.0670115281741035 7.0459891967954595 5.861865768620416 1.080381919247707 0.12287122030563999 0.3250290914577499
Ni 8.391083052194881 7.526423394567788 0.04334760373023533 -0.2692394952919557 -0.19713702089875082 0.45676984633887785
P 0.4406161884361934 5.994634008884505 7.966631132518684 -0.5322507502860123 -0.7125056507174439 -0.8368403429424878
P 8.574722026508592 1.8567667829380985 7.751859862084014 0.38823991978827976 -0.09758467782470936 -0.813870878630508
P 1.8800821191032562 3.3869642123869275 10.358891056709258 -1.1775544492356624 -0.10924180244766347 -1.284359360107059
P 4.2478941439790185 6.428655859752956 3.720126993754662 0.10648686541034563 0.35746047251357793 -0.07578146590668884
P 7.250923997079765 4.198088656072565 10.42539571067048 0.3683151558398947 -0.38621851848287675 0.0696144178640285
P 6.4016744758021735 7.944698524054307 10.184115185019703 1.2724800921709696 1.3146037608138974 1.4692052223432825
P 2.7533929217530058 8.75043760722111 5.61601860279995 -1.4128918924635345 -0.12615143371880855 1.0586314149444929
P 6.922780881141579 4.393253393523714 1.504719761872646 1.4026347335119005 -0.6226527943193535 -2.2609018788695963
Ni 3.019968267435324 1.810918443385857 13.60620341007432 -0.09367968634334835 0.13502302517682552 -0.48352680271774784
Ni 1.4597056073872576 0.8952707017924304 6.873693138074545 -0.37013498265745287 0.8306005326803632 -0.17644092600198
Ni 6.98663197148229 0.8828325203103312 8.951111422932744 -0.07752133141593101 -0.04980483933726906 0.3569513940876433
Ni 2.6224795379243733 1.9828679104922993 8.983212538133527 1.087751986459533 -1.2599943009991332 -0.5759245370248791
Ni 6.752714470838175 2.258576536513993 2.6093208825350245 0.4266218620005878 -1.0107839564439107 -0.5463861612461299
Ni 4.479337289790155 7.15093095177059 10.01627569406598 -2.137685873630028 0.4118866126729423 1.300431583078573
Ni 7.548501553316456 6.309532048952043 11.501317967191511 -0.10771482428017577 -0.9342913234028103 -0.5130520658703744
Ni 7.936029185246116 4.184698029917625 8.084169354910081 -0.38716982665255256 -0.266146972409561 0.07278587361347463
Ni 3.5038047031029964 9.050143836365585 12.201672276705366 -0.37603746418481687 -1.3799041246836041 0.9803914601949824
Ni 0.2182581094327599 5.029626527130273 10.070411302930143 0.24835725252630775 -0.5026216145656698 0.3245878901552733
Ni 8.758215450538009 2.6538820117605515 5.382620534732905 0.742165896786038 0.05648919333598013 1.2257423217947987
Ni 3.800981996057883 2.8920659551129995 11.126309479089588 0.8905689428141953 0.01562485102145051 0.36129861531274554
Ni 1.390023408782065 3.487903334544005 12.689665082678879 -0.51208738796426 -0.05294158519403785 -0.3156466218015854
Ni 3.183985244047807 8.782868029940108 8.221039384123399 0.4614862779779407 -0.8757208220577692 -0.17268762960713485
Ni 5.963085984764034 8.127873556836834 3.571127167724092 -0.7580938808702041 0.7914806838607659 -0.15417697239745706
Ni 3.488385469860725 8.76013489491212 3.5746822334179438 0.30701517137883255 -0.1808007456325725 -0.8624387602368825
Ni 3.631115717395382 4.422163318741378 8.7726876972431 0.34632836715615833 -0.4430280712727532 1.6677982589622697
Ni 5.7010226978947935 4.255881215829588 11.943869064719523 -0.7302187517264909 0.36750782944725097 0.15936340169440297
Ni 8.521969145345208 0.17404266213242855 1.7359882473426311 -0.26735102001999117 0.26682085854813403 1.5195849603474152
Ni 4.7537996415025905 0.6619463185568089 1.5186198140226113 0.5425148512161818 -0.8289213452057271 0.42427033104927575
Ni 6.2133324079272505 6.300507931325888 0.10216447361296802 -0.6165289408098027 -2.4996732874796823 1.5786881942674749
Ni 8.177087746713347 0.03920396907427382 11.197713719495821 -0.21147349212608094 -0.18900127916549386 -0.08884755506202763
Ni 0.3246935742004456 5.123861239317112 5.499905863505345 -0.30651560603459466 -0.13050045471612365 1.1569563133693364
Ni 7.42815875888459 6.354425214763613 2.3149035868460413 0.6580468575479312 0.3831203391735272 0.048910095437141574
P 8.82013799961184 1.8031224062834221 3.3485534923620492 0.5079340279175187 0.04463717909340054 -0.2471902288014001
P 2.2277380700294493 3.504978202270108 1.3948647751133554 -0.512805239966891 0.6663566629652072 0.29817571871033166
P 4.684554093750277 1.2938146708645042 8.18792669444678 0.9236646969268995 0.5195651843985438 0.23245395103249
P 8.788935657416564 1.8444404932370493 12.299758613290306 0.1832324950025167 -0.1487851119579244 0.10654600078305522
P 6.5688116866341835 8.213693643212995 1.4293747475191856 0.39301985767542635 0.3763966472964485 -1.1346468512388588
P 2.034456389381339 3.563016378131874 5.984249905789488 0.1970048661962607 -0.9516825222960643 -1.490390083951014
P 7.192148972903766 4.289821722748122 5.6746417088667185 0.3656810606511573 0.3658913768897505 1.4006485563198072
P 2.445262969905084 8.50520357197323 10.380752709410041 -0.27650697548764636 0.5992755530459938 -0.5824877920646936
