# total energy = -340880.65708497027 ev
CRYSTAL
PRIMVEC
9.17654080711738 0.00000000000000 0.00000000000000

0.00000000000000 9.17654080711738 0.00000000000000

0.00000000000000 0.00000000000000 13.43079505017457

PRIMCOORD
 96 1
Ni 8.89134310539688 8.150034608539782 12.248723717502399 -0.12789644143437326 -0.8016303707002582 -0.35393986095482916
Ni 4.413971192444515 6.113659259195793 11.836814494520782 0.3373950692222705 -1.7473250508440035 0.2586984865513157
Ni 2.080679688410699 2.7396470845127032 8.7136852751708 0.18088893447100463 0.5481805341423913 -0.6419720634732556
Ni 2.3629776135783076 2.314589713847826 13.106428375742277 -0.5933440180529072 0.852826433958099 1.0376237023445742
Ni 2.98538567106354 7.143891143690707 8.75147885852752 0.1647966568948323 -0.9623081203307104 -0.3974652950412897
Ni 8.37453867963901 3.8331879241072935 5.327149875234118 -0.8563627292461314 -1.24427200516787 -1.739925673056139
Ni 4.6869824583048505 5.73698061172058 7.015293853637029 -0.6325739100878073 -0.05260194246643198 0.727164024060567
Ni 3.480918875206531 7.804225844374514 0.050020406341908005 -0.16919041508715377 -0.4686367729797929 -1.1784867312419447
Ni 1.924788613003641 6.922268506408163 11.012405996982988 0.4414051909573495 1.1862874582332859 0.04003747553786008
Ni 5.430897092754108 0.8252353038654492 2.0786837907829008 -0.2710572652269848 0.3916551161174158 -0.33567422987642187
Ni 2.486842561532421 1.1546749545205275 6.6279364656125335 1.015993268558992 1.1836538772651808 -0.7550972601357253
Ni 3.5720511020647545 4.7203483607171455 0.994401163219049 2.1015695875234455 0.3372757700355869 -0.8525816649371446
Ni 0.30420508106113725 0.9323273705134035 7.5393092051692605 -0.9669993551587927 2.2369124579335344 0.12166305893015177
Ni 8.33417107658299 5.201813927786967 1.6717308174967962 0.43961493182614614 0.7218588097975697 -0.16563766473888894
Ni 5.749295529497615 8.616891122628202 4.497570396945682 0.6214443758335491 -0.3882085523297121 -1.5215228008000763
Ni 1.5567634435192952 -0.017811665726695305 0.5955345577012924 -0.9354994847782986 0.004533626204295418 -0.043497666172318636
Ni 6.469323628199016 1.9652112753045647 4.156535269313658 -1.4862223257265694 2.477382337291966 1.2809721888023808
Ni 5.009803987722374 0.46270321171443657 6.510161987798971 -0.4848915442757585 1.140989248517119 0.11294676210307644
Ni 3.519616347833772 0.23102675631228012 4.4629050963536345 2.3262847751507807 1.1678048260480665 -1.0373218548334393
Ni 7.145295154435779 6.272541886909344 13.088444191048213 0.5854774708206368 -0.4527506978771557 0.1671605291413186
Ni 6.06918056585355 4.306835078400637 0.9515944356137486 -1.2699681243823935 1.1657397159889213 0.6314500808960093
Ni 0.4047790507664479 5.523194740296149 12.112804465530466 -1.9009962872496358 1.3598148101328968 1.071147802243949
Ni 4.201671920632513 1.0541000671611351 12.487267896052344 0.25890931701054115 -1.4693294066259728 0.9954691804637115
Ni 6.374685962748522 2.2942544993963283 13.197677144668882 -1.1359331741504501 -1.4585132898470752 -2.629597557977361
P 4.8825437196658 6.573348894905775 9.547616269114878 1.1024111311336047 0.14625128979247715 0.5104267124323854
P 2.47884979448041 5.108277447234568 12.208202866214728 0.04632407987752022 -1.1144762898282548 0.7541341248915077
P 0.27653046926383296 2.101134197892824 0.8461706640864088 0.5602577770218996 1.1082732463413365 -1.099920246390951
P 6.536807909370638 4.409603159015402 7.461961977927031 0.6088290010623838 -0.4488912149217495 -0.6076095268329859
P 4.443143415703228 2.5740472289207696 0.6939850758614422 -0.5350295985827301 -0.12902952659755196 1.0610032576107793
P 2.3225549512773838 8.953422404027016 11.972922783233555 -0.20563014597142648 0.014182462147969123 -0.3833530240096237
P 2.2890422242120096 4.655176567831525 2.7376796341614393 0.2351664648676466 -0.289320839422863 2.839412945674729
P 6.96484765580119 9.721352045795571 11.823437850971168 0.4836543294345477 -0.7913109910521211 1.9942229452159654
Ni 8.065793963835473 3.9035536390955983 13.150829986141654 1.6632142391360127 -0.24863853121215243 -0.906920130478709
Ni 1.5317481932508916 6.5838376810601345 1.9532404778081844 0.5276441047519365 0.7055618724097591 -0.8926142553789982
Ni 4.736783545321221 3.3271384041874894 2.9413034042846116 -0.19410311916843345 -0.6862042938187537 -0.29526728681428505
Ni 0.832748137832706 3.938534612691767 6.7762119297951795 1.7821683837754339 -1.3043476303035277 0.420577712689037
Ni 1.4117190393584782 4.25408832178186 0.8885809651283949 -2.7515457522481 -0.5887191176863861 -1.7716515434045101
Ni 7.370450759933046 2.5207865860162157 1.7280867076190807 1.0159313049728051 0.16817740044160714 2.709521328187198
Ni 1.4352843961777224 8.864171368036372 4.723422501890995 -2.520938624616362 0.2138831300088381 0.4954186690593274
Ni 2.854363021271806 1.7359721091435265 2.2213725769158756 1.312018002364592 -0.30470914895347523 -2.539846260154142
Ni 1.0850617158792546 9.022998936505019 9.9077899902758 -0.057136082891359664 -0.5865581054793253 -0.07726139288632501
Ni 2.387534036805838 1.6657623953491183 10.819056281959046 1.3107471060719684 -0.2674536070361265 -0.411454153121214
Ni 6.40428030688484 7.6674862096535 6.55080305177135 0.7473636389368935 -1.2306721549962483 -0.19850253378770974
Ni 6.489649666109697 2.202856152854399 8.866057147174361 -0.5890011677031791 -0.01940874354391496 -1.1104244883563843
Ni 1.0368389938834877 3.636029944644105 11.168256695610449 -0.012421770703120543 -0.6702359434149553 -0.6806201148627569
Ni 3.5913493674038786 4.515601381997915 4.801576347071081 -0.41554272136829074 0.6900802318343922 -0.07141624695945765
Ni 5.546530683594956 4.379081984256521 9.428230390733766 -0.3933777552354773 0.7267647317396194 0.40392030663801404
Ni 8.084220457796938 0.4071612807626612 5.420440424492608 1.0061089195657447 -0.6440623703433811 -0.433456368423918
Ni 0.3160290539044381 1.3427665116560628 12.041232035424665 -0.5243083555104842 -0.15308091111980085 0.5701164149835342
Ni 6.604117836266727 7.573766198284752 2.084109879368267 2.870168481690031 -0.5023418785417221 1.373327499907351
Ni 7.320374376692151 6.487043528517537 4.425809847753123 -0.28279589382015163 -0.06550733767419041 -0.010332492274259626
Ni 7.882933034965892 0.4799119787094246 0.5719930598881734 0.7375937040343232 -0.6855106101858388 0.3335147603312579
Ni 3.2550107933622323 7.890384386109671 6.30710165728199 0.6771442404990144 -0.3810089492574793 0.062353108315924874
Ni 2.8511695850673284 7.057420599567755 3.9243843867512385 -0.7462614070116502 -1.0629349274158533 -0.10053810402607846
Ni 2.4853376088383565 2.3702913166098254 4.240572194811819 -1.7138724276125128 1.0280928800360036 1.4621110345006625
Ni 7.751882855551705 2.712934174193069 10.92777810225618 -0.4809970943173586 -0.7443227952280407 0.42661389158078783
P 7.300112574567194 4.408410208709132 3.321019486770405 -0.4701694075742354 -0.8839102998470971 0.936252046673607
P 4.087286339342839 2.687074682169459 9.701815190395195 -0.4671871850174599 -0.15470944786215937 -0.8185441157364612
P 9.15587524754188 7.325678417284646 5.265932253786742 -0.016554819034887615 -0.7080103339502517 -0.06001726109389664
P 5.18006552604958 6.301897640984407 0.5686353636030638 -0.3791798664685405 0.8202081337024456 0.9280692537524985
P 8.90475920807201 7.212761082525766 0.9496012909481957 -0.7950252066789146 0.5951455900380203 -1.739959868728184
P 1.8824664067535024 8.619928557638781 7.711640053450804 -0.6190609632030372 0.43906420152899867 1.0074489785334069
P 2.479510505419268 8.751575212206104 2.565174431604365 -0.2951850115131239 -0.06270020724269848 -0.2326627246091864
P 4.59265679524215 6.706996035371303 5.008907439684508 1.9422352392947648 -0.4223258057283953 0.8469805167002833
Ni 8.400783586376953 5.7670062532753175 6.657591374918247 0.1522537872328152 0.43704074334106674 -0.4255941920670218
Ni 7.288476720810651 6.324233341334112 8.583003075043393 -2.0963602754083634 0.41526401378560746 -0.9098007944606137
Ni 8.801293710355116 7.872288247617635 3.03006808361193 0.38316430503758525 1.1571679151595102 0.36838688961809457
Ni 0.42329547482792435 5.390951610575692 3.7992897823275857 0.09751011583303207 1.1863651055487567 0.8423535594512331
Ni 4.447401330642531 7.747120230867441 2.1278810614134827 -1.8504975071691356 0.19151196140248955 0.9788246299284948
Ni 1.7869477933845321 5.867434315981631 5.848345275773144 -0.049193688115831406 1.0439360177158472 0.23115940059078252
Ni 5.263507811702768 5.700742452032419 3.246169196284607 0.054978670228724665 -0.032685920268795327 -1.1804921917077476
Ni 7.636827386782357 9.379250604120559 9.797886231521376 1.5797870837586085 0.07175434702516674 0.20187119314962657
Ni 6.075604144425775 4.473728826247832 5.2169910086449685 -0.7335077068904077 -0.4772692518438103 0.4991082020957727
Ni 4.436361952039124 3.3832070685821876 11.801948227684832 -0.9829502220610944 0.718348482651466 -0.0060184382799380225
Ni 4.744244073005818 8.25195844739934 11.128286436771825 -0.5149495400034035 0.08490991057051828 -0.1778915424055775
Ni 3.672313987036353 0.18677564118231096 8.952524938335067 -1.3073941304393355 2.094371270002793 0.03508501662859119
Ni 0.2836147587749142 3.234804050482179 2.9369115118493743 0.26749962978271347 0.774911209537859 0.182217423474441
Ni 8.901712596520612 7.966384497159899 8.0452614537564 -0.23515618045500147 -0.7382794172474382 -1.0356208129819326
Ni 6.71333702507617 2.2862433792626833 6.5039430460869765 0.017957098699052945 1.039910955716854 -0.3613883468130744
Ni 5.4161503916604445 1.1644112643278555 10.501122178180902 -0.25395428699811107 0.4897830680401048 0.160729171693678
Ni 0.6627628133841067 1.0302777671990015 2.62709038780795 -1.2468184257388075 -1.8389735656899362 1.249028546016249
Ni 5.737347673353278 8.54590140286431 8.718668136834681 -0.20560623471202655 -1.3770851671775703 0.4163150807579411
Ni 5.948582466430454 8.385559705160782 13.556104570112243 -1.1066737630647006 0.9282662002546529 -2.4996012965911665
Ni 8.404894676663176 3.34619807946536 8.245017311925013 0.20620478752797392 0.38769227481492585 0.47654471497295997
Ni 6.8911692095777815 6.9579010144023705 10.827907055577489 -0.5239286035735622 0.9832667248602486 0.3186992925849802
Ni 2.956819099498778 5.05170407309491 9.873971684401207 1.0765280927192558 -1.449995482184051 0.25544681238323746
Ni 0.9682535278137705 5.809704697698972 8.581633017499346 -1.4909788665749484 -0.5246202303239481 0.0654317472412486
Ni 7.930742812624874 4.916873158863928 10.154715103554336 0.9986105543061705 -0.7216757472524861 1.2478468670033218
P 7.131622108617759 0.3826213753086022 7.423469142160019 0.3604393526362437 0.1973205976644666 0.5227404968027319
P 2.6033020410468413 4.778206450571248 7.659596219858646 1.079734001251063 -0.08009629123195883 -0.4309341162226965
P 7.353428276716652 0.5199345438307068 3.1665783048125067 1.6357571713663248 -2.536255200368774 -1.899115268176839
P 0.644265660058347 2.0426337501814986 5.524381267023847 -0.17145118609687246 -0.15000612884921907 -0.46176909932568216
P 9.012299089911856 7.053878454812215 10.00617076672574 -0.5734164258910447 -0.21978124066082794 1.7201695734751343
P 0.22368919427463685 1.8763364774874376 9.746861911614038 0.34201791270626264 0.7745358284763112 -0.04987425912262378
P 4.385734976349181 2.434132511076914 5.2070656620968006 1.1669535337913646 -0.6246011762949759 0.270155836458638
P 6.2887476579929835 4.422165843394509 11.771285734197361 2.1169398993319284 0.5603462229706478 -0.08867991913591179
