# total energy = -340870.75388481264 ev
CRYSTAL
PRIMVEC
9.29705973461010 0.00000000000000 0.00000000000000

0.00000000000000 9.29705973461010 0.00000000000000

0.00000000000000 0.00000000000000 13.60718668280093

PRIMCOORD
 96 1
Ni 0.5674097905288698 5.847832063047823 12.668835727223065 1.029555580624459 -0.5172501631121221 1.6396441651255569
Ni 0.7403239476076107 7.712162181380342 5.673557746110348 -0.18185181260490615 0.09144385503429413 -0.9111583369297727
Ni 0.3374823435136991 0.7652977098258674 2.5626006750377974 2.0683560768859537 -0.9802564772790149 -0.14221234383641315
Ni 4.068114486576803 3.0092816352347427 6.068805511703824 1.4710111652037698 0.4640111012823234 0.16613260209743647
Ni 7.204328880193596 8.49959526104667 9.659469488743522 0.1315252964362122 0.017295039635021825 0.7667297021683311
Ni 7.829333026900664 2.4767553430377625 11.471988022135928 1.103623663384467 -0.6082808418683976 0.546200270487569
Ni 8.334656121922967 7.5053397875498975 12.615386000334158 -1.7830387021955292 0.3529371307219276 -1.0214411790474407
Ni 7.7177776055408005 4.396644691143306 9.664858064643195 0.7775267927838352 -1.2609579504639832 1.5862037859182294
Ni 1.889302021138801 3.8855016366434407 6.332648633118593 -1.3335558764363677 1.7466606777871272 -0.35902524589753654
Ni 3.5608483060420237 5.65471353546327 0.006838917239129503 1.006131545273564 -0.6296932461059026 0.20927185648907184
Ni 6.12460553532744 6.919057895194343 7.660315267612733 0.7619045128655458 0.23341991449018507 0.039239919337229194
Ni 7.9724984518127835 0.14722824007457153 4.972134556403725 0.5350085155368076 0.17994842493460622 -0.4899008245648917
Ni 1.7764171202177699 6.123601452861662 7.246888031152762 0.7314009449600499 0.15932740625014497 0.07305121145971935
Ni 5.056457029997332 0.8372792661502778 12.776998651436982 -0.7494624304474512 -0.04338068097848013 1.0093636790576166
Ni 5.4350797931342925 8.281569910074912 11.55652897663644 0.8380029957920213 -1.0657286881109067 -0.3331103258039876
Ni 5.831366970021045 1.6382163252753283 10.568198519393743 -0.5776793149324567 -0.19431523517923951 -0.16527873873757343
Ni 8.23952860535041 4.872523997562668 4.998912877942421 0.43397675970376226 -1.1132138781760634 0.6335244469265349
Ni 2.6825271691030874 4.4738567733496275 2.0685233036322037 -0.024129031837719733 -1.558700181181322 0.18686726354162655
Ni 7.7939763082214775 1.6364963691996908 2.0979559357633026 -0.791858636025475 0.86991964199496 0.6310250775434487
Ni 0.5748948534288469 4.067026730572211 10.972250600682507 -0.11728729845995929 2.5707591476829146 2.4002726394921567
Ni 2.830257450410548 0.9169699445174916 6.653356291511899 0.9762054471380929 1.4367823259278867 -1.3812359561211505
Ni 3.046823162982982 7.210725257382992 4.695377818831872 0.06798022469471518 0.17408142463086795 0.7192018317906969
Ni 3.9922597751112545 5.998872097668403 10.955622809108034 -0.9335073940489341 1.2647431285380284 0.6285904999600271
Ni 1.4248859895370662 5.542284190475786 3.891751120286919 0.3066940405939879 -1.1053046506313158 0.6731142934040149
P 3.8944454082367557 0.2594028456216636 4.673701723748905 0.9730296205132728 0.13572622189143724 1.1829758773615497
P 7.008728037624202 3.1706785945486198 5.960083834191823 -0.20317397112145008 -0.7514596633831381 1.1904390185078142
P 1.4466968919881236 8.306355871683827 13.217027565298151 -1.0758984295550569 1.3797565433621464 -1.756083256652608
P 3.6442429330607724 1.6366637162773203 11.381010713088585 1.172985084697425 0.4728842354022372 -3.718171783227874
P 1.6901682958194497 3.236315837218895 4.334528245045161 0.46242215952864874 0.5260932153250488 -1.1925717485801008
P 2.5875855937278964 7.753199403639067 9.711217853676526 -1.2226765383852813 -0.8518298743727846 0.6778530936405809
P 8.041603497813938 3.2304586895018588 0.07065672529317606 1.5563861883361647 -0.44312088809687555 1.091638723108449
P 7.038413549783718 7.840350042844612 3.1055815110566938 0.050542488834241985 -0.8067401811229977 -0.577347899734967
Ni 0.3766294735011958 4.2810450487407286 8.529964107106508 0.981457953786284 3.0397782437027905 -2.8448464579854744
Ni 6.618911614405794 5.556555177373642 3.321745590642817 -0.7893019310418923 -0.12217625112114443 -0.4001490125210399
Ni 4.122604554464973 2.4387861505355803 3.838465021651695 -0.7171261802085908 -0.6163137394752031 -0.28463371835983886
Ni 4.265267938144205 5.05618741526115 4.039456299532735 -1.368435204812056 -0.39522663551875803 -0.7380364479986967
Ni 7.494908486377652 7.034062525765349 5.34031765101456 -0.3846457746791182 0.7227378699684134 0.8457253041369435
Ni 2.1597070074086235 5.379213760385612 9.717668153813161 -2.1150869052835897 3.2982630715814034 -1.2578780259870788
Ni 5.682446665050441 5.044528902186288 5.719169121824282 0.43905751666077936 0.46660174482763517 0.0025011691552989184
Ni 6.470958203661494 3.4786437026864188 1.767995843389054 2.059674489951556 2.0976771944475745 0.5175211573853217
Ni 0.9328019077672383 7.745622299846393 11.1369786965472 -0.37081298256108397 -0.16158020684006366 -1.0314561400812816
Ni 8.785684387314333 6.738657745509638 3.3750995578150795 1.3217586266911237 0.4469559455722496 -1.1418048024398788
Ni 5.405831242788587 4.230552716595931 11.624143703940705 -1.4551749695024616 -0.9069162738239672 -1.4119477833827103
Ni 5.868713259512051 1.1626252277118838 5.965118192110513 -0.13267098000488117 -0.21447114130182418 -0.30330738350994213
Ni 7.866716504631142 5.75879412068901 1.1284752674036043 1.2080652162300098 -0.20039332305251942 0.36865351301592
Ni 3.199220568344334 3.5842118174910893 10.150321710080798 2.023106975240167 -2.462061390664179 0.28399299945204637
Ni 9.035728812472556 8.254961724731805 0.9927474903861332 -0.2020290588837295 0.04627574313808805 1.5399139017127543
Ni 0.7930280502950783 2.179026297814974 7.731100292332091 -0.2584722294731226 -1.395063348922546 -0.9753348716076815
Ni 2.669381126449296 1.1716247816644088 9.173012917311981 1.0970403537399946 -0.016079679170681985 1.4058781801498628
Ni 4.584603350500948 2.446642166124303 1.3891034655159111 -2.137693329829196 -1.1714028278119697 0.7728985499832043
Ni 1.6281011241386059 0.993139826312576 4.446461127035676 1.14099181962028 -0.30211387742247325 -0.3391200223331773
Ni 3.9532865001432955 8.02244225742535 0.10235598062016893 1.0311962015516756 0.6459045657584424 0.10487401239727098
Ni 6.468104006281922 7.651656915757374 0.7432952879415229 -0.8407605039325005 0.037938684027302404 0.17439098545148676
Ni 6.651321165106726 2.752097068097658 4.002948604841852 -0.31310817165044785 -0.10032084580894982 -0.8359178311282184
Ni 7.72912001858014 1.4420669561737047 8.416357754339696 1.0093881045376487 0.5158468550066923 0.4018271715544112
Ni 4.522852278855627 8.295087835123436 9.288170949370814 1.1834543596598652 0.2590694967374893 -0.30444149711438534
P 1.5782131008852496 8.025491693062156 3.4349028954179897 -2.193704812197809 0.28872691459260597 -0.8865251117621248
P 0.5296479224617514 0.5896325527320934 6.25820335592908 -0.8985887277948783 -0.6427968733673962 0.2727410806873109
P 4.807044804910154 4.800862260097728 1.925348581660216 0.2229886918545321 0.9921231468096141 0.14078872401600914
P 5.700157564099574 3.9180692373621335 9.322637939420604 -1.3530057576308634 0.0779753882342141 0.7523204687215366
P 0.009192003091798993 2.6935906703463774 9.690493777524074 -1.6147139775427806 -4.992006589654525 -0.29244524398445765
P 2.8580277682371924 2.825097582183635 7.827983093807785 1.483954098517683 0.33820342405617887 1.7304614423194458
P 7.635043069772702 0.09358048581047025 11.817406335953219 -0.7843978088720555 0.788317712751752 -1.7381613820668649
P 3.8655315520463085 6.079291665529292 6.372721750268974 -0.018292884771916883 0.3098575259236341 -0.7103130139414993
Ni 1.1251859676221958 3.445016237142738 13.71237026655182 -0.7049802888746761 1.3571406057348432 0.06946375121877714
Ni 6.039258525736345 0.29542337437544736 3.570838926576511 -1.3138619975518664 1.9896466386991927 -0.7066671896587958
Ni 8.285019119286055 8.542631351177082 7.28455320979725 -0.5166348981256264 0.7023472221272034 -0.0434110199957833
Ni 4.286279293446587 5.36276726147857 8.273808724496845 -0.15345269263692282 -0.7702418290866477 1.2852751870531092
Ni 0.44288125182876614 1.1254741764781133 13.491634822628448 -0.09376196164450949 -0.37611434016933937 0.38760871396218405
Ni 9.182269070116872 6.88241818225333 8.623200601701852 0.1638908572511113 -0.22097628941019365 2.614665876368194
Ni 4.173933621997918 7.013599696995197 2.435387145447726 0.629168226840368 -1.925270586415968 -0.8902868927974023
Ni 5.585087854109489 2.061846155234783 8.205813747443967 -2.053497671716883 0.9815967933569935 -0.899102434206503
Ni 1.456161298934064 1.9447217950138023 11.32107070870561 -0.16761021508422747 -0.8886113048671921 0.20815239817264797
Ni 6.049903659285562 2.857804638800353 13.202482315134176 0.10010975823940824 -0.7279289272510495 -0.4504570167469726
Ni 4.446002781984168 8.256114560155476 6.657533460510731 -0.6837848857439837 0.7928441398671958 -0.29910568672376875
Ni 1.9284240490646531 8.666356623904564 7.842215962760182 -1.0710711833697426 -2.4306617933069754 0.5085032701574275
Ni 8.792499132197806 3.954244097309731 2.7579997714080484 0.29226732364569663 -0.10840053749329073 0.14466003404595731
Ni 3.309065330688428 -0.15978484913271224 2.574438621368118 -0.2216118661116635 1.5736652871315864 -0.0061053415667894845
Ni 7.19659372638316 0.6304773258515437 0.23237629258448378 0.15205658362034455 -0.2395116292102198 -0.6482278145749804
Ni 2.027818916116765 7.255946156582457 1.1953806290399167 0.022837823830121957 -1.9149920873080954 2.494364730782575
Ni 6.1872398276602505 6.064360587380785 10.259207015846481 1.0312203699213918 1.4145479400097187 -1.2151360070338622
Ni 5.3352014789690285 7.468439756932571 4.472315320823462 0.32712145521040437 -0.2212393132635932 0.4852782381912159
Ni 7.366413821937727 5.083492880094378 12.526912389509352 1.7098563644745843 -1.214527941136218 0.0756030313472956
Ni 0.2958789303089946 9.635286906320058 9.440366608533024 0.07502247625347724 -0.17340368183755298 0.6560257133528444
Ni -0.2728594100750568 2.4989288308236834 5.137094149059139 -0.17483372941586017 -0.29273475020041845 -0.0947279251022046
Ni 6.936629338345451 4.608069129608564 7.536394756628016 0.9567229129334491 -0.15780557028897982 0.3590409296268204
Ni 2.900719867152476 9.108692138319059 11.816235836115798 -0.4746256435733762 -1.6511146276590016 -0.9714697322253205
Ni 3.399832526182747 2.785705939521602 12.972194142196116 -0.5707512203540557 2.5209486519186908 1.0899423092426326
P 0.7783201015834105 5.398997903785379 1.6945025851300564 -1.1444512389237904 0.49265447605062906 -0.7567923884499611
P 2.356144585366165 4.765338194340912 12.032794111040337 0.8742784331842879 -0.39757199582248304 -0.36337812354959353
P 2.367328948387743 2.1098840635743454 1.3174817054084043 -0.7204794129515398 -0.4584405491730814 0.03650195158077585
P 8.504206602741352 5.944995635731542 10.871040017838114 1.0407555631053365 1.8734615721644765 -0.5302257494361835
P 5.237507973872818 0.3281285715801915 1.3566818286371505 -0.03767925971832866 -0.8818745003639907 -0.26523268812540773
P 6.123164491047851 -0.05291235682851786 7.908469600499727 -0.01699010680009332 -0.793120533457034 -0.627370768620313
P 8.82605222126254 6.0187863999063245 6.777508299287336 0.08487545778815705 -0.20030873375851307 -0.380000562597623
P 5.732892511895896 6.307934258870661 12.455243214396516 -2.054366704585398 1.5271100650798666 0.910638974091193
