# total energy = -381170.28579390654 ev
CRYSTAL
PRIMVEC
9.17025097349190 0.00000000000000 0.00000000000000
0.00000000000000 9.17025097349190 0.00000000000000
0.00000000000000 0.00000000000000 13.42158924287717
PRIMCOORD
 96 1
Ni 6.755457987065452 7.135656594237085 7.652184738155391 0.7890260516726864 -0.23061278405869318 -0.19805541894796214
Ni 2.170781820783137 7.316108793752845 5.34336312881088 -1.3760538976995784 -0.7988980593707595 0.16308995861637074
Ni 1.9941994671966206 7.818290079954797 2.9008484298871307 3.43208796268507 -1.1796480985398974 0.56672101614874
Ni 4.887899686415871 1.9949147467759596 9.464152977138923 0.6552404984473876 -0.12174122046625484 -2.458033757562025
Ni 1.6148628636206015 3.4976621214607095 2.7892877411378185 -0.22176150431565034 -0.47013032680618394 -0.14929419038385902
Ni 6.999707622907625 6.327390669584223 2.1422329953165007 -0.1395185990543339 -0.554289989474239 1.1077590257090792
Ni 3.3860968475858892 5.1804398641144305 2.46586766016406 -2.74762610547872 0.5591406326983209 -0.3698297927122082
Ni 6.527797335313331 3.4413659504663383 13.495944622320282 -0.1897227307125507 -0.6653495618569315 -1.9550796993576007
Ni 4.303488759343007 3.5738944181663967 7.59086143555341 -0.18001141696205772 0.2340477778821711 -0.10165756234250234
Ni 1.0714979801005644 6.886831003137349 7.7120050366156585 -0.12111438551553334 0.36632512199305944 -0.26377615818453926
Ni 4.148566538659034 2.9044019021562817 11.242634210483075 0.2852366420511604 -0.43608300741348766 3.7344129276770848
Ni 8.23748976470243 4.90171008444772 0.6179786309211946 -0.364196762796147 -1.8348731703683174 0.2818615549313404
Ni 8.206641040280688 0.00038881864312776695 7.384920523335443 0.6960760444065108 -0.4719930910465355 -0.7261227272802462
Ni 2.7717817319460516 0.7045182897701743 10.51031263665396 0.866525014491114 -0.4572352160110706 0.5575285510161947
Ni 2.920193074407839 4.032581203793939 9.843648226057539 0.7070423136100275 3.3903041938800644 -1.2952685508203952
Ni 3.6431298133459875 3.123149069919719 1.1864736703286687 -0.9665653529451675 -0.7439103902809704 -0.6296917034440059
Ni 3.558405864198406 0.6898596435192371 2.364467609541766 -2.2617248889915245 -0.39608049887862107 -2.3861040613012583
Ni -0.11139562423100352 4.5567527519350515 4.440130084624264 -0.15083145296399186 -1.1137283559186366 -1.4426760657045026
Ni 9.297534101282555 8.52135488493875 2.3249144828545325 -2.2908657722215384 3.3498103475310756 -1.9929674755423095
Ni 7.544906556631094 3.374092989004421 5.874549001955021 0.4562872502755045 -0.0863983221905867 -0.5677877668503577
Ni 4.866404618031638 5.252077865060517 10.9201137311341 0.6491868360541401 -0.8118893294241051 0.1262298523652278
Ni 4.9322653608369125 6.07298956586605 8.744822897925825 -0.5014527910685493 1.0376206170207807 -0.3569868753112691
Ni 4.371128530845611 7.955880526216331 6.879074804827032 0.8162506917165943 2.299066819975092 0.8888637871976305
Ni 8.471358676393171 5.462645168916645 6.729665739054576 0.8408096120028811 0.27807971929140496 0.38498490318609185
P 4.99830950866253 7.617351539666693 4.800150471457727 -0.705997674395597 -0.6035664671118638 -0.7523541501729495
Ni 2.3396428230132007 1.7298211303717734 13.160109855519487 0.5097389423367414 0.33357261015238676 -0.30948960106125406
P 8.401563895901534 7.8510828975921765 9.501009133002007 1.148993092658202 -0.14943431550614908 -1.4550111902310878
Ni 0.8833592761822179 0.3255292387077057 9.149389613125368 -0.6642509294761141 -2.0953742573460103 0.014386093518342967
P 1.6891785778637012 2.7788244847272336 10.884331411665126 -0.8498128439427557 -0.6932491164806771 1.4261567278932406
P 4.497843059400787 3.9526624661793517 5.248109897445391 -0.7588132755347319 -1.124604122290876 1.2987652511197438
P 1.413025638732815 1.202008992576847 2.7853958866061332 1.0061549423123317 0.3080127594054115 -1.1754430593196143
Ni 8.385781893900994 8.429203032467266 11.562055144988246 0.024836342317389484 -0.09669816145469798 1.044895296305323
Ni 1.285128147796424 4.360445188410615 7.816572491939282 -0.8130555818180643 -0.679002890974308 1.8968904926113785
Ni 3.7029381904799332 8.733004278414903 13.117375568754401 -2.2669414001954573 -0.12417759782188935 0.3731912529852734
Ni 6.848967036687477 5.824237336774451 12.500103047161529 -0.9060158734968847 2.056255179857362 1.8361918891797409
Ni 5.0081675285059815 1.7340302755886519 5.751218296025178 -0.8728095619482452 0.5698274229882058 1.6598502077597865
Ni 5.0550091707016565 0.326725039440344 11.018587554656818 0.23876446663155007 -1.2801198681044146 0.39748303565310256
Ni 5.008415125283444 5.542242947745631 3.9571137060230837 1.2598153522191076 0.4816051602150028 0.09393988198327047
Ni 1.7360293903103936 4.870824679021912 5.759753965671955 0.8653649327447419 0.8691891915868386 -1.232611538110806
Ni 6.349390101774399 4.2486689987623985 9.00288018072454 -0.53644087710796 -1.113346547099186 -1.3790806003410443
Ni 2.2482429311251235 2.274084698491493 8.674359606135036 0.7284647451498616 -1.4110625525642797 -0.6383318956175071
Ni 7.462640234756113 0.5881964066927501 9.50510273305607 1.617698514092401 1.3929671285151493 2.2551994291681807
Ni 1.4536590209898699 6.192716363146148 9.985031488139771 0.7555870552879503 1.0714576201748838 0.33001831714222524
Ni 3.6278521751513915 2.5952177188615697 3.708478856144504 0.13870895866884497 0.5175905771706764 0.3114526383248959
Ni 7.75383238555515 1.1884186805694092 0.16918746316627475 -1.6265942739201342 -1.5747490071140686 0.17586088512879391
Ni 0.2628093068758104 4.605043293791438 11.195538552334224 0.7943739462481609 -0.1804302496670312 -0.07487566626296782
Ni 4.632884175879549 7.528500977561388 2.609881867263117 -0.2193775774645061 1.637501150640625 1.3034426019907552
Ni 7.072822034267476 4.423820793190237 11.001126479695037 1.3246452042102994 -2.4780140573386937 0.06615731255336348
Ni 6.409730353467341 8.790153282753872 5.778490622550225 1.263480973996153 1.107818418192105 0.6309643995088424
Ni 3.9789994271006477 5.991768652607026 6.114661020538248 -0.6511424171186141 -2.476257479658903 -0.010826144081226516
Ni 5.002252716599911 1.4354927537248676 -0.2782804373668683 0.4874544199069283 0.5362585858938248 0.48963240139485353
Ni 5.339699613529524 4.459300494375646 1.7411427222775644 2.403084397909339 0.4464635793168633 1.147451973423327
Ni 6.131660831873868 2.9744167686723313 4.0350397480916405 0.3592723289113361 1.038365465606605 0.5468749279570905
Ni 1.8170118770429717 9.31055585772693 6.97314690786151 0.5305126845489831 0.24870435145308137 -0.3872148209578751
Ni 0.4670610588564163 6.187865300358068 1.6608544235469858 1.0434202544216933 0.2647881443888214 1.5903867136513254
Ni 5.777799185623532 -0.18920795518694788 8.69090824112061 -3.649630543823366 -0.9303778472810171 -1.6647946962492555
P 9.010468563441243 7.541504393503726 6.031783042920423 -0.1431543960347083 0.06273877379011776 -0.5703434433926758
Ni 8.254729836614699 5.7296737082854525 9.282035460038447 0.4155141821232005 -0.33829546954935286 -0.3169190607561058
P 8.27787555018202 3.66866896242879 8.009534747892657 -1.10228591840965 0.7300094639291621 0.2821803717233398
Ni 1.0628962846464642 0.230782205198364 4.6094706909825245 -1.0966981399092275 -0.33770411582225707 0.4428570929125276
P 7.471241930210213 4.103558946666791 2.7612772094058897 0.1855043217558289 0.6983391294090747 -0.7666800798773183
P 1.5507352982575715 5.497831422069504 3.625103850921547 1.5442873481901018 1.6261720987810508 -0.23318722965408872
P 4.467223591254475 4.596349895827166 -0.42510165830227925 0.7984586578404959 -1.3118449671218375 0.3830763733094693
Ni 6.1032789049757445 4.998447062427787 6.620588354280712 -1.2008828395489575 -0.5217951021703272 1.1648161757333875
Ni 5.240459157021771 0.7520807136957988 3.691393761474425 2.2631472232603476 -1.6247975870310278 0.8062514144120373
Ni 8.69113291227053 2.8604763997840648 12.386448790104996 -0.06572613855321584 0.5127715585154782 0.03136231636136534
Ni 4.65888183751321 6.4105465058078686 0.7430095013896197 1.8663810111686112 -0.13462219019398106 -1.980529506889273
Ni 6.6584642420569065 7.2509633305269094 10.553797966977355 -2.0343246983328576 -0.5297374969458554 -0.40658808327816426
Ni 9.027204271547568 2.3111416828518534 9.565432897472892 -0.46814055006966476 1.9408807821493994 2.5490407821692163
Ni 0.4630701656137464 6.4440729435266215 12.846339629691093 -0.2948996190622212 0.21158404956201624 -1.5163281439730143
Ni 0.7262306931035143 0.9669662887559083 11.638987131846545 -0.6288239561270719 0.581858900231443 -1.0224948171229358
Ni 2.55566642622454 2.7044262382249795 5.9823517218375 1.417861577763984 -0.9350076327435445 0.7683476973877283
Ni 2.5470647307704404 6.754412578449497 0.6765701157451626 -1.571862686705209 0.6878423436428089 -0.41766825235172583
Ni 0.3027796799843245 2.305685383496641 1.143275368862113 1.5685302798978662 0.026041161258768056 -1.5237624887638725
Ni 7.262187717771918 5.662088958288952 4.809304216023062 -1.839205222084768 1.798348593079722 -1.8162283015736205
Ni 7.810687941861568 7.715684141323745 0.5008644381558874 1.2347715218766024 0.20831154945833155 0.3688679430195712
Ni 0.36084846050031405 2.0418572617328237 7.414233230711808 -0.4170596722334495 -0.41446337226118296 -1.0412016495038197
Ni 0.4534349828700118 2.5282473756832187 5.266094593740254 0.8652780294578905 -0.23841171127782165 -1.815358240263841
Ni 3.410003691987636 0.03663973793908002 5.064582912763576 0.208568402664144 1.0883762503070933 -0.830858157217124
Ni 6.735659415119396 1.8578103238183357 11.320238376740928 0.3669090195209875 0.9863047403556238 0.5682515938606537
Ni 4.0330030353407285 7.300821985307232 11.296870743098992 -0.7703932670628474 0.6437358402418979 -0.6270576082552685
Ni 5.808281100004585 2.162482743612603 1.9643035318555633 0.3460745992741395 -1.5269529706767122 -1.5612535437307953
Ni 9.0428212090298 6.957249360698154 3.769077708916129 -0.2323307951910644 -0.9425839024289058 2.790795184667026
Ni 6.64768002686072 2.131615678688828 7.4762415510647715 -0.25558950860868884 -1.1213740453893526 1.8978163468597573
Ni 0.7312101394058343 9.007396529350494 13.562113485559735 0.7677905393326777 -0.8274622441616976 0.14679019301508267
Ni 8.454742181550069 1.8755364190345145 2.9969471583964022 -1.6265773046392695 -0.002066138500409345 1.4204964442836696
Ni 2.9599919638223318 8.061044964881171 8.634954120489178 0.265675174979465 -0.3580086317075641 1.6311070741888232
Ni 7.244773411090324 8.453256600885288 3.4957868051276995 -0.29299391739907604 0.18973610044898936 0.4036279722085759
P 2.9431645532058353 5.64042882538641 8.161923228220589 0.11719036787077881 0.8853665726776494 -0.025128676746827693
Ni 2.673394108782895 5.244154768181688 12.036870568104778 -0.6947364996594808 0.44550918582339405 -0.209632068041968
P 6.165159758839569 8.907899305814261 1.7152523525808043 -0.28998392692815866 0.5361377440452444 -1.4297092211311893
Ni 5.826364835010433 8.02165873676245 12.938613446501105 0.2796187816437507 1.1036300911423702 -0.7528668281433099
P 3.836264470018485 1.1270513607625459 7.686731824812354 0.6063586851450202 -0.6836568448065516 -0.49373845314342707
P 1.7905923838625213 7.729943881655436 11.75136672401169 1.0212851130855507 0.8094166995138963 0.1992504676973278
P 7.979814881371129 1.253188163503641 5.020063178125446 -1.9296743719106184 -1.094256106126638 0.8930361734077652
Ni 1.4570153328621522 4.23346472257594 0.41068969180370385 0.1543258392704955 0.1584825417513464 -0.11771590135694564
