# total energy = -340866.1832702988 ev
CRYSTAL
PRIMVEC
9.31028919466373 0.00000000000000 0.00000000000000

0.00000000000000 9.31028919466373 0.00000000000000

0.00000000000000 0.00000000000000 13.62654933484460

PRIMCOORD
 96 1
Ni 3.4666862203038273 5.7124304122890734 3.9576000854651063 -1.1521894881083126 0.037171981064606945 -1.3220959554258842
Ni 4.924351664326571 0.517612981782644 8.2620903778459 0.8599656161060415 0.529400682431727 0.6814377256680458
Ni 4.418681921656068 2.013042821258044 1.3460266960731235 0.46428338110710365 0.6197610745938552 -0.21031186771781202
Ni 3.3271808454548073 8.13195115403119 8.551191619085674 0.17697777234205647 -0.9330484521346447 -0.25138421227808966
Ni 1.0285821411218645 6.876486572993698 4.046349487174315 0.5206023674138066 -1.0287084021328154 0.9254310447987029
Ni 5.105483342629273 6.237847278561737 10.049430372842437 -0.03756870228239336 0.5207193526076452 1.02344689662356
Ni 4.4886208148665485 7.841069785477538 3.4470536132600382 0.6096003320107696 1.7041899102174263 1.1549104865839013
Ni 1.7022467438948576 0.39474323185221927 5.722319801581961 -0.4520091917254409 0.9249379072123682 1.0595256446239882
Ni 7.945763988639392 1.6048331869644454 9.62455438967556 0.2801695119408981 -1.7184178808913502 0.3435150660770794
Ni 3.02865572938707 3.9842172715406443 6.7784315371306185 -1.002318856395693 2.20078563030399 -1.514690351259275
Ni 1.5855515778272111 4.161261732841296 4.203695238377159 -0.5526015460282225 1.258460123742794 0.023237887482018042
Ni 0.059630540899159264 6.645414502893737 0.361441258060344 0.9135039543438139 0.8716823903223374 0.22837258187426474
Ni 4.889410148589226 6.438996078856255 1.6689252184954555 -1.0505360395308683 -1.1304289565027694 -0.2414507552144616
Ni 5.825820425655745 0.20988092062760078 10.909293313354386 -0.29277100275499257 -0.5606277587668087 -0.6958999238399627
Ni 1.9291384940997838 7.202774971749621 10.669234020994564 1.808509335662808 0.346441495695255 -0.7719539266817479
Ni 0.23318550577072553 8.132174600974356 2.3477728593209344 -0.9832111890319648 -0.18029192431695404 -0.9682206291604033
Ni 3.592570641909113 8.040701008616399 12.930178191288574 0.3678269033495665 -0.954931111140349 -1.2079086360474875
Ni 2.2215281295197964 2.0377150878991213 4.138382627919113 -1.2904505606064613 -0.9452182547279592 0.24566762150928656
Ni 3.3259798181352984 4.057340283691218 13.548387917912793 2.288605515432452 -0.8654973445575482 0.8867189729404857
Ni 3.2332865778792357 7.89408257274331 5.719185027175149 -0.5022148660455544 -1.899467509309935 0.3379321726726632
Ni 6.974784607407471 2.4178914411148766 11.5598106748734 -2.218460164765618 -0.47969277368363833 1.1891835488341584
Ni 5.013162513945151 3.7926487589343014 10.960323940028504 0.7877173601635918 -0.7597316735839432 -0.17787097358028722
Ni 3.3499538130789865 9.088750964661468 1.2580844964460955 0.30965569432547313 -0.24325541252336816 1.5360605894049353
Ni 9.139715488281565 1.0306397150568374 7.1563780760593785 -0.7961883737490804 0.20456390949044123 1.2126955159131696
P 7.12604887764052 1.6470181077760384 6.312812796964487 -0.9723657616770286 -0.7860942227378719 0.30948805839935734
P 2.8164649259845063 5.424053511556722 9.533433657282016 -0.02934142927659463 0.03058378632412797 -2.616727643993229
P 2.118342193224302 5.955075171987096 5.838853899644743 1.8002676644793059 -0.15699258746938125 0.20875917851871145
P 7.767695395515903 0.19003510795887607 3.0614772922511415 2.6837120804335783 -0.32942567786354876 0.42709648764416125
P 4.514531349984329 4.225595831894067 2.2038218213318714 0.8239166929022842 0.2693878479443619 0.10216278411369502
P 5.6823488675655565 7.947439840713126 0.3329210488521885 -0.06326636415881362 1.4182768109245316 -0.38454935831056997
P 2.5743694733550972 7.461061017469157 2.6755322837860236 -0.3116516417095794 -1.3357189455259577 -1.1223868029245831
P 3.7807781400786893 8.250908720398376 10.736849065996134 1.7429392630714822 1.2348915923942343 -0.5703105332722115
Ni 8.371458346235611 1.92953883653962 4.574364855190196 3.051471363770003 -0.5136789008210959 -1.1068622249264228
Ni 6.333510501104027 9.089290961440781 4.951996706340665 0.08764942098886841 -0.9580801982922919 0.7157827788068188
Ni 3.198829197185414 5.096694429531469 11.474753733899984 0.4705661287920218 0.6967023651366001 0.14962817668451006
Ni 6.620006723398076 4.052070659948256 3.1994325039319578 -0.5344901811394923 0.5533201693618018 -0.9539798029706731
Ni 4.8250667392471565 2.6115082173668926 7.268565200048681 0.5172378218169479 -1.0961126997194026 -1.1629171589384617
Ni 6.218314291613442 2.0718466084674945 4.249248621856957 -2.542133256416106 0.10329535505624146 0.37093690973345794
Ni 6.145144728016375 4.327450396819874 8.131275227028118 -0.661951591918976 1.3393994797013384 -0.6612278263790742
Ni 6.341610452793739 0.7228480680502835 13.409137644990555 -1.350247735269752 0.164236156405672 -0.26237644962353524
Ni 7.394231760884382 4.573996167733974 10.050084886180125 0.09235788220813126 0.19585661152443046 0.0017581203416872947
Ni 7.505163857876244 8.682366147070379 7.252744225443706 -0.6523960870200571 1.2125638754313117 0.7745448273373757
Ni 1.5340098162706057 1.2256716552822287 1.3982751085874863 -1.1810724896912497 0.6456672529366557 -0.7097404292674809
Ni 2.549650655267528 3.372717470413867 2.134571889529482 0.2650686517437177 -1.8689780824718263 0.4303237363322073
Ni 2.921494299561108 0.7637882031826643 9.647488425304603 -0.5975387728605451 1.3581749605366287 0.6675121167258891
Ni 8.740816143286485 5.457579863320692 2.5558094116384984 -0.23484764807564718 0.08418845902346146 0.4315192993022052
Ni 8.131811499691713 2.9930997345560235 7.805164654797796 -0.3844786529736346 0.24978987120777627 1.220182568318834
Ni 1.1775002184516876 4.773627390872835 12.622695645886731 -1.6955399478519122 0.4174517654655456 -0.38783342837848045
Ni 7.118861334302063 6.435532651237206 0.40834090937270734 1.3977817762949734 -1.244973916330901 0.7560943339416719
Ni 9.52731214206824 5.225539523133685 5.694861896382767 -1.5204696769452137 -1.0701576704165376 1.3316447754565839
Ni 1.7954706706409358 9.256615480713778 3.4772776054098227 0.7810885419931645 -0.35639372181196044 0.24075501469901764
Ni 7.113619641426996 7.2567932702596325 11.7563741576884 -1.083952667318101 0.13099642051593569 -0.8120464238272594
Ni 3.556828441292095 0.985009987204792 12.148859644385727 0.5565029379651577 0.007590153642432089 0.15585615987209286
Ni 6.579991099993039 6.6750212228630295 7.9836866590101225 0.1243812291922632 -0.0702646498535177 1.466246911045907
Ni 0.7070978516439776 0.3450886659364239 11.405953489070713 0.07809905829627194 0.19181278047235997 -0.15724147025539373
Ni 5.860715389946598 0.4002809919269788 2.531131558823842 -1.394383806357018 -0.20802050058047397 -1.8899832239685834
P 7.222224166094229 8.18120258442036 9.698914739273908 -0.3272494961478364 -0.2061574792298062 0.03520071627084906
P 8.711386318813865 5.0058818677137085 7.917188848724376 0.0075377031379418565 1.3850491592196534 0.49393051454957515
P 0.7768775389074533 0.8205437267464407 9.283863904403757 -0.14765536922885536 0.14044882417808713 0.21880987788649411
P 3.9261210663178807 0.9297757649123937 3.28602843572642 -0.54244723120304 0.2611081244340729 0.4254232137067964
P 1.6636276638845977 2.721444113403814 13.356157443737327 -1.6811942206532016 -0.9651522746477248 1.1139780100355976
P 5.0501522933281695 2.471341811977678 12.864470824564272 -0.6176617688626653 -0.5418265668999056 -1.6878268954783706
P 7.6033036173719415 5.009335985043459 12.13374718279637 0.13960293123802409 0.4778868308231512 0.9819040401847671
P 2.5885304233781463 1.9902605433445657 7.376269419740748 -0.24264837506698855 -1.3969582519524133 -0.4467775110128564
Ni 0.07135498821278517 7.186779894734764 11.75762732262798 -0.8578143740909936 0.04498762045428381 0.2230851082230803
Ni 5.2736644085177335 5.875760817453005 12.893468651613441 -1.6840445456178028 -0.4820486755103246 -1.3015312439006552
Ni 4.282193080539769 6.0415584492810455 7.852216994854655 -1.0207230699344938 -0.7878505433073464 -1.3637169734007804
Ni 2.1820525028940727 2.7512277288697784 11.368630401330806 0.04336911101425434 0.1989650752464251 -1.3832596714193985
Ni 8.203640381629793 9.147331304927754 0.7209208381654898 0.17415135863685488 -1.0918382407137646 0.6223815429358378
Ni 1.521776096132351 6.596516863497912 8.021268572792527 0.31969739483219134 -0.7270655508094898 -0.9822591095313408
Ni 1.409335732274128 5.026038644045004 1.3606140573460441 -0.25271270128152606 1.6480431878225297 0.07365722047483443
Ni 0.7312040526957049 2.8489578356363405 6.376898311292989 1.5086467161683568 1.4825639030383757 -1.1418281994786463
Ni 7.625471416191717 2.2041737502673557 1.6458422182376355 0.7666669672511958 -0.7771141307264487 1.2182334150122631
Ni 7.388971447430718 3.8829771857085404 5.846784404069223 -0.9899719047945661 0.5110599751410102 -0.9135494628697686
Ni 3.2403903286140063 3.264671563104546 9.057254255964574 1.2374524111428753 0.5442575449389013 1.166500762524662
Ni 0.5863964680911781 5.352634282347777 10.044565746683961 -0.5755779523187378 -0.6825294160703278 -0.3615233297290419
Ni 7.867380663035155 6.763422419752475 6.052586486955141 -0.3390423750177064 0.2742225503288438 -0.0769538889482352
Ni 8.82092187241095 8.611719671873212 4.847862982594582 0.2730706961125878 0.486142128853408 -0.012027877698811543
Ni 3.892697127736195 3.422657862211127 4.354718372117377 2.588159088326917 0.42559496339797026 0.11858056335008611
Ni 9.425178268463478 8.09283862868811 9.231946007159491 -1.2902849815628747 0.3155003260317083 0.12059579400790199
Ni 6.18869826135485 3.7255867451170643 0.4547815634226537 -0.6680091109669657 1.0243732650925712 0.7152505604524327
Ni 0.944510228756231 2.9219411934474366 9.131096022448995 -0.7615869816251272 0.4301681845909495 -0.2524028833505911
Ni 6.87760380770952 7.390097992435839 2.5696538118253973 1.049899948608766 0.23019343713308743 1.129049045436107
Ni 8.770832515984914 1.6870058003131807 13.124438308531118 0.868762388462065 0.4973140863098274 -0.015027326646767668
Ni 8.479066669947901 4.18406263133337 0.4412592992454836 0.6143558444178838 0.09659068934255623 -0.6749847709538503
Ni 8.961656205447374 3.2380162048428835 11.317367017424226 2.133306770725726 0.9181720492434445 -0.11899193985589183
Ni 5.122977376221191 6.35714001534367 5.2907534445251665 2.1835466407178847 0.8930755112861328 1.0443687343778918
Ni 4.018553618473585 0.658048454532586 5.528591301858362 1.4983432773598195 1.7127825369824439 -0.2263925753297585
P 2.7375881550474475 6.149380909647202 13.34859469574014 -0.4248999942134747 -0.29566529358365207 0.570153953089689
P 1.0332838372176167 8.719300064717608 13.358760600625194 -0.5289211716921473 0.0682051962213277 1.0814877507173761
P 7.597661582057039 5.513544012294095 4.431176329894681 0.08133736272791153 0.7689061409943596 -1.3372742058282197
P 0.3114915559737855 3.0908298413225848 2.777717363981927 -0.4364820426241192 -0.05311719153995369 -0.6620477511772082
P 5.116990860202243 4.334405182925868 5.958358911022683 0.05215508473700049 0.01114804619701951 0.36459271268298493
P 5.916819193259477 2.5105753710816403 9.23855538153251 -0.020874786566480175 -0.6258191078624771 1.1484562463181254
P 5.161605766520749 8.157126176294387 6.931961931778928 -0.15901064634067452 -0.7721729846710895 -0.4778222961338029
P 0.5561920275489203 8.456228530298633 6.952428740743865 -0.2910591622702084 -3.26953459329846 0.12210014646757036
