# total energy = -340891.6616366376 ev
CRYSTAL
PRIMVEC
9.09985099884539 0.00000000000000 0.00000000000000
0.00000000000000 9.09985099884539 0.00000000000000
0.00000000000000 0.00000000000000 13.31855176384400
PRIMCOORD
 96 1
Ni 6.572276291551869 1.7986037239391477 11.558890829407293 1.4230819456226589 0.9862432909900692 -0.9949410758743831
Ni 4.7490210716088805 0.3283817683804366 6.064282576706239 -0.16079139239018117 -0.09222906993975084 -0.5706681737219462
Ni 2.753123480981186 1.6130850642749532 4.944538647407819 -0.09119857179270745 -0.06965915505903487 -0.1128943115985862
Ni 3.361730606943859 4.4897390208014105 5.1478202159681 0.22329516735135738 0.286859522366564 -1.5636644671651327
Ni 5.017211876417002 4.48133075859855 2.3374723227978578 0.438325009370129 0.890664073631163 0.7067003568895764
Ni 7.249377995004727 5.936196715815998 2.593281870513757 0.35814438595447995 -0.2534367239317442 0.45291884802390386
Ni 4.9990394742318145 4.684885322684898 11.288031948324413 -1.415454510984388 0.45367629501521867 0.7290923514315314
Ni 5.692084116406979 7.849886253694081 12.510129180226008 -1.355018160075202 0.49016384841829125 1.2869988546124354
Ni 1.9029699135545228 6.57606182951333 0.2788585599817276 0.32990081772775437 -0.2715285484364485 0.3752532777206247
Ni 3.123469211643539 1.7775284693267834 0.5460620309705725 0.40440007448790993 -1.3659744019763893 -0.4048741859108511
Ni 0.726757769674252 9.064734544393513 4.5915709019497974 -0.19739567387677617 -0.1456445094464137 0.4191090985633104
Ni 8.599031476475993 2.2820151016475414 1.3673354016946189 0.51596255464895 0.3312069381336876 0.025480146548975475
Ni 7.083232917840413 0.6744008677149687 4.70789520559199 -1.1981613268527365 -0.5371222194457007 0.8441913839909203
Ni 1.0768399524217462 7.468129310042132 2.602205184275797 -0.5090984805392652 -1.1391848483185283 0.08387195622430717
Ni 7.676133701203369 3.742532066254574 3.7424865670002294 0.5688069521434914 -0.272299365164202 -0.0156526189355924
Ni 7.724499408571554 3.8354870428803527 12.761343303253113 0.8065702312040366 -0.0407679259459814 -0.19187140162443728
Ni 7.797880605978337 9.217966933174862 7.023244880942473 -0.016856152325390325 0.20391547727316495 0.09421833245563774
Ni 7.063777436682712 0.553892452643258 0.40226527755518177 -0.3117151479576632 -0.318121051484007 0.2609417740595377
Ni 1.665527504832404 6.602706192857459 9.073769786321241 0.05416440185754543 -0.11509697567685985 1.2289055500141286
Ni 0.2541260753051536 4.773718066867066 1.6986746216074469 -0.9024854917461232 0.2573309167798278 -0.9913129922034927
Ni 6.11975890754338 2.3068121952652842 7.2052300685142745 1.8285274306559476 -1.3089244510409328 1.1274829865005678
Ni 3.353549841012721 4.2374729550138595 0.10749198838884091 0.6224645895679473 0.10603486547459158 0.0714545563965608
Ni 5.905357321221307 5.435959713851015 4.722452237026964 -0.4338070668951174 0.23492298139827283 -0.24724576462968387
Ni 5.244844645902449 2.9968356869519748 9.466866054140922 0.4641779658774909 -0.8039885865197895 0.13479702520894848
P 0.07767359706164058 5.538615131503038 12.694218253318697 0.18865829400377832 -0.23572490847427788 -0.09183851936955151
P 4.0062912436895415 6.183912856169101 12.773596252448083 0.06011933388939968 0.5887587126750699 -0.8987933876065166
P 2.4829398088327777 8.542667000194047 1.3257181437308072 0.22863663416892882 0.691227458064958 0.8523384385780869
P 6.462550289774715 7.919509212692009 5.776709089547369 -0.03515777884805558 -0.8954077589637354 0.6255293445362001
P 5.114079788916405 1.0674216067724382 12.830027157641371 -2.0269307198616318 -0.907514055308966 0.44474839639796954
P 4.0608357497977075 6.254791594586937 8.322256782343242 0.5581425304511097 -0.7201839931983081 -0.3185848784943029
P 4.697679713006566 1.393815057738021 3.861141342449946 0.2576718450590143 -1.4605125796652911 0.002278254511215431
P 0.3029358553957411 5.51822236570584 3.759747164128353 -0.2572617541047892 0.7773254754063064 -0.3758808840022946
Ni 1.6176986886654838 1.2199988062912273 2.5556439773349138 -0.7416210800261614 -0.05231860689805828 -0.4121581211667741
Ni 1.9176752725586597 6.6259290122748835 4.921604293262939 -0.19200304210629512 0.0673346206909163 -0.537664465102416
Ni 6.405175730046321 5.760815290019755 9.193103410645778 -1.7336182427808726 -0.2394257543646328 0.2842629652839814
Ni 8.697810357657865 2.740383689764731 10.354468237848355 -0.262493949038006 -0.7884382974900164 0.6350673659336223
Ni 2.3333382605481177 5.414420366844337 7.0595651157154995 -0.952047876055283 -0.3179541868888395 0.39671504713882644
Ni 0.3757828915565189 -0.06669189703305618 9.600197979057082 1.3654563246893903 1.4860408058433825 -0.052435334981580664
Ni 1.7470894681703242 1.2623131128315965 11.3817012632434 -1.644265723057968 -0.6278639062066478 0.7051646369713404
Ni 4.263962620893217 6.755128694911478 1.6191364651027693 -0.546250406999214 1.3204429932034938 0.059713356700232645
Ni 5.893290918969151 7.883118909067291 7.9538920892150475 -1.477861869577016 0.20786520594953234 -0.2833167993206282
Ni 5.084678170759 2.9525922120273993 5.343376011140688 -0.012323297452043292 -0.756838154086232 -2.719982632729838
Ni 0.5829619262439482 7.778070230636749 7.0021486966731095 0.4834039039866384 -1.1092091278920446 -0.3917890705921188
Ni 5.023354275753507 4.482450040255424 7.060057417647506 0.08241954004849676 1.6075596258861862 1.3996190866140283
Ni 8.01821529506693 7.521008543441289 9.009800564668158 -0.1723518435342709 -1.0471067021343452 -0.020636702413745104
Ni 4.6063536096863205 0.5305577050601465 10.57935194238631 -0.04095818757991655 -0.5458017494975697 -0.33468358382837843
Ni 8.152519994040976 7.190128865997341 4.571126267002648 0.2926617308706379 0.09017167319008985 0.28842301019894195
Ni 7.258577944233181 5.941083335732596 6.775360393348295 -2.2854628560384125 2.6996112681623377 0.01172603018767658
Ni 2.6293564093133237 5.009649900344948 2.289099335548977 -0.29520712300031093 1.8990926424690195 1.4778487569508936
Ni 2.437995645391297 5.218263981514402 11.34607443710658 -0.3785828563144899 0.9275537475686606 0.44439564104424106
Ni 1.1611682704238109 3.475396844147246 3.712679095494072 -0.04914303738355408 -0.5105059024097531 0.7863770440856135
Ni 3.571099975735431 2.831473196962386 2.711830177708307 0.00960075631455766 -0.8034090598672357 0.9505800332605049
Ni 1.0869589865879592 3.2411211835275036 8.494759015324567 0.05571734816696211 0.5061797642305734 -1.8165237213268524
Ni 3.537940119169172 2.536619829108399 7.20750776118676 -0.1736433086521848 0.12902952659755196 0.2210981597000386
Ni 4.110147841656258 6.84805637198465 6.044011748910685 0.9117476337743394 0.6879595859469636 0.19758182174565325
Ni 0.8346155720680225 7.16333890503931 11.455712170330308 0.3179449309174589 0.3595487225011743 -0.671104719173154
P -0.052681766635302996 5.8927449279170165 7.914962017212821 1.227998464818827 -0.4083068657414839 0.5778474650792048
P 8.474709313905127 1.9108139850035115 8.10730829498395 -0.4637642753788401 -0.9008885795726485 0.9090495181168862
P 1.818122904052931 3.429997688162321 10.497323156698815 0.13185748296465033 -1.4420944821694197 -0.35562984706274237
P 3.9380878614271615 6.249786676609044 3.786011153706162 -0.43414593829177484 -0.7533519953098445 0.06166482399964863
P 6.868385438825764 4.062573821313667 10.689269951016799 1.0774256648328606 -1.106598943962707 -1.3118249125171793
P 6.186151419482849 7.781992266361244 10.468008897109751 0.8112311270148158 0.2550914859263477 -1.753923787107444
P 2.5655664547223584 8.575426463322074 5.964433553062184 -0.6722069510983971 0.018472347772574636 -0.5011080061346208
P 6.893537426627394 3.9529661175978075 1.5608146108989243 1.6847701109299178 -0.39617434414400804 0.3221314581949807
Ni 5.520515528124802 3.0831022731891142 0.1798430826772639 -0.7350668238474114 -0.2508003147501616 0.13388942579301455
Ni 1.2039557692093628 0.9197037276176401 6.904923160034558 0.6570209873865781 1.3269131743088696 1.1380504776037692
Ni 7.01349166078119 0.6371442582875322 9.417774178673398 -0.8926733907517078 0.5338522904451772 -0.4298246852086017
Ni 2.582837971671524 1.486833733319882 9.166333469359657 0.9915469625911698 -0.5094103553527292 0.08295355817509584
Ni 6.458983148234108 1.7717682637267718 2.6598345398285193 0.2732244480816327 1.043934732164267 -0.6652924833667511
Ni 3.9651053186569154 7.058636020941785 10.542858810446775 0.7640647537416583 -0.41470119930360194 -0.20941480982483932
Ni 8.230796911215224 7.106655933976953 0.6222723720124945 -0.06025868768074138 -0.30942686614411874 -0.3210611079489374
Ni 7.647778565895888 4.015937085610572 8.043552919826286 0.8112293272426029 -1.109583480512328 0.7098813257207194
Ni 3.1138688689768537 8.723071543669922 12.607500314478461 0.843718815229876 -0.6819884559651932 -0.6634214915962833
Ni -0.21688857556454186 5.2715982074570045 9.984252635053426 0.28354485617103425 -0.5671437055084555 0.46967678420853304
Ni 8.665223791696347 2.278056666519571 5.831701308318285 0.03955770768796413 1.0834124785439148 -0.24321350354183918
Ni 3.6128136921184533 2.5977708269473836 11.649910267753258 0.9328841586426384 0.6041909880697401 -0.8801541752387745
Ni 1.1623603508876363 3.243832939086434 12.624242220107059 -1.3067441555601624 0.5490858195654801 0.2455136124299256
Ni 3.083120472890852 8.201158696935227 8.140804846032356 1.0181298552860207 1.0732892740669837 -0.3026376111364272
Ni 5.631579207979685 7.732325280318807 3.7790188282985016 -0.49508159743488284 0.5872409904789628 -0.20070082699060918
Ni 3.049505623781148 8.58552729778655 3.5916274193254885 1.1283291365509471 -0.25279420525173885 0.2542764462242202
Ni 3.304055752136792 4.3438411118203915 9.108756892941974 0.2574895538448791 0.04461995270221993 0.07819650310608468
Ni 7.151108705471512 6.07769939682734 11.524715429484065 0.66098768534381 -0.052985808168411974 0.823350278875853
Ni 0.5429780915111034 -0.20526806600496092 0.2236079054461351 1.078698103787381 0.5853108633357855 0.40334129420609244
Ni 4.821737979902233 0.21396024355493093 1.7905731055473466 -0.8915981554096579 -0.07341579388798969 -0.4517932190598929
Ni 6.058435012537886 5.723333004290769 0.3641314425039837 -0.018483660626484297 -0.44264574823266994 -0.149320158525788
Ni 8.005966895797394 8.436034947712317 11.617599427273065 -0.6320077531716921 0.32450664329537665 -0.37556592386503707
Ni -0.02190243105634719 4.900042196629089 5.9438433205011325 2.038352074324696 -1.1429890525559672 -1.1119270410438398
Ni 8.238395286690752 8.856921250100521 2.465676481749394 -0.41470788417182125 0.14777929640122936 0.2123762064460084
P 8.640353899271652 1.5928287962407894 3.6476451912893286 1.031970617823855 0.9015424111065635 -1.1451459509979698
P 1.861774888671028 3.275090926821094 1.3881522205423067 -1.380451769656958 -1.1807654999737922 0.78179945201726
P 4.8081428027041015 0.9119051554229957 8.25317344450184 -0.41682544473545635 0.42205789677898925 1.0962245427069186
P 8.692932837592137 1.2414562546400854 12.292969429105574 0.08758797162331368 1.9822642301921927 -0.1710889176614473
P 6.357656308808944 7.713534088274535 1.661356133194102 0.5877559824421684 0.194330147577575 -0.7474096616834806
P 1.8315815834880291 3.331100508919153 6.102120666604199 -1.0979708359740639 -0.14385270765331354 0.13946846254268883
P 7.035367702270016 3.9585625258821793 5.869139004778012 -0.8240665882165872 -0.42781382542616003 0.13785072443360774
P 2.424327669386215 8.559792919529311 10.33632768514121 -0.6641565699900949 0.35531128738105905 -0.19344954474483458
