# total energy = -340871.7752533575 ev
CRYSTAL
PRIMVEC
9.20214050464005 0.00000000000000 0.00000000000000
0.00000000000000 9.20214050464005 0.00000000000000
0.00000000000000 0.00000000000000 13.46826279515699
PRIMCOORD
 96 1
Ni 4.3905251771181835 4.835632703143516 0.00014171296052904937 -0.7264734257514457 0.6249996972849752 1.4991120372050442
Ni -0.07817034137027068 9.405783658802417 5.821360450162701 0.45355056807063177 -0.09786364251770888 -1.1633691588742159
Ni 7.483346125682628 0.6731614082917785 9.764342294719706 0.37126009740083155 0.18632244678175008 -0.9764260477893312
Ni 1.0680740196549157 7.104457201213596 6.996978043006637 -0.761198745047773 0.8721968680649107 -1.177083680246831
Ni 8.09367808068842 1.1128976450274481 11.984464465283294 1.425049610871991 -0.882342698249661 0.09086947058806286
Ni 4.280467579200819 4.219264144104798 6.14559510278302 -0.6896488007239284 -0.45052078010537244 -0.26005654324110694
Ni 3.859920565620423 6.500318286625729 3.0032206287348786 0.7852282751931509 1.4687717343502897 0.29727351861103646
Ni 3.480948821888745 4.173667538947562 8.938064633646437 -0.015371340249747721 -0.4311693721619542 -1.0419282432571992
Ni 7.749269575901359 7.371650546792913 5.401217410541217 0.7920483834387779 -0.23479442624020852 0.44386676512396456
Ni 2.5686026224307845 2.626171212110637 4.030148198278782 -0.46365526060480144 0.21821055373959838 0.20370001882824917
Ni 0.5991127055592327 6.615299029600436 2.8231365836075155 -0.0201744180653459 -0.6293633735703097 1.5549278586230835
Ni 5.647307487784087 5.724522646991831 4.896912516003978 1.499084012180586 -1.3008200767662437 0.2099236311404578
Ni 7.25424964092086 1.6896877986612673 2.865952301967877 -0.3819162915630971 0.07098121630456808 -0.6427729621079962
Ni 2.0163913855224904 8.038327206819444 1.657714041995408 0.8473363573778052 0.7189678614030198 0.253438266593641
Ni 5.729878292642994 3.1992621053462305 1.446936257917094 1.7195982743526965 1.5335439936306687 -0.4588123306902034
Ni 9.029094045863674 4.037383841192028 12.729973100567241 0.6086068577492487 -1.7900449583100333 0.09699949474520068
Ni 6.89532015874972 7.5539725524398 9.807858295956448 -1.5513920775556829 0.8751929745787573 0.40063263702567775
Ni 2.9823676586144323 5.99920653477054 10.75175403341271 -1.5886517332380896 -0.9416199958537397 0.35743707547481024
Ni 2.6199413631315354 5.328388911611668 4.770391368886448 -0.6533430243143586 0.0474345393328796 -0.16050342883611712
Ni 9.022459302711633 4.089293114591013 8.652698901414343 0.3822435929955288 -1.653089234886869 -0.1910692174381161
Ni 0.258581062478074 0.04461197614576826 3.141889521254642 0.020803824119228688 0.07324430130713191 0.8924900710963082
Ni 2.331380647789332 0.49170440383253666 10.220000074592216 -0.9769155858312399 0.9139862932968711 -1.0349515548290498
Ni 7.855821158366675 5.440627416778733 7.326964033310762 0.9653258241111117 2.150100188133981 -1.6349925252861586
Ni 7.361399362505292 8.512403070490585 2.3640436447632194 -0.9888005101942842 0.8872313938005301 0.1744588625749447
P 2.325656916526406 8.248292441909788 8.577235829718594 1.8709691447599264 -1.5456605743885445 0.042406747100985034
P 2.591552760324255 2.9559575159703817 6.479648439097136 0.3162179209240232 1.3620084753501058 0.3604660921091211
P 8.679633566055157 6.982832512946555 8.899194793044183 -0.3343418842182435 -1.4548474109597138 -1.9286878396276332
P 8.73623593100413 2.2909464433370825 0.6107681364557321 -0.48980646507887254 0.41849306224586635 -0.6817017779627098
P 1.0683316795831503 7.931361528040894 4.662712524235105 0.8839491235048325 -0.5772792512805607 1.0266672033330706
P 7.461969553779447 4.164907101387584 11.337784976329859 -3.7457142116225173 -1.459321130460351 0.8696926135858183
P 8.375364797230935 7.117919932463856 1.2118740256026657 -1.8167186109464777 0.45944919294325387 0.2573581704733374
P 4.786235614044819 1.9043369231613063 -0.05645144984814975 0.6272622680669068 -0.19645465011974553 0.19529816791779914
Ni 4.257857920498229 1.6360485228869925 5.5512003345525684 2.476597122386509 1.7813595147208934 -0.8148810650625772
Ni 7.775716527106586 8.577747468718947 7.52764062798825 -1.3610461114368366 -0.4107576412748216 0.7688122957289728
Ni 5.122656661056605 0.9639057915257703 9.922271266875008 -1.0209328719524546 -0.2661788540887609 -1.292183227026852
Ni 6.458945463863482 2.922020022565763 9.003224068854887 0.055917122882594025 0.6085628918851906 -0.05003315329799125
Ni 3.334358727003826 8.906843612056635 4.328578209086401 -0.7545884388201068 -0.6740141795104649 -1.1793555070001431
Ni 0.7350688071202967 0.1734281370526447 7.9939655288896745 -0.6055855544244215 1.1239248368356642 0.8452619913472799
Ni 1.1231212228941867 4.715645995848823 6.5871119536655955 0.7052944776809853 2.5206018101022334 0.5981416965518667
Ni 0.40723243678887033 6.213782042148227 13.38156745265175 -0.9082954135596809 0.8626359638493531 -1.6227759286153083
Ni 0.7706479623533822 7.745717549747838 10.320446957186432 1.4076956929745756 -0.9566257252339525 -0.9261108444745471
Ni 6.570788276997902 0.5937110492065993 5.503186327140074 1.90601945149584 1.9947929587868227 0.8635903573428223
Ni 6.898614524975005 5.25415524585921 9.491906489814845 -0.9427880480199118 -0.34148620857250866 0.0884055824286026
Ni 7.59724101610263 3.9678064584283823 3.5469879817093113 0.46533727629291466 -0.9816250754917675 -0.07725316535620888
Ni 1.6253188273040788 3.428616250036232 10.738689754837184 -2.053050556877135 0.6709003164718317 -0.4797295404588448
Ni 2.2610118809603943 0.9906380090801137 6.07638212477502 -3.019931898400825 -2.268553224767267 0.13314894808256422
Ni 3.6993064089273044 0.9606298295810728 7.900604294321914 0.21286291627443985 0.017409967946331307 1.3313159313622553
Ni 3.5676053770382294 4.354379170042982 2.5551316092542598 0.22799565815082024 -2.044800658163517 -0.8380680447020018
Ni 2.16810707255122 5.820749428047173 1.2030004017170706 2.1383240214346593 -1.7957314671718494 0.4053503542163213
Ni 5.3740315274703745 3.335637824504705 4.040088350224462 -1.1661318092210176 -2.12077778502078 0.561218341162956
Ni 7.256007249717032 3.5267386719921574 5.901482565489349 -1.1669717886238096 0.3805872883390284 -0.3554940928158265
Ni 5.821826078461583 7.984292239012523 4.289910815570617 -0.6038690859539472 -0.3220054741400777 -0.9881518208666918
Ni 8.421053423791111 4.6318421041905085 1.4811995070881239 1.0738245777451634 -0.4528283451926266 0.6355862145515698
Ni 5.8250652318451035 7.031760292890254 7.371785818255237 0.6168858099285892 -1.547723370454844 0.466563435390532
Ni 7.044744512845219 5.640359871862047 13.374590389880767 -0.5148425821118939 -0.5955929619880839 -0.7866662931912581
Ni 4.182694838576069 1.7896598508163055 2.1566862962322197 -1.465898526567553 -0.40486595838073497 0.7489947467824133
P -0.11065481682245232 2.1317494162492543 9.505482407390721 -0.16592742806516583 -0.8362425614574888 0.6676635547020889
P 4.06566201831578 7.226459177232695 0.6003549944989353 -0.2603329368309452 -0.7660542733678614 0.7442204653222215
P 0.6682373430204088 8.683434049996617 12.084762273204742 0.28467177068662586 1.1402307730845396 1.772829365762695
P 6.262470566444279 8.68476836033926 11.706034386190858 -0.1374123513446085 1.2990411304889498 -1.119651406271291
P 3.5374131547333065 2.646195069390586 10.406050787486272 1.6386653461520553 -2.352620327721516 -2.350614095924765
P 8.507940032447948 1.7663968401528356 4.531949190441999 -0.07084134829259413 0.39426684270865003 -0.046219693089172016
P 1.9363051585429893 4.9812657754378495 12.568515107609151 1.1739659605534556 -1.7988031641186375 -0.7993852834198233
P 1.356735958540354 4.458354153225952 2.8281600319940616 0.7448429293975688 0.24757949382001876 0.2261974285998169
Ni 1.2794379800699633 1.517368519514061 12.426195726034722 -0.5594879887354107 0.242079389937396 -0.2209184395890647
Ni 1.7265607748197023 2.323991329133175 8.458150011958693 0.6831580507932622 0.7973890789254009 -0.4238304152983797
Ni 9.057123765199485 5.125582941670128 10.647900518481622 1.9315016549273445 2.967414031007767 -0.04098569838374232
Ni 3.1688858402354256 2.8230325994221923 12.37205401340039 0.5476118061231149 0.710034563469132 2.5496115670710218
Ni 6.234450049248762 7.974133076127843 0.2817695358051618 0.7657385418996553 -0.03734270231451633 0.23240947094779973
Ni 7.4413199509595 6.289543263189503 3.15150575786197 -1.1034591127821447 0.3912334551989649 -0.31285363243748054
Ni 3.0874468986326926 0.4764086062356934 0.34768998801593437 -0.5554981508497272 0.5524938168057646 1.8620245339721286
Ni 8.159280138845016 2.0117811132351493 7.40856769322476 -0.6616206909421187 -1.5287190614381994 1.511803002409151
Ni 3.7924688772647133 9.477192267484588 11.810777748088384 2.2953672596363175 -0.4667981771091574 -0.3996769579806278
Ni 4.954524355743213 6.846880092241608 12.140587977512894 -0.04549695599053454 -0.11581508478980698 -1.3416710493443345
Ni 2.4639006701645814 7.249777400737931 12.576771267881014 -0.27645658186568517 1.6935941369794512 0.30890827463648735
Ni 4.210844185735702 7.937296908530584 9.865771965897329 -0.24833102727406267 -0.2380936658167706 -0.6708432379816511
Ni 1.4689468572865376 5.771241913264947 8.836284360923608 -0.09233782760347323 0.11852245641864104 0.6751945729718113
Ni 4.762880581978409 4.346695382897414 11.305731161043441 1.6695481517738409 -0.5122233993214921 -1.385132462962079
Ni 1.6100064658547062 3.235444920982608 0.840873175793732 1.3748920161809934 0.9241562918513373 -1.032406162699377
Ni 3.4609433688893847 6.121677819944639 7.506240130520304 0.04068616486545251 1.3150441907854253 -0.4475940933768807
Ni 0.43450021890833 2.478522871091897 2.5807476071909297 -0.711430158265078 -0.7019764690513459 1.8722094449249305
Ni 0.41903326150201664 2.8515040214921195 5.976514977019335 0.21046459124559236 -2.267986810740836 -1.3342305339058893
Ni 6.141536038699294 2.144807253326574 11.501491972375822 -0.26200903898178746 1.732337576296236 1.2971598543058371
Ni 8.084834823865794 7.3887573255996335 11.984679795366176 -0.4336715697585176 0.4666979040858672 -0.07009881369961475
Ni 9.441211898934679 0.17812214881666216 0.690136596492294 -0.7428840058989852 -0.3133197734406217 0.2323966154319933
Ni 4.7209464286582214 8.75842229125319 6.376562382666576 -0.3987112516332488 -0.3391092236998999 0.9345831436116162
Ni 6.860342823491868 1.183570082486091 0.48455065996790797 -0.8461937591329298 -0.1432731810007597 0.4817506846539316
Ni 4.753457590317256 8.553766691112537 2.106503344352407 -0.1158942747671746 0.8200106729796587 0.15538667643484205
P 5.710130499571868 4.924276920596525 2.7615862278224084 -0.16449429516306507 1.4724844073151866 -0.8357321974799736
P 5.459243346593686 0.8472097696002452 3.6608893136275205 -0.8129077433862902 0.2893378087037275 0.3316489107671127
P 8.354485140903636 5.326281621484321 4.971284213860845 0.7175398707072417 0.1398710972977462 1.7662298581683067
P 5.872198594431453 4.696846023227988 7.360042046811913 0.4710358693395888 -0.39752597307589604 0.8461577636886719
P 4.740758636711406 5.7970539167898805 9.683222667385177 1.3453397564451732 1.3625790031415952 -1.172500945972155
P 2.14657406426304 0.8907690208963691 2.396098380263666 0.34403648579818813 0.8413451727913769 -0.019657883440243565
P 6.137450288408716 1.0809938246278237 7.83046097993018 -0.4735573502098619 -1.1561415307775251 -0.40446152385346473
P 4.057186847104918 6.977808144345979 5.4001002707095145 -1.1673435701409316 0.04114870632416784 0.04972847757337887
