# total energy = -381167.197486467 ev
CRYSTAL
PRIMVEC
9.31650564444481 0.00000000000000 0.00000000000000

0.00000000000000 9.31650564444481 0.00000000000000

0.00000000000000 0.00000000000000 13.63564773746545

PRIMCOORD
 96 1
Ni 6.507485956860182 1.2542066092348227 6.129155709859147 0.14643795188198652 -0.8097149474806055 0.010306524132330637
Ni 1.5936348556897286 2.5830943269038267 8.931063075853574 -0.6701184440004846 -1.47997351660338 -0.42594951852391155
Ni 0.26737625588501157 7.8933906884534855 7.8236165834889 0.5131024594923357 0.5627463477717083 -0.4036894215741305
Ni 7.962221031406545 8.792945881175836 9.565175187591123 0.116434977761993 0.20550210503399446 -1.607445468905825
Ni 3.4790906145086806 1.5291553208253361 10.65134930284904 -0.1411849310131633 -0.7237876513891663 -0.35811661804033806
Ni 3.100915021499663 6.380101376568196 4.428749042391733 0.2056229468825749 -1.4153712072419624 0.5908292220508534
Ni 5.829439999932628 6.687015018677381 8.94971658325214 0.9010922109430224 1.091578816404791 -0.9129444822959181
Ni 5.715983595427705 5.4307401452119715 11.988788640956134 1.6868277647898948 0.1793473010154976 1.308575038121314
Ni 3.4258095193071982 7.7608633971016605 6.47530954166568 1.4987847357726123 0.14761937378459739 -1.2680446821074356
Ni 2.4610853703102595 0.24212200430909653 12.577725948965327 -0.42020284584812145 1.2982988530062864 0.6953257965040477
Ni 4.039795184119803 8.702305598746177 9.212134594887068 0.16570554186234687 -0.45967647846271154 -0.5220943785783009
Ni 7.9511250733046115 2.0066075969025463 9.86705419010477 0.48856230825912633 -0.18231126873982795 0.7531794742877223
Ni 4.867902095831459 3.511437521754623 6.461346894808106 0.6271398835564296 -0.0813684730761631 -0.96148331043657
Ni 0.5459034372546628 1.5273199692333286 13.387478413106352 -0.8756835410619306 -0.891310191855594 0.7984422027802636
Ni 6.065687947496746 7.936740388745932 6.628342461718057 0.42069135544876585 -0.7584726043658615 -0.6236133584604099
Ni 5.582058828244402 8.47576544995806 1.9611057838296246 -0.02089278428860918 -0.2521308606361271 1.2657869964215105
Ni 4.1861202201810865 1.3011990631946546 6.375920128880414 -1.2347267846815961 -1.2334903411713338 -1.0835754864843403
Ni 7.210528098160104 7.90662012632481 4.6493061313200155 0.2836685262330921 -0.2836821530798469 -1.6351203091132742
Ni 9.645378188860752 0.9505816935823821 7.7880815680460795 -0.43836614702070953 0.41808914193922836 0.7396331030618551
Ni 2.8672663789820945 4.950679247582668 0.6940759363651603 -1.0786289411123424 -0.3113112276510252 1.161272167135871
Ni 4.763818095902981 3.5211080545084505 0.661128114511682 1.2759405399157446 0.7594179989982662 0.2220021595715467
Ni 7.146346691473095 0.7238859591516934 3.7526120374499774 0.9520234505752508 -0.1544273978453663 -0.1997145518179399
Ni -0.07767357001465261 5.953973729528399 3.741908304231411 0.6720354585175394 0.38170314711102654 0.9656906636496981
Ni 2.8975636550085366 4.31156696732009 7.294184728034592 -0.3630359097188264 0.4804201387679662 0.2666599074902375
P 5.669633980350354 7.80521927999277 10.828994567245406 1.8849878276365213 0.3221173171275936 -0.4515199107938482
Ni 2.2000275684846367 3.995327503162175 4.434284909985494 -2.6613249709876294 2.1735643326941916 -0.7928515960663636
P 6.579446645675753 1.67969141739214 1.9714144972131602 0.163746361253447 1.3354407521639067 0.403782238398253
Ni 2.84219566256538 4.111252781636042 9.757683073280536 0.8527277035967057 1.5327083851032506 1.2496360976932606
P 4.520824998325597 2.321225989095947 12.383540160627588 0.023508881755217575 0.5483039470941332 0.19642636798497137
P 1.387861197757373 0.7609116154814243 10.231644454730715 -0.07229016492397872 -0.8327687439762755 0.0986786822198365
P 8.823140675641303 2.8127555050489117 12.063184664320692 -0.5801077218682912 -0.029009756968788752 -0.3551361952557755
Ni 0.75213919386196 4.895348521161686 13.144109860355575 1.1017182188316381 -0.169536742682979 -0.04517222566126414
Ni 8.758465494160504 3.314421379032863 7.655748060009553 0.4390780854860696 -0.7582707727677006 0.5865856162831511
Ni 5.701282149680558 0.26600113966683725 7.924206893838683 0.25061570954318124 0.7290540419944284 2.1546399849858635
Ni 0.859129011869357 5.126565555732482 8.482341039570441 0.03849558497203692 0.9872218528532546 -0.3494705123295659
Ni 1.7573538076001407 7.4838650542916465 9.731338790556068 0.041257463987890236 0.6783120355548704 0.14023825082917785
Ni 6.961348840902045 5.433935706613283 4.791484390764028 -0.33214796189071827 -1.683363203280062 -0.7477256502620026
Ni 7.797514529908556 6.935998629319034 10.955547183592387 -0.7255881949330149 -0.25277132243360334 -1.1587404018529528
Ni 6.214947682804132 6.224143073775258 2.7214164847035134 -0.31598986407361707 2.897800384474687 2.066142614174403
Ni 4.2000949784958665 2.112927558161388 8.486103976159333 -0.4257026926204282 0.614863894402554 0.7390150098618821
Ni 0.4632380835699709 8.377383151422013 11.80266162991325 -0.21438706622845013 0.3682534493640239 -0.3620522056493184
Ni 7.138865537521916 4.772473129552602 9.74511138070056 0.24584682739962818 -0.078461069621381 -0.20041929119444837
Ni 1.5548781926300734 6.979283114072678 2.196961506510374 -2.3184015157479623 -2.271519763594759 -1.4940027410029368
Ni 0.25793304586643795 9.458395922609004 3.225881036952638 -0.20605772042714834 -1.9559186503191284 0.9789295309374754
Ni 8.367144311830051 3.6082825968760446 3.5349188423256703 1.0353960985656363 0.17633911031679309 1.189234713787068
Ni 2.825984942920236 2.3462128569627727 0.1813280790375888 -0.6988824035070544 0.009740367216215485 0.5443742730224237
Ni 4.670699622998835 0.49619149532677514 4.000903431729772 0.5382920713840859 -1.4777451414934937 1.2920883533202006
Ni 7.66606795319974 6.8404019659404 13.238768351626012 -0.4313334085436443 -0.7266269206101744 1.1846573788290309
Ni 1.8888283338255856 7.28729610383596 13.457320528561402 0.5457277017265246 -0.26117960110195665 0.03089231870348228
Ni 1.8740337230230057 0.10032572159235573 1.384291112833224 0.20258261739435432 -0.39870096722060366 -0.8140598547128625
Ni 3.7099722548799225 8.191108939591546 11.361548383707238 -1.1339991903525308 0.07757943834737607 1.7501375805921342
Ni 5.799049558850754 0.8562874776786852 10.277515201423146 0.05895539548828556 -0.38227521756441263 -0.1646966409818583
Ni 8.538195353602951 5.1748716369739025 1.5657132885767993 -2.7102538354778485 1.1219579429172806 -1.1279306155609479
Ni 5.942933670459723 2.6125438009258386 4.431394929965998 -0.557327490748982 0.14334851432338538 -1.9004375865326883
Ni 6.777403755457375 4.883712205738246 7.24643297887299 2.6160560718475008 0.37737186672552425 0.5223792568085713
Ni 1.036302861085239 2.046081630889027 2.4530116866065343 0.6138907318560072 2.131113876839465 -0.3132372410291444
P 5.170539461896322 7.2525828041820475 4.483619533438882 -0.7629437527633377 0.42715382324465784 -0.16423204264061392
Ni 5.807667326478201 8.321297788052032 12.945602145096354 -1.8941810641000154 -0.8569967632857047 -0.6508919916707048
P 1.9501868393330104 6.2040939538463205 11.455607823671247 0.5176826226638503 -0.5180279218184111 0.763036312477144
Ni 4.14794118046511 6.142334838600539 10.546914070661584 -1.112339703101226 -1.0585224001704543 -0.9389961850776474
P -0.270962178868584 8.176966484176988 0.44548920885964677 2.4395621811203982 0.9239601166801314 -0.2778850867820956
P 8.3119067504645 6.451857102261816 8.586299266674084 -1.2099189816092968 -0.8796618089833882 0.488849757592558
P 3.5285612589429998 2.6022956448283336 4.670413606278658 2.1455830169899177 -2.46094758877471 0.8670158380846037
Ni 4.046055875844824 6.6130326481589385 1.6954698511800803 -0.15610144311367954 0.5073560439268616 -0.07449231478162009
Ni 8.404605980619204 9.45420349511457 6.086202892702842 0.6115258311682565 -1.807849847701938 -0.32055280085395116
Ni 2.470727953547457 -0.02139721828103592 7.683223366506964 -0.8803495790790322 1.3503729479937066 1.6013468122072552
Ni 9.3466910211462 3.9490524201291692 10.16466623307964 0.12319852173807169 -0.38629565157771534 1.1470344262699341
Ni 3.5189279922113452 1.8122187087439647 2.629675922969204 -0.7880004386216493 0.8774290629981276 -0.8475849830535015
Ni 2.061342066968766 0.2593538129617739 5.453508753108965 -0.5235632498143434 0.5073395888666294 -1.135328964907548
Ni 7.522817363967708 0.07336468620092897 11.74539213868873 0.7575783746863662 -0.2086437359867697 0.34639932960340986
Ni 4.875700010971106 4.556712177677951 8.625747214445044 -0.1974121289370084 -0.007224028552264978 -0.03950217185968036
Ni 4.61542479561111 4.420905476374925 3.9667323526984735 -0.6030563602446646 1.2575409543626341 -0.013915838750143777
Ni 0.20140514848315524 4.397390616383922 5.752361754622185 -0.20949939911884563 -0.3212356858535887 -0.31829460094739376
Ni 6.524451313454324 2.775722395514746 8.1986925751037 -0.7030177658316666 -1.0452493372106322 0.231014390372486
Ni 7.253309491614416 0.10063689287749816 0.5865466926868128 2.399017684039133 0.7474819096823127 0.8586255571383794
Ni 5.147760605843231 5.8509983937595615 6.222778205713181 -2.913882120527898 0.7276252799677018 -0.3497990993135783
Ni 6.473760206793847 4.138960069121478 2.4456348775174392 -0.6445915033739736 -3.2137092587987235 -0.937929948596662
Ni 8.120750689729404 4.850005088682997 12.045840125950944 -1.2908382829631833 -0.5545815525727288 -0.02910411645480794
Ni 5.303234450347924 3.260562660487703 10.522151730578349 0.12054205795183111 0.09521540626158441 0.6160707702264616
Ni 8.455362302818482 6.490315637144089 6.033856243007341 1.3243978640861838 1.238399605547493 1.7847142901257393
Ni 2.8059451394968424 8.214810129693412 3.257447221034062 1.8268837244049374 3.456531697549731 1.4392462140873472
Ni 3.5562592299228926 4.537222048081605 12.217035573559762 -0.7720218038052059 -0.878583488317545 -0.6453841744785982
Ni 1.8197930277505754 2.5784733401544067 6.466937729784572 -0.4923050631310102 -1.2560756826710175 -0.6001494710105147
Ni 6.724020178694918 2.0322093541352224 12.813867688366253 0.21878570951677806 1.0074484643127746 -0.27198491924757673
Ni 8.35094290869045 2.804352017048958 1.3213627761417723 -0.32037179519139664 -0.8680581633061889 -1.1728979243002575
Ni 1.747552843768709 2.7008456404641583 11.642538849142507 -0.8912970792294714 0.37920069240414694 -0.446758741959779
Ni -0.04135969470842115 1.8944275536570405 4.859417554233279 0.46375193408366583 0.4042892599416586 0.5836417031634787
Ni 3.331880510420794 6.373272378005041 8.313954518382893 0.22122388664462547 0.1448099293602603 0.06360549266578723
P 3.9243170979120094 8.522422509718336 0.42246346540966195 -1.4073694199834084 -1.0715308966149804 0.02753008709946872
Ni 4.9907029553961975 1.0680441954708748 0.7661689195594443 -1.2297064486488694 1.106356746044914 -1.3579960117566032
P 1.2079874252350757 7.66550896286715 5.043784677379056 -0.46909802888692753 -0.4682217969295614 -0.967208128735489
Ni 8.137539032718225 7.427118219028099 2.214483990135999 0.19047143595311714 1.4143679627884287 0.009918544665292597
P 0.9914438868947971 4.413051662202019 1.893200569877003 2.7762028886751478 -1.1393565980097022 0.6212176045347236
P 7.3857902004385245 3.1364015911136596 5.838729487609739 1.9459240010002614 1.6828883205261727 0.6630903335091097
P 6.038548966849444 5.522237546151604 0.8188481685028368 -0.44224876990456735 -0.44419020990165436 -2.845052917569326
Ni 1.638987604673959 6.2787098467417 6.648414872910853 -0.1485367433925442 -0.24544522108583539 -1.3327117832685176
