# total energy = -340861.1696713269 ev
CRYSTAL
PRIMVEC
9.34464206308397 0.00000000000000 0.00000000000000

0.00000000000000 9.34464206308397 0.00000000000000

0.00000000000000 0.00000000000000 13.67682823022131

PRIMCOORD
 96 1
Ni 6.784032467831306 5.159503852891519 4.441385878053133 -0.7432352185908166 0.4881092798821077 -0.45411595365579854
Ni 1.8235881765946265 0.9299694167837776 4.2939629385836415 2.6067527921687046 -3.201350223012738 -1.209797368429768
Ni 0.5755804141517876 2.1879824873039726 3.024849367955955 -0.9921478293999623 1.0705448785526273 -2.031587759017669
Ni 8.909630125841892 1.3372089105833238 13.406847435827197 1.748759726408001 0.39779593890783105 -0.11261071891989638
Ni 4.1575059363783495 5.175417778039308 4.918598050365092 0.04930167444860541 0.027065231647908222 1.413764524876475
Ni 8.083414268022235 1.0896506574915943 8.650169602368049 -0.2902883455424549 -0.13627978040206207 0.12396779580392842
Ni 5.449355955201623 8.368547326175184 11.748778097732416 -1.0933608480058785 0.7473631247162613 -0.7716834466291806
Ni 2.1762643063671985 5.019698665495122 6.521303188622468 -0.6915365046649444 1.533876951490055 0.7156845626660577
Ni 5.900879706943254 0.8213734643894848 9.724169853613304 -0.6483856803090834 -0.10732273104807968 -1.1616552615069025
Ni 1.9201089827317426 7.932666504966377 7.778914439541163 0.9899359093503082 -0.39975074864135673 -0.5811937558436184
Ni 1.531474670945847 7.094498850162561 0.01570367070514312 -1.4451846910589692 -0.4957904505764494 0.7565370779060455
Ni 5.1044265335603 4.6339331587711 10.195528542242014 0.7991921935724108 0.12730457348664528 0.15366018066203857
Ni 3.442257701066026 3.7713946779041994 11.67808307840149 0.4109967538688212 0.8358805501323797 1.9892990255517868
Ni 3.084245780771207 7.637768296032782 12.149235250444315 0.6189138961022115 0.7591045815229056 -0.18718659455425826
Ni 8.480131695047612 4.351724973531396 2.9345689136765567 0.5747441435635328 0.5046106199712407 1.0747519746554393
Ni 7.046635594374555 1.720376606860437 0.7336104566366951 -1.416126340240432 0.7269729910956835 0.12941853450585453
Ni 9.200192420936043 3.845067834607174 9.971118836053458 1.0835284352964887 0.41367481492161656 -0.8901326266077252
Ni 3.8278643488778266 9.139442903974345 10.122713223665032 -2.118994210757796 -0.8555194074092298 0.07608742718288186
Ni 8.998862111300632 6.881198054259201 10.089997632389398 0.941990748929597 -0.22208443487270785 -1.1800916138352193
Ni 7.436344539978418 2.44009158099874 4.400697438312379 -0.09633203636453086 0.18375879981963192 -0.8981051032902403
Ni 6.272703007959406 4.076656094699743 1.820932429367967 0.7126123514986372 -0.6793520467836106 1.3503657489048548
Ni 4.030409461959634 2.861123766235829 3.4931028320828386 -0.1718399368948589 0.37411685012333634 -0.014826266379555109
Ni 4.105474970305016 3.812034525507096 6.9094646615284585 -0.29630781226365743 -2.3181690880221817 0.07380377335502773
Ni 6.0607104619213965 4.607310274011235 7.945799464686108 0.590452298327409 -0.7887630278192868 -0.26106107324622135
P 3.19030746628348 1.721881094205589 5.65188051007126 4.3023737297701965 -3.30501478848294 1.8273195263907756
P 0.7823838805453079 4.800987321934351 4.8443324433659525 -0.797205245049369 0.8905632863872405 -0.46919495947610806
P 4.241719849139283 2.8238012665057837 9.193043769886097 2.0490265233194065 0.7105189593047182 0.6222049081486574
P 8.335523361717001 6.938845150111643 0.1465323950968633 1.020605570520023 -0.7352815109613787 -1.3681086747105728
P 9.159973082218437 7.509382261032507 7.857966372119103 -1.4487328134215438 1.2982196630289191 3.1189499662379507
P 5.998596627242975 3.6119096746761854 5.846378952016979 -0.007848549510141323 1.017072874776416 -0.7981807215887609
P 5.281572909970534 2.7260002444290037 12.864219032390999 0.2896118883007206 0.760722833852619 0.5261991447752937
P 2.339010589616691 5.159971084986287 13.38962806420663 0.3731436875767896 -1.1578736829772833 -0.782969046845329
Ni 4.376049076385004 4.335353160930735 0.5763036894344881 -1.1493427626881365 1.2276917322116856 -1.1859460157334674
Ni 7.011069887320836 8.49417669181633 -0.1316837591251451 -1.908299248668952 1.6643709784482756 1.752258483589879
Ni 6.967383686460055 2.9658772018827526 10.053589973100907 -0.07055467029011074 0.29021686887457115 -0.5666554530181273
Ni 7.3542798948534145 7.0221339433249375 11.649279154223251 -0.565646809247955 -1.2868129638538741 2.3717863591270056
Ni 6.731524925021309 6.509991499608142 1.6378409917839085 -0.5525030727771453 0.9097647990163559 2.0392234211860556
Ni 2.2748128997956063 2.5091671738891996 9.79727298716066 0.4728466972960825 -0.5981555805089376 3.9691747009071454
Ni 6.753503522759183 6.84110954052813 9.455351605745454 -2.1126574699064906 0.37757292699273687 -1.6649345642612292
Ni 8.275044839370267 5.404641843732352 8.135182649658308 1.4310976168382838 -0.85448402416618 0.510447795478308
Ni 0.6133925731171497 9.00383346078896 1.1442373831233073 -2.004884795805186 -2.1767183049421415 2.396058858521125
Ni 4.110035155549949 1.6015407958772148 11.480384096606615 -0.1766180750097926 -0.7186007078715883 -0.44174740478811664
Ni 9.315626782269357 8.945709788199855 4.589971290974405 -1.125723837717616 -1.2730691319052203 -1.5810487240798512
Ni 8.379732862523925 3.382358546516804 12.143163102140713 -1.8859856727734163 -0.6041634772659144 1.2474650581838709
Ni 1.4037147269525612 2.65588739628816 7.9397815153055 -2.538504658524583 1.0281088208756035 -4.3467447996864035
Ni 6.421254780169855 1.895158788871146 7.197895443806279 -0.2802037076129432 -0.12997286434742777 0.19602861832592045
Ni 7.833239515199806 -0.1070849237998141 2.2932480093267613 -0.405745532772211 -0.2949227589906728 0.5177114190192568
Ni 0.23899201986625818 2.0521113941455194 5.302301194622809 -2.9559140007879674 -0.5789782362495384 2.064898971575289
Ni 2.062969868027921 3.1162138006952143 5.053902858224688 -0.16123850722992877 4.390016208780529 -1.7562331519669108
Ni 7.012518306814616 5.242801990746709 13.503966299045617 0.2574643570338985 -1.6326808464338463 -1.1733481244637987
Ni 4.623794222314641 8.19755906877399 8.233682650948861 0.16235925109793328 -0.33324145206521316 0.09101345236509487
Ni 6.8360634339046396 8.626244515723373 7.4287604286161475 0.7519900819653114 0.5162407480110012 -0.12989444570100855
Ni 2.086985597698982 0.7309201342350224 0.2366689418910731 2.3940981352503283 2.552970456240926 -1.345793299042824
Ni 5.387036538401504 8.605415308938628 1.9852187096018141 1.5210312058756386 1.3693312342637645 0.47872629600531097
Ni 2.0937698077150095 7.928536173248631 5.450804374695403 -1.2023275424152842 -1.3562674591012704 -0.6035597822436445
Ni 9.189081641722467 5.4415344899352105 12.220205002246963 1.4915769051702634 1.478483562321415 0.2691950152072654
P 8.168506577121333 3.0251222314993 7.8886167975358665 0.618634931409212 1.6090251546881194 0.34309314804831237
P 8.144509536734061 6.963244010100413 3.7409133905057432 0.5545710110497675 -0.8810705164054566 -0.24543185134939666
P 7.368175377351807 8.958427845819433 10.749617214498677 1.3097672586572022 0.0014575583821329738 -1.0377214042647032
P 4.554569115153855 5.12405962618244 2.8600295086698835 0.3702648233670978 -0.4430031315720886 -1.4965658737444225
P 1.9304254673842138 0.6658608684311859 8.092497259944519 0.18270001953781437 -0.9808653145076075 0.8215723610398239
P 6.231726753248278 1.5212890112799107 2.7095022791627557 -0.3440215733998527 -0.5153346912569641 1.1261776374255832
P 4.011112776445727 6.543510730086778 10.346095953709291 0.49509933804669576 1.8168355961403162 0.47465392570815035
P 1.5929997931848607 7.838257587897611 3.1177967830322872 0.2950155758147951 1.055976236709833 -0.14551106919234294
Ni 6.84014704241291 6.395015025727701 6.5468785390258635 -1.1505439820850893 0.2083758270373637 -0.16361472077158917
Ni 8.923992840435051 1.5504256047096259 10.864078798610683 0.07579175031933398 0.02972040988256817 1.2599973863229266
Ni 6.779902136113559 1.2632180360559073 11.99829779115798 -0.40489681161867047 0.8620512949904767 0.7074169233406269
Ni 4.719016123228302 2.1432590311928066 1.2669979437025782 -1.188332770798089 1.8293512121088233 3.0454040745300004
Ni 5.348097415623562 1.5526963526901971 5.10010276775532 -0.044048139359149946 -0.3818815816704197 -0.3242549322958867
Ni -0.04170420231477729 6.577179474835741 6.123772777752195 0.23040298204073223 -1.2557339830608825 -2.9163053852574095
Ni 6.68883860084333 8.011189530813041 4.604180753440481 -1.3415273246776187 0.9421187898670291 0.5220684104363719
Ni 1.3004190554413135 2.7542958200881373 12.192427119748832 0.6119135535249783 -0.1596395381739251 -0.07177825828456671
Ni 4.039959685976687 1.2894764797818534 7.710626599962481 -0.5346732436845759 -0.649840667588055 -0.048725747340477375
Ni 1.8025907662557652 7.504373532976597 10.00382041036625 1.4625594348919908 0.195663778787334 0.9804110005790083
Ni 3.914704106011355 8.914909848512767 4.815816334158089 1.1396548459764115 0.9484832986324763 0.06574413627534484
Ni 3.200194097408765 9.238066254537914 2.1510234941436566 -1.3373055732867871 0.002840297662272528 0.846432100395981
Ni 1.300194784035825 4.56658632463128 1.6303054725594948 -0.07406628298779501 -1.9602170205841662 -2.4756327015907105
Ni 8.96390380597011 8.5189773714066 12.442111278871755 2.755433003117648 0.7300416027186782 -1.5086562292500534
Ni 0.10491322902333375 0.18521734361525158 6.806478297663947 0.0071589796422844455 -0.42912303115588674 1.0359985080363254
Ni 0.38810447059042885 9.307057745651317 9.662583056737782 1.7129038930516567 -1.4721383368296774 -0.7062146755024095
Ni 4.71433445763873 0.5706828873344324 13.671084005773755 -0.2711860774953652 -3.0224322962251753 -2.957051199716204
Ni -0.1469884136213566 6.517009325671553 1.9531740636142645 1.7084972793435285 0.4887134891250099 1.1609358668423748
Ni 5.14159951902002 6.0473569686529345 12.364345169018616 -1.2061546294708583 -0.004309426008631287 -0.17350961128779796
Ni 3.9389254178041138 5.727751526548022 8.322623083580465 -0.727161967178038 0.9563950972803851 -0.5577036431414782
Ni 2.0492986569350173 5.641846233604029 3.360314536285663 1.241850283100255 1.2991478312701434 1.3350746270737395
Ni 4.763590065069143 7.14997798909528 3.603269618779741 -0.5533109133904213 -0.9589811128400064 0.06671138528462059
Ni 2.251245712935522 5.290123257304783 10.430153810950573 -0.8810080385986375 -0.6159604699008425 1.2007031194379838
Ni 8.44267837033103 4.0871501275482265 5.89915748944194 -0.7671850445381949 0.5449645983082549 1.1470809632371535
P 7.40160116141149 0.4589247081227515 5.504800518959329 0.42036122580285673 0.8617970128878254 1.1067902340379068
P 4.693879036529798 7.744839202869753 0.2086537054888005 0.1654368615819925 -0.8108701441309714 -1.0904236197544253
P 4.543953601960732 7.130195382202815 6.417167433804829 -0.1591389443884227 -0.4131173997562498 -1.4552713858710098
P 8.761517551800525 3.0868249019343246 1.3037943400939156 -0.17023608274284874 -0.5758535745776276 -1.3205890318630547
P 7.430504138793821 5.112444236306514 10.678265266842509 0.0021710395093898095 -1.0873357248577211 0.050649189615435346
P 1.4787148228046758 4.739032346168151 8.623869107753574 -0.4573187768638124 0.16402635438771107 -1.1302494935021115
P 2.506055408138047 2.4954212056611333 1.8656428029804797 0.10799456030412367 -0.4571452274004256 -0.09914945120866796
P 2.0650443785286896 0.4581201344555615 11.815958597246498 -0.14679636366266977 0.09644182246951778 -1.2601513954022878
