# total energy = -340872.24736420077 ev
CRYSTAL
PRIMVEC
9.23000655323598 0.00000000000000 0.00000000000000

0.00000000000000 9.23000655323598 0.00000000000000

0.00000000000000 0.00000000000000 13.50904757402382

PRIMCOORD
 96 1
Ni 3.395359518905594 4.52415242634639 5.912680493181248 0.11773235641717789 -0.32587112774307103 0.05937397108294291
Ni 1.9527833014517377 8.241657641394939 0.6790386757567617 -0.3457035890879659 -0.4071987202789697 -0.9636183545017016
Ni 5.638158862948236 4.880172247320146 3.972402927896609 0.04987965843926248 0.3036241434194126 1.1706188984580936
Ni 2.2339108475270937 6.797272342614967 6.090392274449587 0.9661015259348715 1.3303324844030637 0.188849584078978
Ni 3.384994221307504 -0.16000585928934039 6.0564710765842795 0.06022834866343821 0.8224154257664094 -2.1316404387668966
Ni 8.59436388993974 7.786765987945012 8.800171811803436 -1.549031033522674 -0.5890039959166566 0.8292252495993913
Ni 7.002759983243888 6.884782036762333 7.258465321683964 0.18094806984371414 -0.1548457163297075 -0.7876129733752435
Ni 1.9134265526019996 7.013706771268229 9.396299182783599 -0.05741556180499144 -0.6848966307509238 0.2071823209498948
Ni 9.377409973937212 6.797807683007389 11.141074128758651 0.6137274668052656 0.1977844246747626 -2.0788726601465615
Ni 0.5697009386087525 6.574035398975249 4.403936203224108 -2.691907471760177 -0.835739139458509 -0.7135384628573324
Ni 2.9877808801376 2.0551625364989454 9.45247023495875 -2.532762870944799 0.6753722362002563 2.8829111260676803
Ni 7.537371205130771 4.74702939972224 6.1250426428494 -0.8415583172434475 1.4959938032910365 0.40086635030303863
Ni 7.475797829995546 3.378367076449598 4.1479391965702295 -0.557649135754459 0.7760404380462957 0.21450662252544994
Ni 9.296093614329756 1.57704818602605 8.466160941962936 0.5894120299883526 0.05096672085585416 0.30618856171247916
Ni 8.996598354790287 1.7309308588269015 3.8284240523555533 -0.23059401500561577 -0.9175686113314907 -0.8455149878983502
Ni 8.761565462503764 7.1486956202193115 1.9389539823144106 1.0478656917875566 1.7102307170948674 -0.2028664671833603
Ni 8.351190131685707 2.3029236081156235 12.226295866260406 -1.2207551529928524 0.9708801782704376 1.0743282568544594
Ni 8.139832206753683 9.32978313902524 6.963157716214177 -0.11237006366400003 -0.5269550491047118 -0.9759907600241257
Ni 7.331606664298874 7.219831282363995 12.560401805170596 0.41928701890207143 -0.8494356631089951 -0.23199629466978108
Ni 5.101517039572858 7.347269985780582 11.172117410514355 0.5761883322092269 -0.22494607269121902 1.3813498559911952
Ni 3.0869019227964496 3.245999549420027 0.9543402415614906 -1.6339519998367862 -0.7410574942132075 0.39483299962476515
Ni 3.5263240849067508 7.747575379217059 7.801677986875977 -0.4465736225321664 0.2319235324503167 2.253224821940313
Ni 1.017026755512682 4.969684852935708 6.034275679314353 -2.162322698342102 -1.9435238761992013 0.00736029701981313
Ni 0.9962684702962044 0.33769456554076516 5.301260846991367 0.46271089441366114 0.02348445627518536 0.4733372637792558
P 4.605911826278608 6.157023693292519 2.3936951866540532 0.4527085317853107 0.06578424548466089 -0.5889749424509341
P 3.676597825062141 8.64426130651612 9.964382101206288 -0.9813293986282197 -1.8416603684934796 -0.9625477471453423
P 2.8341566475261932 1.0434614948901795 0.17236483834886174 -0.4805553787942498 -0.3512540865925499 -0.08878841968931807
P 2.054876406289203 0.9826357503029907 7.347908702248783 1.600307058088831 3.0874151288544636 -0.20442198459593827
P 8.32298323100916 3.5472485102450144 8.254298135660818 -0.11700833376695978 0.17622906710149003 -0.012426655799126985
P 0.4326307231319623 2.2435654346042107 10.65512627154355 1.2229544746370165 -0.12314350013042019 -1.2323423436098195
P 5.98244734532255 8.918937077862122 -0.654091813469925 -0.7082833851059802 -0.8809072513547151 0.4127250494138376
P 8.00567405841153 5.46375788510682 3.3981331359387426 0.005760813743177175 -0.2798915756891631 0.6479231388503679
Ni 1.7098126033465542 3.1034605549344487 7.530308403953516 0.2047415727188861 0.9242398527040793 -0.34753961385544013
Ni 3.273246529392922 5.494715327799602 0.643441308662769 0.6694111335208148 0.9522023993552764 0.4687334464586572
Ni 0.863551126010206 0.728118313733684 12.425352038174855 1.706231109017171 -1.150876939944476 -1.7371447678768923
Ni 7.359527434765679 2.261877768027728 9.822266764031266 0.5475760677891731 0.146966827802263 0.6098597563197433
Ni 4.13448923071098 7.801109418459198 -0.12467893139358824 1.4971495141620346 0.6627062106968136 1.4514905786723389
Ni 1.2142166200590707 8.529910752693558 7.724825258540504 -1.0833482009648825 -1.9901266636594046 -0.6711800524957796
Ni 8.801882132057155 2.9059845601783176 6.218862892622601 1.3637192873936257 -1.9644871087144298 -0.682043991793477
Ni 3.9608081933973027 -0.03606255943499324 2.2822317789478603 -1.2729133230536465 -0.4006087257662778 -0.3892094827904007
Ni 5.611862573672227 0.45871749125438593 7.149947209136766 0.4024920588319197 -2.6868678524537404 -0.8016609668278775
Ni 7.201315888791627 9.155806741495054 10.899829441918689 0.6645959715203587 -1.329829062404084 0.9694709566277367
Ni 0.7926849800630863 1.6459963365672183 1.0028466961182514 -0.49137098135251506 0.9129442251856019 0.8457409878662273
Ni 5.503031563895665 5.773027721811363 13.014629821134053 0.22388394997529187 -1.5882688959773743 0.4455341255240585
Ni 5.826487920999375 1.567236688833913 11.974554815726275 2.090576064626419 -0.3621619917543053 0.7789313864408457
Ni 6.571312546979312 6.997037379049039 4.614920312882113 -0.4825261293673755 -1.0734826210247126 0.5478180085966501
Ni 1.3141868233403822 4.834363723741053 12.599416120769318 -0.4340652056525105 0.919536533691139 0.4766956387285274
Ni 0.5664501302258075 9.176546566698 10.091718351547776 1.2600431519591977 0.4466659251356565 1.53249524065118
Ni 8.052054842410108 3.4087984087567245 1.7424646752815527 0.7265937533793938 0.0007440772548761379 -0.27963086582860874
Ni 1.655973973881141 4.194650414811025 9.995087564714364 0.42975012321692435 0.10543785532054101 -0.17197620536240704
Ni -0.026218757219175805 5.37327612878084 8.633389281546583 0.38562973585894234 1.3934402114968258 -1.0555697453000337
Ni 5.368873415553511 9.388485982056274 4.139577733441013 -0.1854503285894419 0.2030587856998245 2.4709898035020603
Ni 5.512686150972782 7.685522043730009 9.00307781953994 1.6333886711341483 0.9114133903633723 -0.37124492789218
Ni 1.220446874626044 -0.07469290675225596 2.5906164580035544 -0.842167668692672 -0.8209151870717991 1.6982684025266688
Ni 6.472791454760245 1.6797689313235955 2.7639246030438898 0.7513457635130931 -0.2776737421022379 -0.4012782410294767
Ni 8.107333352930999 0.1352251371242896 13.295686296157312 -0.33981139197324706 -0.2990426946963172 1.112653377686903
P 6.229423866364129 3.4644830395753146 -0.08147142372112265 1.1018210629580893 -0.273419080590942 -0.95613310186825
P 2.2178875557815156 5.395474295052796 7.810782465549847 1.1416708479651758 -0.36444975934721746 1.5751303017128873
P 3.5615457907253716 5.408820884836266 12.059946223320873 -0.3690260658639903 0.07985615019669472 -1.376465017095068
P 9.094168756312468 7.060475215550973 6.6043975062316305 -0.2538110765520274 -0.07674100160648073 -0.3452467040562054
P 2.0856769388669645 7.89905825025878 4.206785104706135 0.9859869520048891 2.466312195520733 -1.2170905596570716
P 1.7077450818309958 2.8422513634598747 5.135842511734511 0.17310466253989543 0.3308364421681464 1.0166524994095458
P 7.262953873974214 1.372751216269929 5.405510081409344 -0.4169169760079981 -0.34560845827099834 -0.9383390111096227
P 7.045107254285774 0.35731202192097933 8.90586646528095 0.15568775261502862 -0.29225549657115474 -2.330862110108818
Ni 6.4615769965396925 5.075728400668972 9.01095378431327 0.8223125816399579 -1.4127098583597155 -0.23407040358999043
Ni 4.7746917299996 5.82685712127001 7.706195412884239 -0.4098664969191199 -1.401462310470354 -2.612953007442145
Ni 4.053994341705688 1.9395290117359252 7.6595358826813325 0.6597856946159089 1.1880196104330445 -1.6400665973749562
Ni 3.2915404028029083 4.53680676562242 3.3849351492642024 0.0448670357160195 -0.5447056882199135 -0.4873384631543543
Ni 8.51065695857992 4.626956241704828 10.748852375247736 1.4158440331133229 -0.4503032647779277 0.17102386875146675
Ni 2.106592134198462 2.067964555883229 3.1338697352253373 1.2790178932894876 -0.07514100410921253 -0.07044925506049803
Ni 5.095619065249457 1.0326162369402634 9.881179128215887 0.7518031627654859 0.19917924813976018 -1.8191511316473705
Ni 4.299595591739149 2.233883157506796 5.318796013845197 -0.3733357489829377 0.07913521287027016 -0.4866964586949812
Ni 5.649816361493551 3.8660252539184197 1.8495106017495924 -1.446254012863748 -0.058908601410750154 0.6143051936856067
Ni 0.7903322513384621 3.9757238843309746 3.5293469121225782 -1.4098127393175783 1.773718196125552 0.16136166307135433
Ni 6.244736447588733 8.118658571232741 2.434181688331935 0.40338037497414403 -0.22228395247802366 -1.1203620591850705
Ni 7.948992586862224 4.804661561968432 13.247607190913811 0.6425731873923642 0.25003541155967907 -0.7732659606249521
Ni 4.82647206795622 1.7864585795304717 0.770523733818194 1.0650810272245788 -1.4368242349094158 0.3739556419551237
Ni 1.715738267690253 6.049494114469947 2.179820238876972 -0.8410245562271644 0.12172425118539036 0.714873122508356
Ni 4.4196502897430285 3.124661880475689 12.262919610106763 -1.8242195473092129 2.799729768152494 -0.464724068188948
Ni 7.927957401442769 8.667419393491727 4.318855846857524 1.1531569942279045 1.8219528627622237 -0.5119279795682603
Ni 4.077909289236099 5.361517100161101 9.833614134349245 -1.2167285483319625 1.1398584773467852 1.2854700766727345
Ni 2.7030905514506114 7.483726405807442 11.641813994816763 -1.4478660945458741 -0.19761421764548548 -0.20644158612912833
Ni 6.950988875294033 5.94228758588418 1.577586295420501 -1.9591577260817161 -0.7152348767231489 0.11371320795545577
Ni 4.005869086428358 7.058684594238391 4.37375685010169 1.1783229519705705 -0.2929748912356825 -0.31180642211988885
Ni 6.547951399854855 3.879270313627466 11.226397234303176 -2.7338195386129307 0.3929866904446458 0.8961101843473985
Ni 2.157006431153732 2.7754538044951578 11.940944669088978 -0.832915553966785 0.0385511208003207 0.2349517777536792
Ni 6.640251467513714 2.423873616775794 7.4830664603236805 -0.20359794603274617 1.461475972019825 -0.9840989909535568
Ni 3.3617161442439394 0.8209241857633146 11.508263180919807 -0.04619218228534626 -0.448142509681183 1.486147763734892
P 7.387282065110699 6.5324357584814 10.181080508053055 -0.2380430150844933 0.7860399724611687 1.2926316274181802
P 4.324618140081466 2.016322668028097 3.1547812385541283 0.30649503720930443 0.1377915890608982 -0.8917858459404319
P 0.3078548766673323 7.254166907533091 13.068571826675244 0.11632030656099968 0.6464331845684028 2.6641513846928313
P 4.767796914945483 3.44167569285681 9.56501355345655 0.9465706549907956 -1.7344050003482259 -0.0946577339859015
P 8.102939869710436 0.3933921183688277 1.9257550726391937 0.7188017681388007 -0.23495743418063406 1.3569431450120566
P 5.1890728837540525 7.625037809393157 6.349252429202243 -0.049188031688876574 0.06780127591468968 -0.9739125373388581
P 5.515612063117568 3.9241373765164376 6.051878225217575 -0.3590838670496138 0.43992912063245526 0.38020522240926136
P 0.9976714313246191 3.956728530406781 1.3539312324742874 0.24674182841007183 0.48118324218623587 -0.8736364287249148
