# total energy = -340890.40080356086 ev
CRYSTAL
PRIMVEC
9.07733394878124 0.00000000000000 0.00000000000000
0.00000000000000 9.07733394878124 0.00000000000000
0.00000000000000 0.00000000000000 13.28559578501996
PRIMCOORD
 96 1
Ni 6.31705278587753 2.2552000535723056 11.506574532706162 1.2853196671377993 -1.4206951905580372 0.07388939109029855
Ni 4.436955398968275 0.37730845878848046 6.145584672660556 1.001990783632313 -0.6189745741368179 -0.24992279724121474
Ni 2.703275407051519 1.5523511709390656 4.929673080319349 0.18247581934215026 0.9004252667829847 -0.4699716897411325
Ni 3.3246824503870096 4.455209917339627 5.0896583662167005 0.9682319420143131 -1.917154899287369 -1.1319060552689282
Ni 5.238266121867085 4.67840340203123 2.778284139850125 -0.6021896413689952 -1.8050686854123752 -1.397874850229412
Ni 7.041015547044716 6.105805072531874 2.652575774301885 1.794113471952452 1.2506298290650977 -0.779431980226348
Ni 5.191172913855858 4.546455277194841 11.246854764337542 0.7028223619914089 0.6042238981902046 0.2189104080201004
Ni 5.645475318355831 7.825896295675923 12.68110074456071 -0.29505697057569186 1.1430325041993927 -0.543150942138284
Ni 1.8484991877791312 6.724770313061849 -0.025548156119428823 0.3374611465735156 0.18311885224278784 0.46800196760927143
Ni 2.9114640588898917 1.668686281554308 0.45646008675599997 -0.42254897748279485 -0.09572191358435772 -0.44955635930957416
Ni 0.5563225596345476 0.2608780361678183 4.810169072457245 0.05893791198678882 -0.4414676687641687 -0.07775375914171125
Ni 8.740392294344197 2.410259070389532 1.3338470369141167 -0.15212626051601544 0.039104936421261685 0.8063853688867402
Ni 6.954844416811375 0.5047932585710686 4.909240001824115 -0.4369576967089572 0.6927539220118134 0.03747537123763869
Ni 1.1196891303363101 7.367990189637697 2.530108924671302 0.6918802611576084 0.9629131009045612 -0.7833333721632832
Ni 7.707518784944543 3.9503921499671653 3.637874976996289 0.1849967859917911 0.07973993633380459 0.3175782916066595
Ni 7.68741249046789 3.8791078472470106 12.694718560801737 -0.1359715051330239 0.28117018529127064 -0.2943771708998479
Ni 8.079961792789689 9.159029854149468 7.100472991492351 -0.4865913005756846 -0.33657077354876225 -1.227046385318203
Ni 6.737596585791198 0.7702326549982627 0.3879316625925549 -0.4663086390672485 0.042944107661693785 0.1309920496405615
Ni 1.8882125233707112 5.88902926287187 9.315687389457592 -0.4349537789050509 1.247179151512336 -0.4483075745041376
Ni 9.040488951408797 4.909748332519688 1.338377534238404 0.24035058017174732 -0.2414777517976551 0.6470191389788599
Ni 6.396216214379054 2.105414967721641 7.174912575458594 0.5057912705429031 -0.4831200541976325 -0.3565487593325859
Ni 3.371866431736731 4.635576540929271 0.42438805079893266 -0.18019525083808968 0.49263853521102896 1.1257765453324222
Ni 5.973956798367829 5.7808183660519346 4.679903885316554 0.6367905192723162 -0.0386544791474044 2.3781482967892913
Ni 5.301271896116491 2.755533618023113 9.271671397621349 0.610423085022381 0.27834094337259163 -0.4493779247501809
P 0.15333886205274522 5.564142407064276 12.52257690941313 0.4451996250027752 0.044212432851156114 -0.5647680061874274
P 4.321373707062541 6.158753160876031 12.35842058861193 -0.7591642311162474 -0.022535976318986996 1.728720548368939
P 2.4102863023910803 8.625736490491112 1.150523017956305 0.33446221184619174 -0.6767963702412925 0.13268049308657795
P 6.4156870954862395 7.837106802980061 6.223690591768611 -0.020875300787112437 -0.3205270898223383 -0.9916366940914985
P 4.649101768365032 1.1108478071668932 12.666101358107792 2.2583544298573943 0.14389255975231346 0.5736056590837153
P 3.8237633427665854 6.125620892325341 8.280964827152793 0.483438870989632 -1.2222767318437013 -1.551929438116392
P 4.878967093436019 1.1200613010241398 3.8073996330360846 -0.8361484590817858 -0.7920962059575778 0.4045828799226774
P 0.20036943646041 5.764669789133667 3.4456061532631765 -1.0113837948114388 -1.0940987546131673 0.7082944408495736
Ni 1.570696462648913 1.0387283897325847 2.55695877046475 -0.04229259012062394 0.1326252143686103 0.0574754685086494
Ni 1.9699448373516444 6.452150745559697 4.75836926684505 -0.25847994278260644 1.21951073906279 -0.5301113353455064
Ni 5.9629913790776286 5.590003731201513 9.08423897736325 0.18870894473605565 -0.35473587449356325 0.37117345122429624
Ni 8.690521422175022 2.365734747857715 10.265075751709974 0.13381897756639535 -0.8262111453634159 0.6980149133004365
Ni 2.2462588797305445 5.445229333635774 6.788567630822931 -0.5127785004940136 0.0805295221146355 2.5007323248718154
Ni 0.5766203858554233 -0.19024730148482819 8.94380989951127 -0.12117300666761067 0.5038745131361645 0.7541564934890108
Ni 1.1457592331520854 0.8919578864533405 11.590061495320205 0.5415743416797834 0.36665345186675563 -1.4049677525204514
Ni 3.8551981498874173 6.812421048712658 1.685942293202215 0.023070251555902203 0.08258794730556099 -0.14686269812423094
Ni 5.3349851140335485 7.739234989414709 8.317766154045453 0.9774184936095877 1.7033946680096406 -0.8340278131943571
Ni 5.272124577125734 2.8103334824725685 5.255808069531251 -1.188321200833863 -1.1585704519339917 -2.767333096989344
Ni 0.5995106986237174 7.3913007829632225 6.967962979690679 0.38927581725196186 -0.5584418068590834 -0.21841701332344965
Ni 5.081264555606064 4.61108589420331 6.884900836300792 -0.9339727637211269 0.4622324121153459 1.5416362837204995
Ni 7.981463643188722 7.2983670390120015 9.172123000493993 -0.270423745408044 -0.39021092747172154 -0.5530049521142283
Ni 4.839117597836697 0.5047251785671973 10.489721609817497 -0.09059127722601173 -1.36750317991609 -0.41696634118869486
Ni 8.296528823771153 7.316440010706364 4.786946529270058 -0.618788940488573 -0.4348691896110446 0.2557046940303145
Ni 7.488546260492959 5.967393885994638 6.900338657978644 -1.3878791724692807 0.8691254282284387 -0.08655438815247675
Ni 2.3116156834469725 5.062665098548432 2.703326240121076 -0.4799105461213993 -0.07246782815242357 -0.2949330434033179
Ni 2.6566814524020153 4.908177953763723 11.526157972753083 -1.4157712708938586 0.20189304752649748 -0.16088780875872938
Ni 1.0534155159010818 3.009099861775156 3.813776460065361 0.3423994644153974 1.1622399303657789 0.0022862249310154174
Ni 3.7294679987379387 2.850709463435162 2.874112645565953 0.14891572399851774 -0.7451422058055425 0.3310683556732944
Ni 1.3632612295200492 3.5811171316354953 8.321830984143261 -0.5497861880666145 -0.6154853300366367 0.07273085200582313
Ni 3.652238042346359 2.540872827150044 6.900352273979418 -0.8014892171367035 0.5160273464486145 1.7292442820828926
Ni 4.261454226321966 6.965837068103124 6.143697494953243 -0.3679624004861663 -0.07621649656157842 -0.43622313253577777
Ni 0.6485972891482948 7.189820280839633 10.956670555836599 0.4746025036449245 -0.21889883805587462 0.3408300630457485
P -0.005773184328284501 5.5078901691989 8.275969570335413 1.4859019662726731 1.4455922109100328 -0.4238939215464635
P 8.931815110562535 1.7988370942884955 8.160996059797595 -1.323504919958269 0.3167542530434674 -0.19374959248375662
P 1.833775752275236 3.03556028994646 10.513742050650055 0.3909580900503912 -0.16404383788920782 0.39970883965982773
P 3.984559234576698 6.015594528735504 3.7879886623323054 -0.39347957092066427 2.438613444053884 0.26217358958410975
P 6.988457784056088 3.894938717480546 10.273644754863906 -0.2635771547998558 0.8729787405362578 0.8879402469420966
P 6.267690244403927 7.955974489739314 10.29955146567039 0.6868462982781267 -0.7597337304664722 1.0436190006960606
P 2.423049033783483 8.429139593978556 5.818320463117775 -0.7176319162004157 -0.2646845289314216 0.9210591409832525
P 6.930453620757758 3.8923425999995875 1.5859282288483807 -0.2782229297374886 0.36132149813088094 -1.3046672184264758
Ni 5.170866918034517 3.320906279505616 0.03962528545323952 0.6302293211150307 -1.3270299023923922 1.4360215365024622
Ni 1.4448301514916917 0.992352291095469 7.002970625414675 0.7804961598248041 0.9826355190341529 -0.22812627019141357
Ni 7.1792724189065105 0.8666520951476934 9.206359980574167 -1.2224130003112494 -1.068108758307309 0.6950033801676224
Ni 2.760480764971093 1.3900302870422363 9.227217878293558 -0.1797098265612389 0.34226139617563633 0.0870369842158501
Ni 6.542715305376198 1.9225157679879867 2.6127317251028717 -0.793352446962182 0.08926407377415595 -0.17046388248293867
Ni 4.120746474320805 6.796572023811424 10.322881121397 -0.25291504710031926 1.721474665439803 0.5145942135465137
Ni 8.449345739127553 7.273413448259715 0.5318355438421257 -0.5582052653682451 -0.6364375068082716 -0.08317261616443741
Ni 7.613559302268327 3.970743532457753 8.269020871273616 0.41037866066884804 -1.857898684729213 -1.1002999983278727
Ni 3.103867227163977 8.754616476486369 12.220928028260264 0.21196097328546076 -1.2979908348475644 -0.15419934099496024
Ni 0.03154464286041112 4.584071748667185 10.327039448033458 0.413133854816482 1.911479446169147 1.1458748587441943
Ni 8.461382283811995 2.606329481538817 5.598616305557922 0.21580991471790578 -0.7479123123515119 1.1983636726715299
Ni 3.940379850731162 2.580931101427905 11.225225293240943 -2.2933815966648567 0.13716244011733153 0.6992400439567893
Ni 0.9858256880576757 3.232783522494632 12.718526592022217 0.6725424800609449 0.32954060617485825 -0.48604031316822105
Ni 2.9255339263566227 8.176281382266774 8.099284713355129 0.08283683009157347 0.00629226076661497 -0.9092078980716212
Ni 5.515487897630934 7.943565774367042 3.7297312414195742 -0.0250955095160471 0.19818243144412967 -0.548535860599281
Ni 3.062737827491875 8.538557776200477 3.821229858889189 0.8151690286166413 -0.45927152971480906 -1.3044085654484505
Ni 3.5808448116200107 4.305996703521482 9.449260357053042 0.14145541106573056 -0.8034062316537582 -1.3529707906278698
Ni 7.365639160170676 6.197676768422704 11.484653679192995 -0.5798503544418465 -0.7192733084585806 -0.3947576663021395
Ni 0.45071504216264885 0.27257871949982887 0.5127486339567738 -0.10002002673907935 -0.44156382802240085 -0.0017149258085776915
Ni 4.490048724654024 0.1301362890000282 1.7012602940732529 0.9993654301943241 0.5496038968524792 -0.27074050531751437
Ni 6.058920643199187 5.6533544441372 0.37348690123783934 0.1573563985667032 0.039661580255680076 0.314778103153703
Ni 7.964625188897891 8.555659473172941 11.657764789836731 -0.39478594843691367 1.2996108869494907 -0.18093058634221745
Ni 0.07481810878776626 5.033490547556125 5.498243686517031 0.13603578271205605 -0.5951049666080719 0.014378637319175238
Ni 8.183906342700359 8.693898190367038 2.745627523593149 -0.20691698310365012 0.21783337290583776 -0.3451461739225991
P 8.443981034822496 1.6020041870958521 3.535522591442822 0.7765374322873723 0.5274692697369691 0.2228483096219259
P 2.089429782812665 3.2590805586566445 1.5467622564879262 -2.2289214693082577 -0.115207276002479 0.25073063785449073
P 4.77830853837887 0.9280756901071316 8.263905793649421 -0.07518548419390278 0.2997204374896322 -0.5793896127553441
P 8.331912271116519 1.5815892632683177 12.444470990305073 0.1199090523535225 0.5242008833983424 -0.03532232945037787
P 6.583427147691223 7.9207181250678405 1.5234988652984174 -1.6967141706656714 -0.28138101575049607 -0.291154293087176
P 1.612252497011942 3.3905112754636124 6.101768382169 0.5042342104684284 -0.8170317928569928 -0.9086324851841254
P 6.778735062797149 4.051395643710595 5.84687140127462 2.9536995096351517 0.7046123640122961 0.17950105298454247
P 2.2751701880412143 8.452958517999654 10.102127624044146 0.3362933515176595 -0.30120910622001673 2.2047217321336032
