# total energy = -340891.2980763584 ev
CRYSTAL
PRIMVEC
9.08414988675067 0.00000000000000 0.00000000000000

0.00000000000000 9.08414988675067 0.00000000000000

0.00000000000000 0.00000000000000 13.29557159920538

PRIMCOORD
 96 1
Ni 6.339074057673066 2.101599853678756 11.649021152746371 0.12609101279451834 0.10016040897168556 -0.14488294869004079
Ni 4.191508406755456 0.6917107584176139 6.299826897516792 0.5824181151690228 -1.1384029758471814 0.17481341770088604
Ni 2.694849330848841 1.5327867390724097 4.669019458454973 -0.4585279666805651 0.1610906687981548 1.3302023865831027
Ni 3.5542916452699447 4.519736901979623 5.0468928315270345 0.020505576152519522 -0.8840190575108196 -0.11964808538265201
Ni 5.094972510389897 4.701528904814398 2.4459327294058966 0.5267799569794283 0.3480854590565811 -0.239396186678278
Ni 7.274650630327143 6.1683738015633205 2.6457522272249605 0.5793651872753119 -0.2999636638486899 -1.1196046121937555
Ni 5.434819633018906 4.487470002415906 11.50104126333111 -0.20781326966567437 0.21763694062431552 -0.07824021185982655
Ni 5.598443336549785 8.002463616291525 12.247016189694634 -0.7781310020267374 -0.02072874790691914 0.8650723412049877
Ni 2.0996195090546315 6.5073760982746975 0.3689827158077002 -0.3876557651500356 0.8270110155568917 0.6414218473967405
Ni 2.7633983241224374 1.7421673044001484 0.3780278036161443 0.09864140122399785 -0.8657058610239285 1.34357340857337
Ni 0.5339236210381114 -0.054078851293008816 4.647041266787052 0.9414029947469271 1.4630803403924673 1.2022136425452392
Ni 8.671411312511289 2.3105171273742453 1.4421178413963216 -0.5690092979622846 0.4194970780303486 0.9652453485821635
Ni 6.684789540977233 0.40514399032720766 4.827555129765796 -0.19115432095275467 1.6206943634959314 -0.052792461210683275
Ni 0.9182894358664194 7.855309476079628 2.769028680076714 -0.31552629417363726 -1.211066979170811 -1.024764072773087
Ni 7.835506029838382 3.7919511684641956 3.5432162500142903 -0.8332593104594488 -0.0414451545186641 0.31233555515048145
Ni 7.708800310493018 3.80302474688992 12.764160477910634 0.4627916270529255 0.22735519635334392 -0.4793325621307422
Ni 7.925466363841618 8.8132512251768 6.878317356747358 1.1540435105979157 -0.2405174447669148 -0.05276675017907041
Ni 6.995531048121403 0.7884515017210639 0.28971805960466684 -0.5797670506994208 -0.09969323952727993 1.0011939987626306
Ni 1.5835307990281888 6.525226452340775 9.19562942806126 1.8294473713670558 0.7553906230064281 0.30716506669313554
Ni 9.281457382387826 4.81227377322129 1.455333462309975 -1.0614881676669976 0.0514698857445178 -0.13388916868269846
Ni 6.45188102805095 1.7354450336577072 6.904735880765152 -0.2986755411648856 0.35018065102271306 0.975985874928119
Ni 3.2772341650351966 4.484653916023802 0.49785227960015815 1.3273096384163399 -0.7347724325354441 -0.009017887227894145
Ni 5.911519470154504 5.574670116910639 4.734061061547952 0.6087611239389258 -1.3646741951077273 0.47404046049386755
Ni 5.3895805677522075 2.928893362481617 9.371396822846862 0.2169347723509683 0.621800216511071 0.0018481089523323007
P 0.3203834235847461 5.450108256883134 12.499379317515526 -0.03538275037466809 0.10226382846793354 0.5016235123184587
P 4.095434440036459 6.105902104406877 12.475925859944129 0.7578321425683853 0.8457893246056594 0.10773102223009187
P 2.409252749941263 8.610565678142546 1.3490089411237203 1.2570573298579963 -0.21248984920573727 0.5216945720367209
P 6.228229263620002 7.685099764051087 6.030086699826688 -0.026721218044928174 0.026685993931618555 -1.9505386169541374
P 4.4218642736295415 1.0085949675564299 12.52465414709214 1.6587734297558399 0.4592864421131445 0.2424102909142535
P 3.9489706951981085 5.890099045275211 7.923881179727354 -0.2303533597497194 1.4665302466142807 0.5686727405584723
P 4.515503688241816 0.9686065407885568 3.664711301119297 0.6353131633958413 -0.3761346518843135 -0.02260745298687074
P 0.25689702691218047 5.729763803918338 3.574593811327082 -1.4789227067413626 0.311398902268825 0.34522922055470867
Ni 1.689043197235559 1.2951181317285068 2.6942806630806295 -1.0050861347281852 -0.46109547029742526 -1.4816496187542225
Ni 1.914121173161863 6.257389384002754 4.949608856074398 -0.33366388431461247 1.5115880581848677 -0.7756131207008901
Ni 5.984328929614863 5.70645387591144 9.159717967657182 0.40923297710017914 -0.12213305658803482 -0.11915134825189157
Ni 8.687581098891757 2.3012785471782147 10.467642933565003 0.5331760903137591 0.721225547088945 -0.9100710174028649
Ni 2.082732074851661 5.030402374663854 6.948890298563408 1.0610078855964695 0.8344286481772016 0.9836716736081511
Ni 0.4722549627109004 8.863195879963206 9.173824743651691 0.0011906778739914977 1.0089913833198623 0.24809988509986303
Ni 1.5423250962069546 1.0770622034831583 11.689346601466331 -0.07401511803488542 0.06768377650021891 -1.1108482061573643
Ni 4.39093274406466 6.993768723088924 1.5725998417520004 -0.5620007278549354 0.1655970413089406 -0.551880865812114
Ni 5.7559352390655985 8.400848999277684 7.951376175478903 -0.5552297276796889 -0.967150021804044 1.3717634978543407
Ni 5.019247038891263 2.655315111563566 4.895748024373035 0.813657219957805 0.5897092495137973 0.9163329391521767
Ni 0.7743447257265547 7.308443667032386 6.889113868608698 -0.5169249185622194 0.15306985537620732 -0.18796692436370854
Ni 5.127884384578902 4.293514323197175 7.1297502676438915 0.9187109524660501 -0.041420471928315765 -0.3582965952616281
Ni 8.194066500750402 7.06310803738224 8.764241329389577 -1.5863320839659776 0.6811093957943496 1.2882034164434975
Ni 4.905386307153751 0.6262440171209237 10.386394299077985 -1.3997476417720927 -1.8718590035640472 2.0422298121125473
Ni 8.073774191059314 7.431343127673585 4.635514389293695 -0.5214343763967987 -1.7968583816874408 0.4020305458144689
Ni 7.186661556798378 5.970566442892164 6.756290882887712 0.7552697811578476 -0.846878186794464 0.8800104505720586
Ni 2.16850461586535 5.55929065154989 2.64612467736069 1.4140972256255453 -0.3587100286499629 -0.6445472803995996
Ni 2.3430747197268254 5.312828587342902 11.534333763390533 -0.7172681051030938 -0.7027331447117123 -0.5418003416476604
Ni 1.1296412616686307 3.4992689508280983 3.8162539940280507 0.7588911799605189 -0.36369051258368973 0.4763783645984247
Ni 3.740580302182433 2.956263905382935 2.6748823699138606 -0.8842466001405933 -1.2936906648103141 0.8200926911705038
Ni 1.1526877493356216 3.239153409694233 8.269938227058434 -1.423104571330478 -0.48963445827738256 0.8404013208208688
Ni 3.364469254142849 2.765006218610832 7.433420672698985 1.6684960563602427 -0.3011623121424814 0.987990355588163
Ni 4.155707772977131 6.981941160242088 5.81508395427936 -0.20052342087248046 0.023514023961540148 0.9230373477555458
Ni 0.7747344357466232 7.458377557037781 11.761887170096992 0.9149442863347662 0.1575165782936513 -1.7523839534241499
P 0.18865053582199426 5.465696657685876 7.961693952653586 -0.5291942228478758 -1.4659214093856883 -1.04387739656377
P 8.545968289967547 1.4788541425887973 7.97440449484659 0.3918191524991058 0.6641380580473337 0.9008680107473581
P 1.9023662835122428 3.2601287112405797 10.432742539017186 -0.39103959402060395 0.044453859438000856 -0.0004507143841734173
P 4.041356497158415 6.1330546277165485 3.647719399195329 -0.06167510841229379 0.46646573347040304 0.585733809805817
P 7.2977607070416965 4.1103324454656525 10.377432785446338 -1.6882986929084665 -0.37897469243626986 -0.05649099310819304
P 6.483112334554346 7.86381224015385 10.278181183179091 -0.017361374096583 -0.15838843937564334 -1.7125261979972637
P 2.39454551165476 8.35581886945298 5.856486783148041 0.11357462549506245 -0.15371623071095464 -1.3200066769970233
P 6.897831018614706 4.033017247777927 1.4843309764139567 0.7298022330143624 -0.11940100236885243 0.4576944150356763
Ni 5.178392256643731 2.797936261099142 0.6889246497193616 0.37014372440820126 0.3199377929777716 -1.4270836105828841
Ni 1.5358844341037239 0.8285316784004216 6.987061895400892 -0.6643763993103848 1.374540803489162 0.4415851681786395
Ni 6.868352952994137 0.9947416393372099 9.377233388998238 1.9621692592145301 -0.6426798881735577 -0.5535973342825885
Ni 2.5554348861404024 1.3773387702282838 9.379280956329788 0.13854415095620656 -0.14651379942524442 -0.05822545930079649
Ni 6.123707037724694 1.9862220689493706 2.72038033344564 1.7928065802155706 0.41589984759739346 0.089250189817085
Ni 4.141418405574617 6.996148770297735 10.043740174206524 -0.21751892698921246 0.568200428907744 0.6317676121364281
Ni 8.771963765008696 7.161180517024666 0.4921065549453013 -1.9511662232358074 -0.8199579653648524 0.9059258848862398
Ni 7.722108589733121 3.836118304071965 8.15058431002639 -0.1662218193771331 -0.3833705075111204 -0.1055656391476569
Ni 3.009596947989519 8.40008593070692 12.400181311731224 0.9407298799393025 -0.7127028543299145 0.05243816319505808
Ni 0.2109575737073166 4.979785492803202 10.214654816248055 -0.2630364518050373 -1.4383956931615935 0.4397339739025136
Ni 8.765268746715211 2.107150269116096 5.784942745734197 -0.030162896736625474 0.7875430393692566 -0.23707448052363686
Ni 3.6708140328554757 2.8319382332463814 11.6563466110257 -0.12385518148546411 0.526765558801725 -0.4973835060951821
Ni 1.0926506042859003 3.230141933239501 12.976983027541495 -0.002919487639640133 1.096557500566305 -1.4238555905638897
Ni 2.9544652437518493 8.235780915952146 8.036813511370434 1.27568780047499 -0.5742204098495788 0.1319330733975921
Ni 5.72907340854479 7.722962499800404 3.7145433124500205 -0.9066144263128322 0.3186463278598577 -0.7802328788610885
Ni 3.309655495142998 8.252904538046067 3.6488494674120315 -0.9556183670153607 0.04548255781283135 -0.18611958674232465
Ni 3.642471485941399 4.586260129880835 9.621832294111613 -0.4016500225465986 -0.673198368477389 -0.43972831747555885
Ni 7.420278633397512 6.1926012286850645 11.416361545520552 0.38511834344016255 -0.32274338074736675 -0.037804729552599406
Ni 0.5012515683999169 0.19685624820259845 0.6327246494826231 0.04859333552767115 0.2975059463368167 -0.25171588458589556
Ni 4.763246617549729 0.4667363417973423 1.380718073898808 -0.6557853152072641 -1.2404803993359217 0.1144660269610803
Ni 6.154611314840619 5.760922437224518 0.2253759360348877 -0.1153754261492271 0.19418205203548494 0.2541908284889493
Ni 7.943398475254563 8.772454309089902 11.710061187917667 -0.05000641382511388 0.17804683703651916 -1.028219378311539
Ni 9.105951611112198 4.767761439926747 5.626765898334626 -0.8179771874893977 -0.20023751420094546 0.5112134699997389
Ni 7.68250169725063 8.878075717093097 2.5177556502140543 0.5301658427325256 -0.42251940979644004 -0.030963538261049896
P 8.28875059257265 1.5333408722011785 3.603113499159371 0.6582299200930147 0.7630658801634987 0.10086489123787791
P 1.889575800802301 3.377695776036085 1.743261944433208 -0.8730443036668707 -0.5801660859100525 -0.034658984834766114
P 4.5987235832033075 1.0928232031292873 8.433766323956482 -0.45693825359594215 1.2064695896081157 -2.3381774128233084
P 8.702806133708421 1.6031707305756993 12.497159151340592 -0.9849646813879617 0.6172064264928016 0.5849164561108443
P 6.50118070821207 7.7978340612317565 1.0547896853665133 -0.10484778714502586 -0.21207024516981543 0.4006228668336649
P 1.847861385600558 3.0321710598746088 6.123647990751957 -1.6244492025526733 -0.08729717985577223 -2.5069232841738764
P 6.870296961019654 3.6140653499797595 5.93850666194051 0.502921919414908 1.3059489133523765 -1.2475861571427675
P 2.360407277262741 8.390111534389082 10.234678098910878 -0.5863871271190998 0.3586871458318274 0.5140375697120955
