# total energy = -340862.26830401114 ev
CRYSTAL
PRIMVEC
9.29878424721675 0.00000000000000 0.00000000000000
0.00000000000000 9.29878424721675 0.00000000000000
0.00000000000000 0.00000000000000 13.60971068131767
PRIMCOORD
 96 1
Ni 3.4996347254669016 2.8900901055370456 9.855322285845057 -1.3365684380104466 -0.6069037590152129 1.103189661170842
Ni 9.137961979652006 2.0117083281756933 3.9189838678735875 0.5383481214330019 -0.0017087551609906053 -0.09867816799920424
Ni 6.203814233358486 5.18395145048642 6.876755176079692 -0.1566352041299625 -1.0860794838531165 1.416130196895174
Ni 4.451523393959518 0.08238909004443115 9.03820926939133 0.003881851552909443 -0.2884772604756451 0.282032790401882
Ni 7.55860063479676 5.259094927682087 8.783544389350492 0.3485307741241159 0.28687674875774466 0.5603832468561704
Ni 4.352816796950236 4.180556814887407 3.419589858984038 -0.3995440319471893 0.806768720368088 0.25230646698204284
Ni 2.719308630202852 7.307645039875753 1.5644088994486587 0.6498964605266548 -1.1784535640111642 0.9108719160376054
Ni 0.6873745159551015 6.0518813941182925 8.117824882638464 0.43482316686445754 -1.54819516788494 -1.3720442623195532
Ni 8.257227609823074 6.587435586125129 10.827246115328366 -1.3284532651024796 -0.47645729746547627 1.4223293837273503
Ni 5.394801388045107 2.066943107849281 8.554302386014637 1.5565453396218485 1.0258449645420913 0.0671250757832715
Ni 8.25718111590079 2.1905983435562453 6.173433244781121 -0.0951560137785587 0.7211335015957709 -0.2096564935220002
Ni 6.724071924933832 7.251257210929518 12.592235374781584 0.02689116796388917 1.8966030432779468 -0.10046817002009148
Ni 4.81758864167166 7.488664476896919 11.035882942186326 -0.38748350123822944 0.9504792460165825 0.7442677736203892
Ni 7.6190427337661735 0.22625709352521323 3.1975878892262712 2.853864088103053 -3.692107224930338 0.6107917812157094
Ni 8.842093255804496 1.4039025809392656 12.504385108625655 0.41892783579043985 0.7741496487814861 0.06554307600813228
Ni 3.1696301638783573 5.062871978073999 5.664130451174371 -0.6065448330138973 -0.15209977815345416 -0.5793276491691571
Ni 5.895661815243499 8.013171712969038 7.092932387253698 -0.7274589295931665 0.3249923246825435 -1.1670417226297964
Ni 8.880534430749044 4.480507705111466 2.724146787755742 0.8683679812371238 0.25748903962424685 0.18257917768923396
Ni 1.1001391890879042 9.17664492299243 11.527139584797702 1.0224583074580456 -0.5430545257697357 -0.3486534157449092
Ni 6.255171419913575 6.7798460341059155 5.112011404536133 0.31492979824021894 2.2225487330126947 -1.3192332891661087
Ni 8.136706064478062 4.632989172634613 5.343662722924754 -0.0028336127940531844 -2.142249324630994 -1.5087729573335757
Ni 6.2159119519368256 7.511781255056606 9.192651850556423 2.3638933295321745 0.07191735496559228 2.192820609820643
Ni 4.918108501650024 2.785357896199736 1.6415897403188178 1.9320883806687497 -1.7746617909857438 0.1953886707490764
Ni 7.137635363651477 9.205973289169282 0.8313141200762012 0.2293053781011793 -1.6087459328848035 -0.1643549413717234
P 2.0814771079553105 4.365704912207407 8.750186859868496 0.6428333830322864 -0.593363815547249 -0.8149844234096609
P 6.615936360485322 0.5551755570891991 6.348454035949185 -1.7192038671277552 0.7833783664686057 -2.655217829648627
P 0.5804291959170659 9.047968343678777 3.9016862690269867 -0.1872364739555872 1.0679159255702124 -0.8087351000658395
P 0.7846686276053901 6.362395703485315 1.9424732986238982 -0.3123532957622943 -0.36416308134473413 0.37508949844925077
P 6.162574124292433 0.17163324399043953 10.272515040136204 -3.380084830144901 1.4469525815926694 0.8052808229686518
P 0.8161050282186052 5.650220399505394 5.642286676606824 0.031532009170010214 0.286069679475417 0.12060864952370842
P 5.13039975079952 3.2207827771753954 10.994183473168105 1.745018514198014 -0.1690837143059604 1.1000822258901117
P 3.9624724230213038 0.7592178545470384 1.6131456885438116 -1.170269742648791 -0.6828292066989338 0.07836156792903923
Ni 5.092060862483998 3.4518389733587798 5.693160326370157 -2.6763366139051135 -6.029567299971648 1.5956255934527614
Ni 1.7625473986548548 1.0992186094266776 2.08548395417776 2.406796042432971 1.5614504902329496 1.845811414547376
Ni 0.9504659544707212 6.890343489806462 13.364041923726283 -0.3637900142760316 -1.6039456832826828 -1.9903153826314433
Ni 3.025499004797447 7.536051082488941 9.499972957340969 -1.1174867945198044 2.278912199404088 2.144622195738545
Ni 2.088981227011975 6.4082945035642425 3.7727344456934104 0.05286753742299282 -1.024382778174268 -0.3445067405663873
Ni 6.639815638970469 1.78687301879393 4.250558064278445 -2.7944312387577166 2.4764066036422574 3.9611999102317843
Ni 1.1401518586056563 3.4405874441660123 5.435296664476169 -0.5049798303852012 0.32716979194983653 0.21503986932110064
Ni 7.953743181505419 3.3261101087179417 0.8178541295749354 0.9203698282257117 -0.012922364488622905 -0.8443410221949073
Ni 4.094933607608889 1.2319308611945972 11.727583252670748 0.48038491465465655 -0.2820793273691013 -0.5550600348710442
Ni 2.6370701804666217 4.855685761591305 1.5846876885921202 -0.05576465646512977 0.1420375088214457 -0.7479675910694795
Ni 1.1961491386047043 1.213686646090291 6.597838136296988 0.042720164576345775 -0.2901852443056873 -0.4244770477434432
Ni 7.581856894723299 1.0230708635096728 8.076437852777993 0.7784888995867882 -0.8463428831162844 1.0878203778036233
Ni 5.555354200476785 8.887471323953841 4.245426995015165 -0.7460006971510958 0.010742326118168596 0.2274744955400276
Ni 8.050032094555924 9.088315769436974 10.079951162211879 3.5542179339493116 -1.4995954045993658 0.7465442283593917
Ni 6.4700384323576134 4.5682789315995125 2.1170449585026967 -0.6115577128474565 0.7130008451863076 0.5615530987945555
Ni 2.188301543795408 1.3304328849458287 13.326261892356618 0.028762931065305305 -0.5022032960813286 1.2645402684986027
Ni 2.8054897645487795 8.959657787692235 3.5498621097104848 0.726828237987703 -1.086796307414483 0.19430777898007182
Ni 0.6548771240353618 7.43516856991676 9.872402293135368 1.7728635614347403 0.9412086193479339 1.5936039350370426
Ni 2.6439326833957644 4.920609874668912 12.623320281342332 0.23116094325267933 -0.37062117826525204 0.357348629526062
Ni 1.1824520290997893 4.886036994058408 10.667073623180972 -0.2554792082830697 1.0919590825623453 -0.7655912176885137
Ni 3.2705684691572787 6.3613542396261495 7.8147505307153535 -1.376930643877577 -2.2068997136215285 -2.4103379941479584
Ni 3.2252833888525023 8.681735717846411 7.209880409731949 0.86442133788455 -0.3147094546992967 -1.3824256055538773
Ni 6.57856454575331 1.5629024963666518 13.00846105548922 -0.7611954026136633 -0.9613118178557122 -0.9888318776528517
Ni 0.19683759926068517 4.3030032086149825 12.80988179389977 0.35309396801476606 0.1711755638379826 1.2103462989547027
P 9.000293475768595 3.356982073114627 11.01672093705613 0.0007322501803342228 -1.6214587524657817 -0.9166684681147246
P 4.073388324022407 7.054467035469562 5.93607991176357 0.27157277141082264 0.9793164819632489 -1.679216013880908
P 1.0729960372584089 2.9342779292759156 0.8667601565472026 0.2618737989555038 0.7064347619330156 0.23663070811799894
P 5.873763177847658 4.857136371966571 4.831474516501049 2.271931397210881 2.1914445554087227 -5.659081875953312
P 8.468635474449172 8.512032901509212 12.4862701466253 1.091828727632068 0.5183768205173975 0.09201361149483507
P 6.850144844599573 7.70640481373812 2.615283128484262 -2.8773045785141798 -0.05093663894886711 1.942206700049674
P 2.474704105065862 6.787182775042357 11.462085288737699 -0.010746439883226653 0.3341896749110954 0.8135487194043988
P 7.303627964990401 3.218523172552385 8.014472612914549 0.043974605808737174 0.20347119064689476 0.04760140392804705
Ni 7.365185918094634 2.1314394768418743 10.225384151116746 -0.7093395942846364 1.4398763914721784 0.7653119958851982
Ni 3.071304817031806 2.181318156668326 7.848189889500571 -3.5959785628258647 -1.4719848419709487 -0.336522179699014
Ni 7.841478956758075 6.568633443953413 1.314236262178917 2.1189096214637897 -1.0581881567594873 -0.5117230626463057
Ni 4.26425517378336 3.9894760930839466 7.738808287934845 -0.08818241067420297 2.3955855184291326 1.0058312404243257
Ni 9.017170769557746 1.2849618289519156 1.4964561722734608 -0.8587458847663276 -0.17002113851856523 -1.801289677985917
Ni 2.0669245102803675 3.376490922905063 3.217553309333537 -0.693349132393651 -0.6441947821561873 0.5081307173093571
Ni 6.5476181910809705 4.920814447926962 11.08508281074743 -0.3643096342249274 0.18480755279912045 -0.333486992417116
Ni 8.82567160245373 6.755064773528456 3.8964603521622463 -0.13971400289459165 0.6484638418451865 -0.19603813140761722
Ni 0.9981036272430764 8.594931564941877 1.0837984351619117 -1.7139431329494483 0.9137590077774134 0.12017130487597366
Ni 8.467686998434575 8.951911900239693 5.675317818754387 -0.04734660760476362 -0.01678416143687432 -0.07910975894897344
Ni 1.4208263686507014 7.933862380336709 5.485611457293646 0.4626450741727323 -0.633171177352174 0.6042205557560949
Ni 3.7032874038559993 5.237707723431372 10.196327309446033 0.6657249429184793 0.21771098839536054 0.382731845485857
Ni 0.40912698865328967 1.5083930218806971 9.34174670078039 0.5150557265639646 0.4376300401856334 0.24567816303224788
Ni 0.1830837671705836 3.777389417192501 7.6950119430216075 -0.017654479856969593 -0.7842157747682366 -0.07660833268335837
Ni 8.034493825728557 6.450752753394141 6.520357874567319 2.3883481201404284 2.7516151720334547 1.5050016632166014
Ni 4.009877626182238 1.8028576292752256 3.5018329581124963 0.027252665068365968 -0.39887503090462273 1.6949611925303067
Ni 6.112862822586203 3.640966950426305 13.06574435737865 -0.18009780602827694 1.910349960550394 -0.8213193644887532
Ni 4.805556014584518 6.252177211318474 13.021594658656051 -1.7197641105065997 -1.9132149408030148 1.0315764677092298
Ni 1.2030953305939585 8.287885702177254 7.83155808362108 -2.0289042986482344 1.6974811307386832 0.09500714690552026
Ni 4.501625244612934 6.647263965320391 3.341973835001299 -0.1466320701706636 -0.2891974264711213 0.9501059218375638
Ni 4.399468798570167 1.1980181942805277 6.4794199759961115 2.9708960760190966 -1.050627827913726 -1.7943201886466196
Ni 3.132965056765065 8.371500372013095 13.11501117718784 -0.19489836137621916 -0.4938374406151366 -1.0392362982473329
Ni 4.948831685495399 7.796435644849176 1.3689465904091394 1.0617244520475198 1.0942175395792186 -0.3137239508575758
Ni 1.828661756142937 2.5157954335806063 11.517422355040312 -1.1220304480264287 0.870709741996423 -0.8882372093572252
P 7.308333149925558 2.0630748135152386 2.410307233066957 -0.7362652150308868 3.042521867886199 -2.2814642764019806
P 2.923593625935015 2.261399288410571 5.377713941727231 -0.39594731573486647 0.6619639332141503 -0.1508463653623273
P 4.315296201666915 4.088666226884984 0.2732829062803087 -2.4945670766013683 2.809700506211961 -0.8450663303967059
P 8.325796846407762 7.674519281835639 8.340969673005976 0.08964613970392303 -0.34030967176590426 0.09255174338649222
P 5.125964230613611 5.895280565080769 8.586679823614883 0.5340590071393447 -1.2790765144415648 1.0750941884862064
P 2.3454324035469707 0.5047649867918164 9.395627577437065 -0.7561028185821043 0.04390878556780825 0.05290970351483791
P 5.125155236365866 9.156633938841326 13.246495059529012 0.8064262494270048 -0.04556226201083121 -0.785728354758021
P 7.59218784425484 5.4527049188578065 13.128743622073692 0.1878900483791861 -2.4888648840102685 -0.6415951397498112
