# total energy = -340871.9750156639 ev
CRYSTAL
PRIMVEC
9.20946621233873 0.00000000000000 0.00000000000000
0.00000000000000 9.20946621233873 0.00000000000000
0.00000000000000 0.00000000000000 13.47898470886958
PRIMCOORD
 96 1
Ni 8.803899749821946 6.000648745023845 5.775731477130298 0.19746997875813735 0.5212541420651926 -0.43779484789827183
Ni 0.6254212978551797 4.451570478922473 0.8889658299293937 -0.12003169397431586 0.7550049575322352 -0.42512650840198396
Ni 3.720145461996476 3.8261648371598724 7.917623084029776 -0.051876891374949365 0.2721677246823442 -0.8345258358766983
Ni 8.109202084194736 2.5639430249839212 8.680748925589844 1.3468240543001837 -0.986560565120172 -2.1732126057817283
Ni 5.256404151114923 7.972874355690242 3.6309959870610435 -1.852476228162061 0.5222617573941005 -0.4183981885392149
Ni 5.0951003502126575 4.474142880635943 0.618334613596299 -0.8584023853839797 -3.086722730773129 1.816417791876607
Ni 4.832087204339532 0.5517133349364653 1.6388558266332396 -0.31395817835556894 -0.35640940554124423 0.15338481551346486
Ni 0.8501497716911481 2.512591041322429 10.256064960961588 0.0987766412502815 0.6410145846559928 2.8936879049682096
Ni 0.5473148938681855 0.7945734058729981 3.989469855072475 -0.23700891739302407 1.252268393109785 -0.27893075443779053
Ni 4.764084505746193 1.307569223859808 3.9840915267980295 -0.07288846062960995 -0.914106106704187 0.3646392496502043
Ni 3.673232441054647 7.662312735705874 5.907259231839174 -0.2594680177274886 0.6621058581086533 -0.9267291947848362
Ni 7.31920486208813 5.16595798333524 1.0547187239641673 1.0903472579905351 0.6917509346685957 -0.7146748904546207
Ni 5.979909027088823 3.3343425029672042 4.602925293463635 -0.35083036879157 0.6248248622700078 -0.9000226320279273
Ni 7.15865623741618 8.111366308757228 4.9255448675742555 0.8320308373689863 0.09490867365444298 1.3281840706014931
Ni 8.243752385718123 4.09919788228402 2.9057053955864323 0.22650313276569375 -0.8962073720468953 0.8830191554913955
Ni 6.300490546324213 7.95974165685572 1.2458068595794225 1.303230485979949 -0.1535668496172839 0.9272642413526999
Ni 7.658509226155624 3.318824552380832 10.80407977426275 1.272276717910912 0.5155138971473057 1.0425892738799658
Ni 0.8893065801796581 5.290258148952018 3.610737003262882 -0.025239748403395244 2.2633649956981086 -0.32148276886738825
Ni 7.709124452519247 4.80735057806357 8.762458993710043 0.6386838796402872 1.0605648845217799 -0.5006061267975378
Ni 4.965863910700155 7.64378328966446 9.67311219564884 1.3516944950186076 2.9342575988604565 0.8289920505426626
Ni 3.304006521227435 5.8074157247251685 13.050016246767335 -0.5142100907342178 1.9342823029962755 1.859221517305695
Ni 9.084779260168403 1.7421270970755827 12.785180547528604 0.2662014797965802 0.527125513244305 -0.6656172136960214
Ni 3.944202565744762 7.02021033168031 1.4685626657503459 -0.5735041005088446 0.8755552430141824 0.5975341448748548
Ni 6.703883585840115 0.46235480511776195 13.082392125275579 0.5631993761487268 0.4392688613406371 -0.5364041103327537
P 6.390807781576769 3.261210131687451 2.3128856081619698 -1.7807979857904683 1.6598898027484703 0.4561111297089564
P 2.4813433224265466 2.552910084448328 11.802562734627173 -0.4580898507018821 -1.832545036455773 -0.5236182714219949
P 5.054007711923997 2.139091929167575 13.712035963394174 -1.916410564922177 -0.2090913650471496 -0.9757819864474292
P 7.383772429780152 7.033306192649938 8.299212712261859 -1.3733323850033574 -0.008808342320249346 0.18297949845144615
P 8.92610936660602 9.050170086100993 5.887445065259601 -0.17919123505360754 0.6284994829081175 -1.1511865007650948
P 8.884556255006192 8.742712056233898 12.336870178401478 -1.0802127406596946 -0.03762166700751585 0.416490944214173
P -0.0013473449084785282 6.8862678549276675 1.849060972234959 0.18041430882743123 -0.5503217488551103 -0.09021358217161883
P 5.880262602551998 6.332428975186849 4.920611356518399 -0.40802455861437464 -1.0368120050765561 0.9365178987404839
Ni 7.754867871250708 6.481106597896879 3.3348895452608724 -0.8920545262207863 -0.8885727383197728 -0.3804888150879512
Ni 3.5669920387018905 6.492553964412524 10.87202813700537 -1.4669945878452089 -0.8638402685700994 0.4142792812748349
Ni 4.048822102042206 4.0632349166817745 11.948391869434317 1.60512736229561 -0.6634271480232381 -3.3962596401325515
Ni 1.583005939668255 3.2882951718503715 2.790338412206319 -0.7325579413826288 -1.1933975869155058 -0.030662204970547197
Ni 5.586231974438573 7.622094996708432 7.409168453837708 2.6560385257777095 -1.1423143950864456 -1.1522509374738672
Ni 5.6935406748732404 5.348139644165877 7.46126548331667 0.561244052194569 -0.9644701609790356 0.15245201928655036
Ni 0.3714242194147298 4.36594086197761 7.219142169678007 0.5677126906380482 0.2192701053523643 1.0226007465731808
Ni 2.4564869730896803 1.011484884778573 5.527367829178681 0.7370745983060597 0.01419377500187878 -1.920547469908686
Ni 3.3703146780356743 1.4133491529013964 7.66807325682859 -1.4281511326154501 0.9404917957865673 -0.39506157069580344
Ni 5.644831808017854 2.1999480819715815 11.50509513371919 -0.22214279891446906 -0.16762358482066617 0.4889245766945515
Ni 3.9315763875525263 5.2792896746799896 5.827585376700963 -0.17005867662472002 -1.2878874278649755 -0.2133928206359809
Ni 3.976527792188778 3.561042723521596 3.2814589850727667 0.01844817940285855 0.10439938675369762 -0.6780762653949806
Ni 6.342264685113404 4.845183065309159 11.983222070691088 -0.07465172317761982 -0.8919766217949994 1.4791361083037493
Ni 0.40602786780240735 7.67882530864437 4.0821106386531865 1.2439986969018253 0.20984804070751603 0.3354641707481449
Ni 2.945703028341135 0.8175786524989678 13.58870371267747 -0.17054127268809338 1.4464792415006766 -0.39325408517341953
Ni 7.886038298670118 1.713623799114263 2.1910222673078943 0.2736301681604836 0.247266076344658 1.4544869422965017
Ni 3.5614755684340937 6.479025258530398 8.244178784004264 -1.2710204769063078 -1.5399360131999413 -1.1693114925005799
Ni 2.417411207903936 8.24415760223195 9.51043434238605 0.4244132843850433 -0.6552320138069554 -0.03935896141359673
Ni 1.6830759996513562 4.6962015302137585 11.661936948236233 -0.6613167865484546 -0.47940301035736144 0.4861768387460852
Ni 1.7903754906198002 4.929919364030354 9.14849679412801 0.4245608657065011 -0.4033451508608344 0.22978745994392039
Ni 5.356916265476746 0.298847178948245 6.325067848834513 -0.028339727484957646 2.645176129141909 -0.7704194923150924
Ni 1.5781341320360944 8.461215511650478 1.8795774595127062 0.6182017005265353 -0.5791312168876348 -0.2925131211079156
Ni 1.7258723891913408 3.8464717101823958 5.306972409200807 2.277634875353561 -0.20994085753163844 -0.008425247949217748
Ni 2.9170339599877955 3.4722726785945657 0.2503409203497733 -1.0655512819927777 -1.340546448821588 2.2221036750554766
P 2.8793027768706625 8.415619444378589 3.7625780776206383 -0.3813750743476464 1.71813763064677 0.003790063170051537
P 8.89442880279764 3.6011315299919104 4.918387270425455 -0.5598934517039454 -0.13878969130810936 0.08777900458819721
P 2.6848172691656074 8.04555546312505 13.052711857530912 0.8241367793328903 -0.46035987768298137 -0.004113250837425174
P 8.615999010466599 4.103425027280546 12.549770934766775 0.008740722307107528 -0.3700241681112015 1.740505713929325
P 3.9345786735413437 8.666549770566657 7.935469187677416 -1.6416244287803792 0.32670133695385023 0.5815915055026694
P 6.680952014943933 0.14215732062388628 2.923348890977158 0.14770447729923591 0.3082243611955853 0.9358152162465045
P 2.7752634369452904 4.924541035755909 1.9765991861758732 0.18002015871280608 1.1383099019127427 -0.06166019601395833
P 3.781416040780534 2.8347657982144616 5.363180544401879 0.25385504241608536 0.2075355905242555 0.8709041173954162
Ni 3.6903528387638858 0.5199618582381645 11.065882796274124 0.5701909769752115 0.08188166526715575 0.09290912672591095
Ni 7.274879701155067 1.2517230206813132 4.8952438818061355 0.6946902198025777 0.8010698702110978 -0.012614860550533112
Ni 0.9756876895683472 6.806329688108845 13.150542175328493 -1.3668953711287621 0.004213523860715325 0.25400493773038835
Ni 8.585414373138798 9.078581289400077 0.9500927410403669 0.3419929730055981 -1.258854016747103 0.5298804502816229
Ni 5.964087164117079 3.3801780163608997 9.397737183264091 -2.1781591511537264 0.9579889241300663 -0.8949878978174973
Ni 3.4989156643787647 6.384250641625733 3.7425880102361986 -2.0888853071875575 -1.188327114371134 -0.19347705554866035
Ni 5.315022403626651 1.1468087814647212 9.0311755620153 1.2612801096900923 -1.578870742591926 -0.4848992575852424
Ni 7.05418405257831 2.7202737141255686 0.1842224785457354 0.7778921465430538 1.8149977716006291 -0.44553695373753593
Ni 5.462033112950252 5.53854535833398 2.9088863452199827 1.3116032834246767 -0.8553188613626496 -0.3368957609883489
Ni 7.2667016951487176 7.027522647861663 12.542869360778985 0.7517859363743052 1.1011777729471357 -0.0961047508450732
Ni 8.113502904921049 1.1928561125815542 10.447426617723677 -1.0059829355108418 -2.929568163804587 1.203479139521224
Ni 7.321949283022693 3.842152470523637 6.390238636564165 1.1036640297040992 1.002408587896022 0.27556312351713835
Ni 4.938042113239365 8.335110290653917 12.387645649477385 -0.6635726724621669 -2.1814573622890236 0.905984248928001
Ni 6.62360466877103 6.203735894181524 10.27551535362534 -0.8192264865154666 0.6586685502923301 -1.1041800501085692
Ni 0.8007142779507388 0.4401342050140231 8.958631675627217 -1.27893073289232 1.2645752355015962 -0.9998081741586974
Ni 2.6923229841376513 1.2777305532961003 2.5583243296410454 -0.049269278548773214 -0.7595354984127372 0.3113711343546831
Ni 8.40771772235894 7.943431692174139 10.421344488432482 -0.3850550943023949 0.305982359238944 -0.19539072763160545
Ni 0.11227444462230644 6.692205982668887 8.689591855057522 2.5282714108323487 -0.4696433598674363 -1.4380305965126912
Ni 1.4288302656228757 0.23033611781937643 11.37545439863948 -0.18035337368250876 0.20609268743014186 0.20736152684023645
Ni 8.6981750775777 5.444792992180109 10.980465917999023 0.058086362619770925 0.5922962935146832 -0.4085737462496254
Ni 1.521680104086857 8.529605007825197 6.803274908162554 0.07401486092456931 -1.244719891338566 1.1703669303482878
Ni 3.5739267667680856 2.418267688262709 9.831018624461306 -1.3699760669366148 1.9877514785590087 0.8302400640171508
Ni 0.4681098005607437 2.042714865140044 6.54210641837397 -0.7604418122770903 -1.1969410812923902 -0.16837768937787131
Ni 7.653075641083838 0.1624559051268085 7.6058273955714775 -0.0866556896170314 -0.006051862621034739 0.2744326094571209
P 1.9003088889281268 6.12693815534487 6.434516829219489 -0.4164287235176699 -0.46230054634911993 0.44811448465672504
P 4.340835857052713 4.826386544747268 9.786618866851834 0.16685302520322878 0.011620614958063857 -0.49399633479050403
P 1.1895867520722592 6.649400383662679 10.64349154888604 1.4545725600317723 0.8019623001183802 -0.37806040815211667
P 1.4921821837734142 2.6545918010205183 8.395453476189283 1.4174270613297266 0.4301373313530141 -2.6097846370164923
P 0.6053833412463787 1.8731778014340887 1.3190792147457715 2.0801911218476694 -0.19643356707382298 0.9475944682696197
P 5.57418599261841 6.349669095956991 13.656502882067272 -0.12033302726481857 1.003032594633266 -1.5431272664437294
P 6.372526991123387 2.364825155768513 7.417229499623021 -1.0418444252941412 -2.0202684773501076 0.12606401621132482
P 6.096427193746857 0.15936981299535838 10.85540781331206 0.22152804814860558 -0.7704922545345568 -0.18622937284731153
