# total energy = -340854.5863821799 ev
CRYSTAL
PRIMVEC
9.44464512345559 0.00000000000000 0.00000000000000
0.00000000000000 9.44464512345559 0.00000000000000
0.00000000000000 0.00000000000000 13.82319281753237
PRIMCOORD
 96 1
Ni 1.8491765430398501 5.188718110476575 0.45127365142081494 0.0998783589548925 -1.2105355321473732 0.604106912996366
Ni 0.8448348534241422 4.802111000789238 10.96154314137984 -0.26541086557448484 1.2859135919680564 -0.5503443745629295
Ni 3.9809085387722307 1.620058893313337 2.527694971029143 -0.15896462359408753 0.8800212492053361 3.291931472936421
Ni 4.553660162184776 2.1770662930524374 8.816225023419356 -0.533687739842855 0.8099247494985664 -0.5393248835239745
Ni 4.604651802024565 9.246383281398826 10.987544249821948 -2.1685141718647944 0.7034998476744078 -0.28020062228914966
Ni 5.228933410057575 4.050260569026643 2.7797196634056704 -1.0968837735574721 -0.5908515906483566 -1.1266262949272274
Ni 5.463245614685344 6.471574833536162 2.0960387923090558 1.448257416447022 0.30224628923527946 0.06663373796914976
Ni 1.6758295236622824 8.620023851405314 0.6236969844904867 0.2146770866650432 -0.3538922955463454 0.5690046699765943
Ni 6.34598938531433 3.446747735953384 8.941228681492248 0.6677085490074113 1.7616880044338952 0.9584944030115751
Ni 1.0958621912596278 3.340552144481151 8.95498197394172 0.20030307733155825 2.346661024814287 -1.89121941036853
Ni 9.357867874225066 0.24977403340749157 13.517188595635853 1.8686366399720076 2.3095594919762994 -0.9180154690609222
Ni 0.16105292462308501 6.89551662599562 1.3810517555193589 -0.30885710968357777 -0.7395541701948037 -1.4848845807517523
Ni 4.512575955238474 4.32221912972061 7.175868642945491 -0.5345027795449827 0.6054832245186024 0.46840588791590937
Ni 7.502845095759985 4.488444886560819 5.778426650015876 0.08537399469113038 -1.0388195224248884 0.9262028899677212
Ni 6.372358834922163 1.4134761672130023 10.490213785717538 0.4010746096591028 -0.2511656685093803 1.451962890323067
Ni 8.175048833918405 8.945297434676723 1.4349306234197192 -0.4510015763965329 -0.42348434481287067 0.3123476393353395
Ni 2.9660908486174797 5.786705826063952 11.486119518173606 0.0313718294430621 1.9110865816061022 -0.027469666175178497
Ni 3.5584495556209497 7.336912122923301 7.052952251478376 -1.6942166010547983 -0.23633477414413495 1.0104216880084855
Ni 0.49161834264208315 4.212982362469822 5.649137956381711 2.9896851837011416 1.885435199586585 -3.136800621266127
Ni 4.221850884383059 8.570420574420952 2.621098734940901 0.4380074781297102 -0.03093448479532737 1.5655897092123037
Ni 2.6486657655696053 2.7471639711427045 7.084441643289793 0.21560525490626736 1.1567213145403952 0.20656577041181848
Ni 2.681637022224672 1.396579696816006 12.087331635657872 -0.7478765740175701 -0.6107753261554771 0.01196462856104391
Ni 8.277315452956234 2.128785266406577 9.436181928380938 1.5343927147842091 0.9224074274810309 -1.2656293877977236
Ni 0.7763696753610537 2.279247910282791 10.823698543591043 0.38452493283053774 -0.053443207420804724 1.9562822043061339
P 2.8151276385416897 8.471629584844328 12.057335442264433 -0.19901675441996694 -0.2493278439696932 0.4050431073885476
P 8.153722824887428 3.9846769522369603 10.47518829954952 -0.3284090636735763 0.27770356689890885 -0.1072276002311121
P 2.2422815686763946 3.1450385426431295 4.467835726106215 -0.34637284724084866 -0.44080432414855697 0.13002377219002123
P 1.346438075050968 2.5196235771771183 13.44070491373428 -0.6897146209648574 -0.5091830698332716 0.6964969339940134
P 8.133454616127253 0.806406480729174 3.1474998172017976 1.802827454786682 0.8129733065169032 -0.2690024395804851
P 4.979641998023636 5.283863466977044 10.995244469114665 2.4908662307110134 1.4320766929221014 -0.1482436376321576
P 6.247358954707381 3.1004314830092485 6.869947137842581 -0.2525808036893521 -1.1259038149389062 -0.8334493149830677
P 8.921015251674667 5.2297456495512264 0.06650541416852362 -0.018780623041612817 1.38488203751417 -1.8040929517626672
Ni 8.579081314138138 7.76189282636301 12.681162762859715 -0.5165248549103233 -1.1928648543404876 -0.5005089390980412
Ni 6.141163363235147 0.7535060780793049 1.7972366608144499 0.05296035424711524 0.49970109848476524 0.025869154457278026
Ni 7.574019942552474 5.040163284945913 1.6953865506332493 -1.0606597582284314 0.27801724148458573 1.0050964191408303
Ni 6.235099805140416 8.10124837573946 11.836910644049041 0.559625028533907 -1.3483942270007812 0.7526701387514715
Ni 3.3182344476962977 5.604018052509397 2.4869998834681724 -0.19018784327442728 -0.20916952658325264 1.0910638244415856
Ni 4.820792509143212 1.371107488509299 12.640287282573992 1.6443572543305098 0.11802366240535156 1.1957522031906116
Ni 3.2042659131627294 0.5487612799494875 7.770155002049591 2.1535146131321685 -0.7244000881621847 -0.03713392873781992
Ni 6.268042727859656 5.92170758562497 13.492791187961444 -0.541691583983938 0.26035890497287417 -0.3242037673429771
Ni 8.225426571815317 5.468119051647251 8.81617024447676 1.6511025434741435 -0.7644555614221737 0.38415032309993846
Ni 4.329378170839068 7.452108461342621 9.558129299242836 0.793062169415273 -0.964828315649403 -0.16633777612970707
Ni 7.257350431126601 7.7484342068461185 9.317468404061204 -0.6920011030061889 -1.636077530820221 0.22820108929340702
Ni 7.049001556359839 1.463192779940665 4.852576573887209 -0.9581241641563499 0.4824417971836852 2.027626717487392
Ni 6.102119199668248 0.06334806925308716 6.502623160413236 0.6319329340696987 1.5855083025131016 -1.5582692642914904
Ni 0.1290006319532772 7.89731015031613 3.4745839389724265 -0.006007639646660621 -1.2119103010077128 0.5641787093428606
Ni 2.1243935063536963 8.400577518440413 9.522189590577835 0.05371574435590104 -0.2847807854606644 0.43445858443618723
Ni 6.329895709765709 2.9992604428233216 11.999236706855198 1.0427684797703074 1.7393746856486751 0.7014396227112694
Ni 2.6130877868186357 0.5188982560544274 4.965028298389611 3.3836296100733665 3.5886892282533034 1.8056430698586066
Ni 0.42707080343906956 0.004922549117336189 10.913147834526152 -0.8558387384218616 -0.8208254555714702 0.5411763349104164
Ni 8.832443368285606 3.5211715407204776 12.427161306227129 0.3254522950380975 -0.19797725741185904 1.4159309364001744
Ni 0.7447405027995664 0.39173932992977756 4.092908809230487 -1.2058270709281105 0.8096175026707927 -1.5133659760208968
Ni 0.8969079051479203 5.560733243214018 3.252984226884823 0.1937393080711115 -0.5182019855024301 0.21130688464122963
Ni 7.90105967449031 2.137096554248587 0.2897711616826394 -0.5798356991538273 0.3976830674790506 1.0292421631490984
Ni 7.253497015854396 0.507031059266375 12.735224856878412 -1.2443064579502312 -0.3173422643364535 -0.4908773295455481
Ni 1.1240639020508134 1.2720898274460746 1.746435802809216 0.030326161787367124 0.526687654375938 -0.4013705436329668
P 4.010989733973144 5.162518664483692 0.5212376946890479 1.7504121744097594 -0.6326669840222459 -1.2388518625935632
P 2.8004695490748714 1.6421310293210398 9.8664979119365 -0.7733047842826876 0.2504280190124074 0.017388370679776506
P 8.500681313710263 4.468025563476243 3.770704735673456 -0.18837495843540458 0.8902498689118796 -0.056998271761914736
P 4.963841106478542 5.292873658569405 4.378620662373925 -0.25367969318048567 1.775513854573394 1.2191183887203778
P 2.3606513079081184 7.468258804762891 2.50530171708209 -1.9467732363744343 0.986706603779733 -0.19943892955905007
P 5.466995138859524 7.990916029636773 7.607718436893717 -0.4094630908331142 -3.364691378407966 1.2834340200793122
P 5.705614101732699 8.667303745652024 0.3807929860560388 -0.08805694083993222 -0.68083840152115 -1.3787630691006254
P 9.100973522744743 3.6006765646455277 7.233967378354726 -1.647984309560136 -1.4374145601952473 4.156288790352255
Ni 6.372963292219763 5.794818776355187 7.692081786348232 -0.7231908983454319 1.4743422864595317 -1.0685299050051273
Ni 4.106796215642864 3.9012996237491553 12.329016330387315 -0.1913273561955092 -0.7179401914694539 1.971074275013644
Ni 7.393381657022596 5.927497153178554 11.18323918884925 -0.44191324094201956 0.025034574371124628 -0.016255028406281683
Ni 6.723973533865579 8.778826117059364 3.6793750158640917 -1.0441761587511114 -1.2276930177632661 0.8832158448832338
Ni 8.756328972014286 9.15305129679116 5.900664915952245 -0.3031248351854909 0.6058760890816469 -0.30151969548190005
Ni 4.57328613506625 7.848934677217519 5.1028728961784084 3.271061828576263 -0.5836946678886012 -0.41869386540276277
Ni 1.180202873565484 6.249616224928109 8.665759546149559 0.029138312126853045 -0.19940627654890175 0.586011746057552
Ni 3.7985513278023015 7.387563755533189 0.2943112026663376 -0.04038174625115626 -0.5451957404824546 -0.5815390549981792
Ni 3.636216764815397 2.7964839087688165 0.6194601166201164 -0.015682700842579445 0.7996354517574165 -0.7792250064218644
Ni 3.5482871173050365 4.034374675674073 10.137735846195985 -1.0934184407166911 -1.4592815354716675 -2.3910308091789148
Ni 5.643638339438072 0.21096126364983028 8.909047941646701 0.0014596152646620022 -1.629685768361264 -1.145820351357175
Ni 9.365234697539575 2.5262159395790764 4.1215506404914874 0.20344033740895934 -0.1335898922747248 -1.0671741623081814
Ni 7.19693303530235 6.374398878301566 4.563699820112113 -0.627910443173867 0.7769076711425975 0.46035987768298137
Ni 4.3949428983382015 2.6628043995462987 5.411268898343372 0.04143615565759961 -0.46861671837513486 -0.8800785848058327
Ni 3.667516319256787 0.31946984874991424 0.8196582625145432 0.15813467149362442 0.2790217714897001 -2.6598519859865286
Ni 2.4917807629063833 7.924293501866839 4.68007673919081 -1.513782751843341 -2.387963997328133 -2.6932125637248454
Ni 1.0331686359240992 1.0040602391865125 8.58638674725836 -1.8365670131309726 1.3071442192120586 2.00627319151228
Ni 0.8917190170338287 1.611237594626476 6.12739307042418 -0.895609076341264 0.6338113820393343 0.8073125086866999
Ni 2.1273024570984 3.6156935506327965 2.2741364682599543 0.634088804070437 -1.4331673548831187 1.5982838570112152
Ni 9.498763092437693 3.6169969116807477 1.2989352871757682 0.2075942116763328 -0.7228749097669098 0.08842717969515738
Ni 1.150754469597997 7.397376741973927 6.289525518002198 -2.2552410810393932 -3.5814826832025353 -0.10372395795322781
Ni 1.4137972851523526 6.809863137996538 12.847731360323406 -0.8619132267507156 1.627792407993293 -1.1574813326348712
Ni 7.215652322237423 2.836746431576192 3.0800282158216405 0.3479594750016782 0.8806395995156252 -1.580228285061085
Ni 2.5842060615676496 5.424805908416046 5.005502381251147 1.378964129367838 -0.233161775732792 0.7373695038386592
P 1.4690956832375472 9.077446911364689 7.201303072671097 -0.1439190421148747 0.3422662812716428 -0.8596709676837583
P 0.3243697307185904 7.2359677542239735 10.80025410062488 -0.0365330619290274 -1.0677534318504194 -0.5061787357893088
P 7.97687184211283 0.16520101282787023 9.005354045051469 0.2044206990443576 0.1808778787274111 0.041986371734114784
P 7.733398331568299 7.106774451507086 2.6481500879375894 -0.5962815034146762 -0.38943625408922605 -1.4853633201603837
P 8.14752713758702 7.347754575699015 6.645818149750329 -0.6435975148918206 -1.9753942425452362 0.5974593257728613
P 2.5836488274964236 5.378678260892888 7.292135059674469 -0.6310615872083389 -0.5951137083588203 -0.1727501074139541
P 5.980453279235545 2.831721880289886 1.1953870297741207 0.03748154188522577 -0.3986423460685264 -1.324240769683029
P 4.771614241196224 0.5441135700096541 4.715173985497281 1.194095384313479 0.011309768585864393 -1.0580686004624875
